@<TRIPOS>MOLECULE
0CU
   14     9     1     0     0
SMALL
bcc


@<TRIPOS>ATOM
      1 CAK         0.8890   -0.0050   -0.2530 c1        1 0CU     -0.026000
      2 NAG         2.2460   -0.0050   -0.2530 n1        1 0CU     -0.224000
      3 NAE         2.6670   -0.0050    1.0420 n2        1 0CU      0.055000
      4 NAF         1.5660   -0.0050    1.8430 n2        1 0CU     -0.068000
      5 CAJ         0.4670   -0.0050    1.0470 c1        1 0CU     -0.114000
      6 CAD        -0.9090   -0.0050    1.3400 c1        1 0CU     -0.037000
      7 CAH        -1.8370   -0.0050    0.3110 c1        1 0CU     -0.084000
      8 CLA        -3.5460    0.0110    0.6600 cl        1 0CU      0.002000
      9 CAC        -1.4100   -0.0050   -1.0080 c1        1 0CU     -0.085000
     10 CAI        -0.0540   -0.0050   -1.2980 c1        1 0CU     -0.061000
     11 CLB         0.4150    0.0560   -2.9760 cl        1 0CU      0.011000
     12 H1          2.7820   -0.0050   -0.9910 DU        1 0CU      0.291000
     13 H2         -1.2100   -0.0070    2.2690 ha        1 0CU      0.173000
     14 H3         -2.0640   -0.0050   -1.7330 ha        1 0CU      0.167000
@<TRIPOS>BOND
     1    1    5 1   
     2    2    3 1   
     3    3    4 1   
     4    4    5 1   
     5    6    7 1   
     6    6   13 1   
     7    7    8 1   
     8    9   10 1   
     9    9   14 1   
@<TRIPOS>SUBSTRUCTURE
     1 0CU         1 TEMP              0 ****  ****    0 ROOT
