@<TRIPOS>MOLECULE
0CU
   14    15     1     0     0
SMALL
bcc


@<TRIPOS>ATOM
      1 CAK         1.1300   -0.2080    0.0000 ca        1 0CU     -0.071200
      2 NAG         2.4570   -0.6570    0.0000 na        1 0CU     -0.049100
      3 NAE         2.4730   -2.0080   -0.0000 nc        1 0CU     -0.124400
      4 NAF         1.3080   -2.4990   -0.0010 nd        1 0CU     -0.207400
      5 CAJ         0.3560   -1.4340   -0.0000 ca        1 0CU      0.025400
      6 CAD        -1.0400   -1.3930   -0.0010 ca        1 0CU     -0.037000
      7 CAH        -1.6360   -0.1340   -0.0000 ca        1 0CU     -0.005600
      8 CLA        -3.3320   -0.0220   -0.0010 cl        1 0CU     -0.076400
      9 CAC        -0.8900    1.0650    0.0000 ca        1 0CU     -0.085000
     10 CAI         0.5000    1.0430    0.0010 ca        1 0CU      0.017400
     11 CLB         1.4110    2.4690    0.0010 cl        1 0CU     -0.067400
     12 H1          3.2860   -0.1120    0.0010 hn        1 0CU      0.340700
     13 H2         -1.6340   -2.3190   -0.0010 ha        1 0CU      0.173000
     14 H3         -1.4210    2.0310    0.0010 ha        1 0CU      0.167000
@<TRIPOS>BOND
     1    1    2 1   
     2    1    5 ar  
     3    1   10 ar  
     4    2    3 1   
     5    2   12 1   
     6    3    4 2   
     7    4    5 1   
     8    5    6 ar  
     9    6    7 ar  
    10    6   13 1   
    11    7    8 1   
    12    7    9 ar  
    13    9   10 ar  
    14    9   14 1   
    15   10   11 1   
@<TRIPOS>SUBSTRUCTURE
     1 0CU         1 TEMP              0 ****  ****    0 ROOT
