@<TRIPOS>MOLECULE
0CU
   14    15     1     0     0
SMALL
bcc


@<TRIPOS>ATOM
      1 CAK        -0.0210    0.0010   -0.0420 ca        1 0CU     -0.071200
      2 NAG         1.3790   -0.0010   -0.0150 na        1 0CU     -0.049100
      3 NAE         1.8040    0.0080    1.2670 nc        1 0CU     -0.124400
      4 NAF         0.8420    0.0160    2.0870 nd        1 0CU     -0.207400
      5 CAJ        -0.3880    0.0130    1.3610 ca        1 0CU      0.025400
      6 CAD        -1.7300    0.0190    1.7440 ca        1 0CU     -0.037000
      7 CAH        -2.6790    0.0130    0.7250 ca        1 0CU     -0.005600
      8 ClA        -4.3300    0.0190    1.1330 cl        1 0CU     -0.076400
      9 CAC        -2.3320    0.0010   -0.6430 ca        1 0CU     -0.085000
     10 CAI        -1.0000   -0.0050   -1.0430 ca        1 0CU      0.017400
     11 ClB        -0.5640   -0.0180   -2.6780 cl        1 0CU     -0.067400
     12 H1          2.0040   -0.0090   -0.7860 hn        1 0CU      0.340700
     13 H2         -2.0160    0.0280    2.8070 ha        1 0CU      0.173000
     14 H3         -3.1310   -0.0030   -1.4030 ha        1 0CU      0.167000
@<TRIPOS>BOND
     1    1    2 1   
     2    1    5 ar  
     3    1   10 ar  
     4    2    3 1   
     5    2   12 1   
     6    3    4 2   
     7    4    5 1   
     8    5    6 ar  
     9    6    7 ar  
    10    6   13 1   
    11    7    8 1   
    12    7    9 ar  
    13    9   10 ar  
    14    9   14 1   
    15   10   11 1   
@<TRIPOS>SUBSTRUCTURE
     1 0CU         1 TEMP              0 ****  ****    0 ROOT
