@<TRIPOS>MOLECULE
0CV
   44    47     1     0     0
SMALL
bcc


@<TRIPOS>ATOM
      1 C11        -0.0660   -0.0050    0.1980 ca        1 0CV     -0.163000
      2 C20         0.0510    0.0170    2.6330 ca        1 0CV     -0.177000
      3 C8          1.3490    0.0140    0.1140 ca        1 0CV     -0.144300
      4 C9          3.4100    0.0080   -1.1270 ca        1 0CV     -0.287200
      5 C15         1.4250    0.0330    2.5940 ca        1 0CV     -0.084600
      6 C10         2.1200    0.0320    1.3270 ca        1 0CV      0.401600
      7 C7          2.0300    0.0110   -1.1610 ca        1 0CV      0.207600
      8 C16        -0.6960   -0.0030    1.4290 ca        1 0CV      0.120100
      9 C13         4.5130   -0.0120   -2.1050 cc        1 0CV      0.391900
     10 C12         4.0970    0.0400    0.1720 ca        1 0CV      0.426800
     11 C2          0.6910   -1.2150   -2.7710 c3        1 0CV      0.184300
     12 C6          0.6610    1.2340   -2.7490 c3        1 0CV      0.184300
     13 C3          0.1260   -1.1930   -4.2070 c3        1 0CV      0.160800
     14 C5          0.0970    1.2240   -4.1850 c3        1 0CV      0.160800
     15 C23         2.1990    0.0550    3.8600 c3        1 0CV     -0.050800
     16 C19         4.3290   -0.0490   -3.5680 c3        1 0CV     -0.104400
     17 C22        -2.7530   -0.0110    2.6360 c3        1 0CV      0.113700
     18 N18         5.6910    0.0080   -1.4630 nd        1 0CV     -0.521100
     19 N17         5.4980    0.1440   -0.1320 na        1 0CV     -0.112800
     20 N14         3.4980    0.0480    1.3590 nb        1 0CV     -0.664000
     21 N1          1.3910    0.0150   -2.4370 nh        1 0CV     -0.660000
     22 N4         -0.6280    0.0090   -4.4980 n7        1 0CV     -0.820200
     23 O21        -2.0790   -0.0250    1.3840 os        1 0CV     -0.325900
     24 H11        -0.6910   -0.0230   -0.7070 ha        1 0CV      0.159000
     25 H20        -0.4690    0.0200    3.6030 ha        1 0CV      0.142000
     26 H21        -0.1520   -1.4390   -2.0570 h1        1 0CV      0.046450
     27 H22         1.4340   -2.0590   -2.7020 h1        1 0CV      0.046450
     28 H62        -0.1880    1.4240   -2.0310 h1        1 0CV      0.046450
     29 H61         1.3830    2.0940   -2.6640 h1        1 0CV      0.046450
     30 H32        -0.5720   -2.0700   -4.3150 h1        1 0CV      0.035950
     31 H31         0.9850   -1.3430   -4.9260 h1        1 0CV      0.035950
     32 H51        -0.6230    2.0850   -4.2770 h1        1 0CV      0.035950
     33 H52         0.9510    1.4080   -4.9020 h1        1 0CV      0.035950
     34 H233        2.8640   -0.8430    3.9240 hc        1 0CV      0.052367
     35 H232        2.8450    0.9680    3.9040 hc        1 0CV      0.052367
     36 H231        1.5210    0.0570    4.7480 hc        1 0CV      0.052367
     37 H193        3.7750    0.8680   -3.8940 hc        1 0CV      0.057367
     38 H191        5.3040   -0.0960   -4.1130 hc        1 0CV      0.057367
     39 H192        3.7160   -0.9450   -3.8410 hc        1 0CV      0.057367
     40 H221       -2.5120    0.9180    3.2070 h1        1 0CV      0.045367
     41 H223       -3.8350   -0.0260    2.3470 h1        1 0CV      0.045367
     42 H222       -2.4940   -0.9180    3.2350 h1        1 0CV      0.045367
     43 H17         6.1730   -0.2990    0.4580 hn        1 0CV      0.301700
     44 H1         -0.9120    0.0140   -5.4600 hn        1 0CV      0.365800
@<TRIPOS>BOND
     1    1    3 ar  
     2    1    8 ar  
     3    1   24 1   
     4    2    5 ar  
     5    2    8 ar  
     6    2   25 1   
     7    3    6 ar  
     8    3    7 ar  
     9    4    7 ar  
    10    4    9 1   
    11    4   10 ar  
    12    5    6 ar  
    13    5   15 1   
    14    6   20 ar  
    15    7   21 1   
    16    8   23 1   
    17    9   16 1   
    18    9   18 2   
    19   10   19 1   
    20   10   20 ar  
    21   11   13 1   
    22   11   21 1   
    23   11   26 1   
    24   11   27 1   
    25   12   14 1   
    26   12   21 1   
    27   12   28 1   
    28   12   29 1   
    29   13   22 1   
    30   13   30 1   
    31   13   31 1   
    32   14   22 1   
    33   14   32 1   
    34   14   33 1   
    35   15   34 1   
    36   15   35 1   
    37   15   36 1   
    38   16   37 1   
    39   16   38 1   
    40   16   39 1   
    41   17   23 1   
    42   17   40 1   
    43   17   41 1   
    44   17   42 1   
    45   18   19 1   
    46   19   43 1   
    47   22   44 1   
@<TRIPOS>SUBSTRUCTURE
     1 0CV         1 TEMP              0 ****  ****    0 ROOT
