@<TRIPOS>MOLECULE
0CV
   44    47     1     0     0
SMALL
bcc


@<TRIPOS>ATOM
      1 C11        -1.6840    0.6650    0.0060 ca        1 0CV     -0.164000
      2 C20        -3.4120   -1.0530    0.0230 ca        1 0CV     -0.178000
      3 C8         -0.6730   -0.3290    0.0100 ca        1 0CV     -0.144300
      4 C9          1.6300   -1.0260   -0.0120 ca        1 0CV     -0.286200
      5 C15        -2.4630   -2.0470    0.0270 ca        1 0CV     -0.081600
      6 C10        -1.0560   -1.7130    0.0210 ca        1 0CV      0.402600
      7 C7          0.7300    0.0220    0.0020 ca        1 0CV      0.206600
      8 C16        -3.0200    0.3090    0.0120 ca        1 0CV      0.121100
      9 C13         3.0950   -1.1870   -0.0390 cc        1 0CV      0.392900
     10 C12         1.1270   -2.4060    0.0130 ca        1 0CV      0.427800
     11 C2          1.0180    2.0950   -1.2200 c3        1 0CV      0.145800
     12 C6          1.0030    2.0860    1.2420 c3        1 0CV      0.145800
     13 C3          1.6490    3.5060   -1.1780 c3        1 0CV      0.149800
     14 C5          1.6350    3.4960    1.2190 c3        1 0CV      0.149800
     15 C23        -2.8830   -3.4690    0.0390 c3        1 0CV     -0.051800
     16 C19         4.0570   -0.0700   -0.0740 c3        1 0CV     -0.105400
     17 C22        -5.2940    1.0280    0.0240 c3        1 0CV      0.113700
     18 N18         3.4080   -2.4930   -0.0300 nd        1 0CV     -0.519100
     19 N17         2.2920   -3.2420    0.1060 na        1 0CV     -0.113800
     20 N14        -0.1550   -2.7570    0.0240 nb        1 0CV     -0.664000
     21 N1          1.2440    1.3520    0.0100 nh        1 0CV     -0.657000
     22 N4          1.3710    4.2670    0.0220 n3        1 0CV     -0.797200
     23 O21        -3.9120    1.3660    0.0050 os        1 0CV     -0.328900
     24 H11        -1.4300    1.7340   -0.0040 ha        1 0CV      0.149000
     25 H20        -4.4800   -1.3170    0.0300 ha        1 0CV      0.143000
     26 H21        -0.0790    2.1950   -1.4650 h1        1 0CV      0.043450
     27 H22         1.5010    1.5150   -2.0550 h1        1 0CV      0.043450
     28 H62         1.4750    1.4990    2.0790 h1        1 0CV      0.043450
     29 H61        -0.0970    2.1850    1.4750 h1        1 0CV      0.043450
     30 H32         2.7680    3.4050   -1.2640 h1        1 0CV      0.060950
     31 H31         1.2770    4.0780   -2.0710 h1        1 0CV      0.060950
     32 H51         1.2530    4.0620    2.1120 h1        1 0CV      0.060950
     33 H52         2.7530    3.3950    1.3160 h1        1 0CV      0.060950
     34 H233       -2.4890   -3.9980   -0.8650 hc        1 0CV      0.053033
     35 H232       -2.4790   -3.9860    0.9460 hc        1 0CV      0.053033
     36 H231       -3.9970   -3.5610    0.0460 hc        1 0CV      0.053033
     37 H193        3.9290    0.5560    0.8460 hc        1 0CV      0.058033
     38 H191        5.1150   -0.4270   -0.1240 hc        1 0CV      0.058033
     39 H192        3.8460    0.5720   -0.9660 hc        1 0CV      0.058033
     40 H221       -5.5710    0.4420   -0.8860 h1        1 0CV      0.045367
     41 H223       -5.5500    0.4590    0.9510 h1        1 0CV      0.045367
     42 H222       -5.8040    2.0250    0.0210 h1        1 0CV      0.045367
     43 H17         2.3050   -4.1380   -0.3380 hn        1 0CV      0.302700
     44 H1          0.4150    4.5780    0.0170 hn        1 0CV      0.351800
@<TRIPOS>BOND
     1    1    3 ar  
     2    1    8 ar  
     3    1   24 1   
     4    2    5 ar  
     5    2    8 ar  
     6    2   25 1   
     7    3    6 ar  
     8    3    7 ar  
     9    4    7 ar  
    10    4    9 1   
    11    4   10 ar  
    12    5    6 ar  
    13    5   15 1   
    14    6   20 ar  
    15    7   21 1   
    16    8   23 1   
    17    9   16 1   
    18    9   18 2   
    19   10   19 1   
    20   10   20 ar  
    21   11   13 1   
    22   11   21 1   
    23   11   26 1   
    24   11   27 1   
    25   12   14 1   
    26   12   21 1   
    27   12   28 1   
    28   12   29 1   
    29   13   22 1   
    30   13   30 1   
    31   13   31 1   
    32   14   22 1   
    33   14   32 1   
    34   14   33 1   
    35   15   34 1   
    36   15   35 1   
    37   15   36 1   
    38   16   37 1   
    39   16   38 1   
    40   16   39 1   
    41   17   23 1   
    42   17   40 1   
    43   17   41 1   
    44   17   42 1   
    45   18   19 1   
    46   19   43 1   
    47   22   44 1   
@<TRIPOS>SUBSTRUCTURE
     1 0CV         1 TEMP              0 ****  ****    0 ROOT
