@<TRIPOS>MOLECULE
0CV
   44    47     1     0     0
SMALL
bcc


@<TRIPOS>ATOM
      1 C11        -0.0660    0.0210    0.1980 ca        1 0CV     -0.163000
      2 C20         0.0510    0.0080    2.6320 ca        1 0CV     -0.177000
      3 C8          1.3490   -0.0030    0.1140 ca        1 0CV     -0.144300
      4 C9          3.4110   -0.0080   -1.1260 ca        1 0CV     -0.287200
      5 C15         1.4240   -0.0130    2.5940 ca        1 0CV     -0.084600
      6 C10         2.1190   -0.0190    1.3270 ca        1 0CV      0.401600
      7 C7          2.0300   -0.0060   -1.1610 ca        1 0CV      0.207600
      8 C16        -0.6970    0.0250    1.4290 ca        1 0CV      0.120100
      9 C13         4.5130    0.0050   -2.1050 cc        1 0CV      0.391900
     10 C12         4.0970   -0.0360    0.1720 ca        1 0CV      0.426800
     11 C2          0.6580   -1.2320   -2.7440 c3        1 0CV      0.184300
     12 C6          0.6950    1.2170   -2.7760 c3        1 0CV      0.184300
     13 C3          0.0940   -1.2270   -4.1800 c3        1 0CV      0.160800
     14 C5          0.1300    1.1900   -4.2130 c3        1 0CV      0.160800
     15 C23         2.1980   -0.0320    3.8600 c3        1 0CV     -0.050800
     16 C19         4.3300    0.0370   -3.5680 c3        1 0CV     -0.104400
     17 C22        -2.7540    0.0440    2.6360 c3        1 0CV      0.113700
     18 N18         5.6910   -0.0150   -1.4620 nd        1 0CV     -0.521100
     19 N17         5.4980   -0.1450   -0.1310 na        1 0CV     -0.112800
     20 N14         3.4980   -0.0380    1.3590 nb        1 0CV     -0.664000
     21 N1          1.3910   -0.0140   -2.4370 nh        1 0CV     -0.660000
     22 N4         -0.6280   -0.0110   -4.4980 n3        1 0CV     -0.820200
     23 O21        -2.0790    0.0510    1.3840 os        1 0CV     -0.325900
     24 H11        -0.6900    0.0370   -0.7080 ha        1 0CV      0.159000
     25 H20        -0.4690    0.0100    3.6020 ha        1 0CV      0.142000
     26 H21         1.3780   -2.0940   -2.6550 h1        1 0CV      0.046450
     27 H22        -0.1920   -1.4170   -2.0250 h1        1 0CV      0.046450
     28 H62         1.4410    2.0580   -2.7110 h1        1 0CV      0.046450
     29 H61        -0.1480    1.4460   -2.0630 h1        1 0CV      0.046450
     30 H32         0.9470   -1.4160   -4.8960 h1        1 0CV      0.035950
     31 H31        -0.6280   -2.0860   -4.2690 h1        1 0CV      0.035950
     32 H51        -0.5650    2.0690   -4.3240 h1        1 0CV      0.035950
     33 H52         0.9890    1.3350   -4.9320 h1        1 0CV      0.035950
     34 H233        2.8650    0.8650    3.9200 hc        1 0CV      0.052367
     35 H232        2.8410   -0.9460    3.9080 hc        1 0CV      0.052367
     36 H231        1.5200   -0.0280    4.7480 hc        1 0CV      0.052367
     37 H193        3.7740   -0.8790   -3.8910 hc        1 0CV      0.057367
     38 H191        3.7190    0.9340   -3.8450 hc        1 0CV      0.057367
     39 H192        5.3050    0.0800   -4.1130 hc        1 0CV      0.057367
     40 H221       -3.8350    0.0600    2.3460 h1        1 0CV      0.045367
     41 H223       -2.5150   -0.8850    3.2090 h1        1 0CV      0.045367
     42 H222       -2.4930    0.9520    3.2310 h1        1 0CV      0.045367
     43 H17         6.1740    0.2980    0.4580 hn        1 0CV      0.301700
     44 H1         -0.9110   -0.0190   -5.4600 hn        1 0CV      0.365800
@<TRIPOS>BOND
     1    1    3 ar  
     2    1    8 ar  
     3    1   24 1   
     4    2    5 ar  
     5    2    8 ar  
     6    2   25 1   
     7    3    6 ar  
     8    3    7 ar  
     9    4    7 ar  
    10    4    9 1   
    11    4   10 ar  
    12    5    6 ar  
    13    5   15 1   
    14    6   20 ar  
    15    7   21 1   
    16    8   23 1   
    17    9   16 1   
    18    9   18 2   
    19   10   19 1   
    20   10   20 ar  
    21   11   13 1   
    22   11   21 1   
    23   11   26 1   
    24   11   27 1   
    25   12   14 1   
    26   12   21 1   
    27   12   28 1   
    28   12   29 1   
    29   13   22 1   
    30   13   30 1   
    31   13   31 1   
    32   14   22 1   
    33   14   32 1   
    34   14   33 1   
    35   15   34 1   
    36   15   35 1   
    37   15   36 1   
    38   16   37 1   
    39   16   38 1   
    40   16   39 1   
    41   17   23 1   
    42   17   40 1   
    43   17   41 1   
    44   17   42 1   
    45   18   19 1   
    46   19   43 1   
    47   22   44 1   
@<TRIPOS>SUBSTRUCTURE
     1 0CV         1 TEMP              0 ****  ****    0 ROOT
