@<TRIPOS>MOLECULE
0CV
   44    36     1     0     0
SMALL
bcc


@<TRIPOS>ATOM
      1 C11        -1.5200   -0.0130    1.0170 c1        1 0CV     -0.163000
      2 C20        -1.5070   -0.0730    3.4340 c1        1 0CV     -0.177000
      3 C8         -0.1050    0.0150    1.0090 c1        1 0CV     -0.079000
      4 C9          1.9860    0.0090   -0.2030 c1        1 0CV     -0.051500
      5 C15        -0.1130   -0.0450    3.4280 c1        1 0CV     -0.012000
      6 C10         0.5890   -0.0000    2.2000 c2        1 0CV      0.008000
      7 C7          0.5880    0.0200   -0.2000 c1        1 0CV      0.126000
      8 C16        -2.2110   -0.0570    2.2290 c1        1 0CV      0.075000
      9 C13         2.9150    0.0320   -1.2350 c1        1 0CV     -0.055000
     10 C12         2.6730   -0.0060    0.9820 c1        1 0CV     -0.051500
     11 C2         -0.3820   -1.0700   -2.0450 c3        1 0CV     -0.052500
     12 C6         -0.3360    1.3050   -1.9410 c3        1 0CV     -0.052500
     13 C3         -0.8040   -0.9970   -3.5060 c3        1 0CV     -0.076000
     14 C5         -0.7570    1.3770   -3.4020 c3        1 0CV     -0.076000
     15 C23         0.4640   -0.0050    4.8450 c2        1 0CV     -0.161500
     16 C19         3.7720   -0.0950   -2.4970 c2        1 0CV     -0.161500
     17 C22        -4.5390   -0.3990    2.5850 c3        1 0CV     -0.076000
     18 N18         4.1580    0.0310   -0.6820 n2        1 0CV     -0.054000
     19 N17         4.0150    0.0070    0.6930 n1        1 0CV     -0.179000
     20 N14         1.9780   -0.0110    2.1930 n1        1 0CV     -0.138000
     21 N1          0.3440    0.0880   -1.6300 n2        1 0CV     -0.262000
     22 N4         -1.4840    0.2190   -3.8170 n3        1 0CV     -0.299000
     23 O21        -3.5340    0.3660    1.9380 o         1 0CV     -0.209000
     24 H11        -2.0150   -0.0020    0.1710 ha        1 0CV      0.159000
     25 H20        -1.9940   -0.1040    4.2870 ha        1 0CV      0.142000
     26 H21         0.1840   -1.8640   -1.9150 h1        1 0CV      0.085750
     27 H22        -1.1860   -1.1580   -1.4860 h1        1 0CV      0.085750
     28 H62        -1.1360    1.3750   -1.3750 h1        1 0CV      0.085750
     29 H61         0.2600    2.0620   -1.7440 h1        1 0CV      0.085750
     30 H32        -0.0020   -1.0670   -4.0720 h1        1 0CV      0.075250
     31 H31        -1.4000   -1.7550   -3.7030 h1        1 0CV      0.075250
     32 H51         0.0470    1.4650   -3.9610 h1        1 0CV      0.075250
     33 H52        -1.3240    2.1720   -3.5320 h1        1 0CV      0.075250
     34 H233        1.4390   -0.1140    4.8050 ha        1 0CV      0.094167
     35 H232        0.0740   -0.7340    5.3780 ha        1 0CV      0.094167
     36 H231        0.2470    0.8580    5.2630 ha        1 0CV      0.094167
     37 H193        4.4150    0.6480   -2.5330 ha        1 0CV      0.094167
     38 H191        4.2590   -0.9490   -2.4780 ha        1 0CV      0.094167
     39 H192        3.1940   -0.0660   -3.2900 ha        1 0CV      0.094167
     40 H221       -4.2950   -1.3500    2.5570 h1        1 0CV      0.084333
     41 H223       -5.3980   -0.2670    2.1260 h1        1 0CV      0.084333
     42 H222       -4.6200   -0.1090    3.5210 h1        1 0CV      0.084333
     43 H17         4.6990    0.0010    1.3060 DU        1 0CV      0.252000
     44 H1         -1.6380    0.2620   -4.7220 hn        1 0CV      0.161000
@<TRIPOS>BOND
     1    1    8 1   
     2    1   24 1   
     3    2    5 1   
     4    2   25 1   
     5    3    6 1   
     6    3    7 1   
     7    4   10 1   
     8    5    6 1   
     9    6   20 1   
    10    9   18 1   
    11   11   13 1   
    12   11   21 1   
    13   11   26 1   
    14   11   27 1   
    15   12   14 1   
    16   12   21 1   
    17   12   28 1   
    18   12   29 1   
    19   13   22 1   
    20   13   30 1   
    21   13   31 1   
    22   14   22 1   
    23   14   32 1   
    24   14   33 1   
    25   15   34 1   
    26   15   35 1   
    27   15   36 1   
    28   16   37 1   
    29   16   38 1   
    30   16   39 1   
    31   17   23 1   
    32   17   40 1   
    33   17   41 1   
    34   17   42 1   
    35   18   19 1   
    36   22   44 1   
@<TRIPOS>SUBSTRUCTURE
     1 0CV         1 TEMP              0 ****  ****    0 ROOT
