@<TRIPOS>MOLECULE
0CX
   63    63     1     0     0
SMALL
bcc


@<TRIPOS>ATOM
      1 O4         -1.4670   -0.0090    0.9200 o         1 0CX     -0.151000
      2 C15        -0.2460   -0.0630    0.9370 c1        1 0CX      0.150000
      3 C16         0.4940   -0.0840    2.2600 c2        1 0CX     -0.084000
      4 C24         0.4920   -1.4940    2.8200 c3        1 0CX     -0.220000
      5 C17        -0.1950    0.8510    3.2400 c3        1 0CX      0.049000
      6 O5          0.1150    2.1740    2.9190 oh        1 0CX     -0.310000
      7 C18        -1.6930    0.6520    3.1580 c3        1 0CX     -0.198000
      8 C19        -2.3810    1.9820    2.6340 c3        1 0CX     -0.143000
      9 C20        -1.7860    2.3690    1.2110 c3        1 0CX     -0.190000
     10 C21        -2.5710    1.6500    0.1100 c3        1 0CX      0.021000
     11 C22        -4.0570    1.8940    0.3030 c3        1 0CX     -0.180000
     12 C23        -4.6160    2.6260   -0.9190 c3        1 0CX     -0.210000
     13 O1         -2.3110    0.2730    0.1720 os        1 0CX     -0.157000
     14 C14         0.5160   -0.9470   -0.1130 c2        1 0CX     -0.182000
     15 C13         1.6400   -0.4260   -0.7910 c1        1 0CX     -0.108000
     16 C12         1.5670   -0.6580   -2.1870 c2        1 0CX     -0.074000
     17 C11         2.3830   -0.6530   -2.6500 c3        1 0CX     -0.086000
     18 C10         2.9490    0.3730   -2.2160 c3        1 0CX     -0.157000
     19 C9          3.6210   -0.0250   -0.9650 c3        1 0CX      0.028000
     20 C8          3.8750   -1.1630   -1.1250 c3        1 0CX     -0.189000
     21 O2          2.6370    0.1520    0.2720 oh        1 0CX     -0.334000
     22 C7          3.1240   -1.5520   -2.4290 c3        1 0CX     -0.068000
     23 C6          2.4650   -3.1520   -2.4330 c2        1 0CX     -0.157000
     24 C5          1.0800   -3.2170   -2.2320 c1        1 0CX     -0.148000
     25 C4          0.5140   -2.1640   -2.3540 c2        1 0CX     -0.066000
     26 C3         -0.3480   -2.1170   -1.0440 c3        1 0CX     -0.092000
     27 C2         -1.2780   -1.4870   -1.2860 c3        1 0CX     -0.243000
     28 C1         -1.1200   -0.0520   -0.6760 c2        1 0CX      0.026000
     29 O3         -0.0210    0.3580   -0.3630 o         1 0CX     -0.067000
     30 H1          1.4200    0.2110    2.1220 ha        1 0CX      0.114000
     31 H2         -0.3810   -1.9170    2.6420 hc        1 0CX      0.086333
     32 H3          1.2020   -2.0170    2.3910 hc        1 0CX      0.086333
     33 H4          0.6500   -1.4610    3.7960 hc        1 0CX      0.086333
     34 H5          0.1120    0.6550    4.1530 h1        1 0CX      0.062000
     35 H6          0.5990    2.5250    3.5620 ho        1 0CX      0.199000
     36 H7         -1.8860   -0.0660    2.5530 hc        1 0CX      0.092500
     37 H8         -2.0390    0.4330    4.0420 hc        1 0CX      0.092500
     38 H9         -2.2110    2.7040    3.2630 hc        1 0CX      0.074000
     39 H10        -3.3420    1.8410    2.5570 hc        1 0CX      0.074000
     40 H11        -0.8470    2.1010    1.1670 hc        1 0CX      0.110500
     41 H12        -1.8580    3.3580    1.0780 hc        1 0CX      0.110500
     42 H13        -2.2940    1.9950   -0.7680 h1        1 0CX      0.111000
     43 H14        -4.5170    1.0380    0.4070 hc        1 0CX      0.094000
     44 H15        -4.1980    2.4440    1.1090 hc        1 0CX      0.094000
     45 H16        -4.5420    2.0490   -1.7080 hc        1 0CX      0.073667
     46 H17        -5.5610    2.8500   -0.7640 hc        1 0CX      0.073667
     47 H18        -4.1060    3.4490   -1.0680 hc        1 0CX      0.073667
     48 H20         2.0860    0.3700   -0.4520 ha        1 0CX      0.165000
     49 H22         1.0430    0.0860   -2.5630 ha        1 0CX      0.095000
     50 H23         2.2270   -0.5710   -3.6110 hc        1 0CX      0.092000
     51 H24         2.2860    1.0710   -2.0340 hc        1 0CX      0.097500
     52 H25         3.6060    0.6930   -2.8630 hc        1 0CX      0.097500
     53 H26         4.4450    0.4980   -0.8330 h1        1 0CX      0.075000
     54 H27         4.8480   -1.2860   -1.2380 hc        1 0CX      0.095500
     55 H28         3.5460   -1.6970   -0.3680 hc        1 0CX      0.095500
     56 H29         3.0870    0.4550    0.9600 ho        1 0CX      0.201000
     57 H30         3.8000   -1.5350   -3.1540 hc        1 0CX      0.091000
     58 H31         3.0230   -3.9040   -2.1990 ha        1 0CX      0.123000
     59 H32         0.5970   -4.0580   -2.4030 ha        1 0CX      0.124000
     60 H33        -0.0420   -2.1370   -3.1500 ha        1 0CX      0.100000
     61 H34        -0.6800   -2.9310   -0.6410 hc        1 0CX      0.125000
     62 H35        -1.3800   -1.4180   -2.2560 hc        1 0CX      0.125500
     63 H36        -2.0750   -1.9200   -0.9020 hc        1 0CX      0.125500
@<TRIPOS>BOND
     1    1    2 1   
     2    2   14 1   
     3    3    4 1   
     4    3    5 1   
     5    3   30 1   
     6    4   31 1   
     7    4   32 1   
     8    4   33 1   
     9    5    6 1   
    10    5    7 1   
    11    5   34 1   
    12    6   35 1   
    13    7    8 1   
    14    7   36 1   
    15    7   37 1   
    16    8    9 1   
    17    8   38 1   
    18    8   39 1   
    19    9   10 1   
    20    9   40 1   
    21    9   41 1   
    22   10   11 1   
    23   10   13 1   
    24   10   42 1   
    25   11   12 1   
    26   11   43 1   
    27   11   44 1   
    28   12   45 1   
    29   12   46 1   
    30   12   47 1   
    31   13   28 1   
    32   14   15 1   
    33   14   26 1   
    34   15   48 1   
    35   16   17 1   
    36   16   25 1   
    37   16   49 1   
    38   17   18 1   
    39   17   22 1   
    40   17   50 1   
    41   18   19 1   
    42   18   51 1   
    43   18   52 1   
    44   19   20 1   
    45   19   21 1   
    46   19   53 1   
    47   20   22 1   
    48   20   54 1   
    49   20   55 1   
    50   21   56 1   
    51   22   23 1   
    52   22   57 1   
    53   23   24 1   
    54   23   58 1   
    55   24   59 1   
    56   25   26 1   
    57   25   60 1   
    58   26   27 1   
    59   26   61 1   
    60   27   28 1   
    61   27   62 1   
    62   27   63 1   
    63   28   29 1   
@<TRIPOS>SUBSTRUCTURE
     1 0CX         1 TEMP              0 ****  ****    0 ROOT
