@<TRIPOS>MOLECULE
0CX
   63    66     1     0     0
SMALL
bcc


@<TRIPOS>ATOM
      1 O4          0.0750    0.4590   -0.0560 o         1 0CX     -0.526100
      2 C15         1.2820    0.1810   -0.0590 c         1 0CX      0.590300
      3 C16         1.9970    0.0170    1.2670 c3        1 0CX     -0.155700
      4 C24         2.8570    1.2270    1.5700 c3        1 0CX     -0.086100
      5 C17         2.8290   -1.2660    1.3650 c3        1 0CX      0.154100
      6 O5          3.1800   -1.3800    2.7440 oh        1 0CX     -0.603800
      7 C18         2.1190   -2.5160    0.8620 c3        1 0CX     -0.121400
      8 C19         0.7550   -2.7540    1.4710 c3        1 0CX     -0.076400
      9 C20         0.0790   -3.9540    0.8390 c3        1 0CX     -0.081400
     10 C21        -0.8770   -3.5940   -0.2980 c3        1 0CX      0.147100
     11 C22        -1.3630   -4.8540   -1.0110 c3        1 0CX     -0.098400
     12 C23        -2.7810   -4.7200   -1.5020 c3        1 0CX     -0.100100
     13 O1         -0.1320   -2.7820   -1.2340 os        1 0CX     -0.450900
     14 C14         2.0140    0.0470   -1.3300 ce        1 0CX     -0.198400
     15 C13         3.0770    0.7750   -1.7240 c2        1 0CX     -0.118200
     16 C12         3.4950    0.4690   -3.1320 c3        1 0CX     -0.029500
     17 C11         4.8730   -0.1520   -3.2030 c3        1 0CX     -0.061700
     18 C10         6.0800    0.7430   -2.9620 c3        1 0CX     -0.073400
     19 C9          7.2310    0.0570   -3.7260 c3        1 0CX      0.139100
     20 C8          6.6000   -0.9920   -4.6670 c3        1 0CX     -0.106400
     21 O2          7.9170    1.0720   -4.4410 oh        1 0CX     -0.596800
     22 C7          5.1060   -0.7100   -4.6220 c3        1 0CX     -0.041500
     23 C6          4.1550   -1.8220   -4.8510 c2        1 0CX     -0.153200
     24 C5          2.9060   -1.7110   -4.3790 c2        1 0CX     -0.171200
     25 C4          2.4050   -0.5130   -3.6520 c3        1 0CX     -0.034500
     26 C3          1.5670   -0.9170   -2.4070 c3        1 0CX     -0.014500
     27 C2          0.0820   -0.8720   -2.7090 c3        1 0CX     -0.120400
     28 C1         -0.7840   -1.7580   -1.8630 c         1 0CX      0.641100
     29 O3         -2.0050   -1.6580   -1.7270 o         1 0CX     -0.539000
     30 H1          1.1970   -0.0430    2.0650 hc        1 0CX      0.093700
     31 H2          3.2330    1.1510    2.6200 hc        1 0CX      0.046033
     32 H3          3.7400    1.2770    0.8880 hc        1 0CX      0.046033
     33 H4          2.2620    2.1650    1.4640 hc        1 0CX      0.046033
     34 H5          3.7810   -1.1370    0.7700 h1        1 0CX      0.035700
     35 H6          3.5210   -2.2720    2.8740 ho        1 0CX      0.403000
     36 H7          2.0080   -2.4360   -0.2520 hc        1 0CX      0.054700
     37 H8          2.7770   -3.4020    1.0680 hc        1 0CX      0.054700
     38 H9          0.8690   -2.9160    2.5750 hc        1 0CX      0.053200
     39 H10         0.1130   -1.8430    1.3290 hc        1 0CX      0.053200
     40 H11        -0.5290   -4.4920    1.6140 hc        1 0CX      0.049700
     41 H12         0.8500   -4.6720    0.4550 hc        1 0CX      0.049700
     42 H13        -1.7460   -2.9980    0.0990 h1        1 0CX      0.082700
     43 H14        -0.6780   -5.0700   -1.8730 hc        1 0CX      0.048700
     44 H15        -1.2940   -5.7230   -0.3050 hc        1 0CX      0.048700
     45 H16        -2.8920   -3.8050   -2.1350 hc        1 0CX      0.042033
     46 H17        -3.0670   -5.6140   -2.1060 hc        1 0CX      0.042033
     47 H18        -3.4890   -4.6330   -0.6420 hc        1 0CX      0.042033
     48 H20         3.6100    1.5370   -1.1510 ha        1 0CX      0.148000
     49 H22         3.4780    1.4110   -3.7450 hc        1 0CX      0.069700
     50 H23         4.9130   -1.0060   -2.4700 hc        1 0CX      0.058700
     51 H24         5.9150    1.7720   -3.3700 hc        1 0CX      0.060200
     52 H25         6.3210    0.8300   -1.8770 hc        1 0CX      0.060200
     53 H26         7.9440   -0.4400   -3.0130 h1        1 0CX      0.035700
     54 H27         6.8240   -2.0230   -4.3010 hc        1 0CX      0.051700
     55 H28         7.0010   -0.8910   -5.7050 hc        1 0CX      0.051700
     56 H29         8.6220    0.6390   -4.9360 ho        1 0CX      0.400000
     57 H30         4.8820    0.1020   -5.3740 hc        1 0CX      0.068700
     58 H31         4.5080   -2.7000   -5.4080 ha        1 0CX      0.132000
     59 H32         2.1620   -2.5090   -4.5280 ha        1 0CX      0.129000
     60 H33         1.7470    0.0620   -4.3640 hc        1 0CX      0.064700
     61 H34         1.8510   -1.9640   -2.1070 hc        1 0CX      0.086700
     62 H35        -0.3060    0.1760   -2.5790 hc        1 0CX      0.090200
     63 H36        -0.0920   -1.1850   -3.7750 hc        1 0CX      0.090200
@<TRIPOS>BOND
     1    1    2 2   
     2    2    3 1   
     3    2   14 1   
     4    3    4 1   
     5    3    5 1   
     6    3   30 1   
     7    4   31 1   
     8    4   32 1   
     9    4   33 1   
    10    5    6 1   
    11    5    7 1   
    12    5   34 1   
    13    6   35 1   
    14    7    8 1   
    15    7   36 1   
    16    7   37 1   
    17    8    9 1   
    18    8   38 1   
    19    8   39 1   
    20    9   10 1   
    21    9   40 1   
    22    9   41 1   
    23   10   11 1   
    24   10   13 1   
    25   10   42 1   
    26   11   12 1   
    27   11   43 1   
    28   11   44 1   
    29   12   45 1   
    30   12   46 1   
    31   12   47 1   
    32   13   28 1   
    33   14   15 2   
    34   14   26 1   
    35   15   16 1   
    36   15   48 1   
    37   16   17 1   
    38   16   25 1   
    39   16   49 1   
    40   17   18 1   
    41   17   22 1   
    42   17   50 1   
    43   18   19 1   
    44   18   51 1   
    45   18   52 1   
    46   19   20 1   
    47   19   21 1   
    48   19   53 1   
    49   20   22 1   
    50   20   54 1   
    51   20   55 1   
    52   21   56 1   
    53   22   23 1   
    54   22   57 1   
    55   23   24 2   
    56   23   58 1   
    57   24   25 1   
    58   24   59 1   
    59   25   26 1   
    60   25   60 1   
    61   26   27 1   
    62   26   61 1   
    63   27   28 1   
    64   27   62 1   
    65   27   63 1   
    66   28   29 2   
@<TRIPOS>SUBSTRUCTURE
     1 0CX         1 TEMP              0 ****  ****    0 ROOT
