@<TRIPOS>MOLECULE
0CX
   63    66     1     0     0
SMALL
bcc


@<TRIPOS>ATOM
      1 O4         -1.8780   -1.1030    2.1660 o         1 0CX     -0.526100
      2 C15        -0.9870   -1.4280    1.3700 c         1 0CX      0.590300
      3 C16        -1.0980   -2.7600    0.6550 c3        1 0CX     -0.155700
      4 C24        -0.1460   -3.7750    1.2540 c3        1 0CX     -0.086100
      5 C17        -0.8920   -2.6660   -0.8600 c3        1 0CX      0.154100
      6 O5         -1.3080   -3.9310   -1.3740 oh        1 0CX     -0.603800
      7 C18        -1.6380   -1.5180   -1.5260 c3        1 0CX     -0.121400
      8 C19        -3.1190   -1.4640   -1.2170 c3        1 0CX     -0.076400
      9 C20        -3.7590   -0.2360   -1.8310 c3        1 0CX     -0.081400
     10 C21        -3.8700    0.9470   -0.8690 c3        1 0CX      0.147100
     11 C22        -4.3370    2.1990   -1.6090 c3        1 0CX     -0.098400
     12 C23        -5.2100    3.0760   -0.7490 c3        1 0CX     -0.100100
     13 O1         -2.5470    1.1820   -0.3370 os        1 0CX     -0.450900
     14 C14         0.1750   -0.5510    1.1490 ce        1 0CX     -0.198400
     15 C13         1.4680   -0.8620    1.3650 c2        1 0CX     -0.118200
     16 C12         2.3840    0.3090    1.1630 c3        1 0CX     -0.029500
     17 C11         3.3330    0.1080    0.0030 c3        1 0CX     -0.061700
     18 C10         4.4930   -0.8610    0.1800 c3        1 0CX     -0.073400
     19 C9          5.5690   -0.3640   -0.8060 c3        1 0CX      0.139100
     20 C8          5.1640    1.0570   -1.2540 c3        1 0CX     -0.106400
     21 O2          6.8040   -0.3720   -0.1090 oh        1 0CX     -0.596800
     22 C7          4.0210    1.4480   -0.3290 c3        1 0CX     -0.041500
     23 C6          2.9920    2.3960   -0.8150 c2        1 0CX     -0.153200
     24 C5          1.7870    2.3970   -0.2290 c2        1 0CX     -0.171200
     25 C4          1.4240    1.5080    0.9080 c3        1 0CX     -0.034500
     26 C3          0.0120    0.8900    0.7160 c3        1 0CX     -0.014500
     27 C2         -1.0340    1.6620    1.4940 c3        1 0CX     -0.120400
     28 C1         -2.4370    1.5750    0.9690 c         1 0CX      0.641100
     29 O3         -3.4610    1.8570    1.5930 o         1 0CX     -0.539000
     30 H1         -2.1510   -3.1360    0.8260 hc        1 0CX      0.093700
     31 H2          0.9150   -3.5240    1.0160 hc        1 0CX      0.046033
     32 H3         -0.2690   -3.8190    2.3620 hc        1 0CX      0.046033
     33 H4         -0.3700   -4.7820    0.8220 hc        1 0CX      0.046033
     34 H5          0.2100   -2.5440   -1.0780 h1        1 0CX      0.035700
     35 H6         -1.3870   -3.8340   -2.3300 ho        1 0CX      0.403000
     36 H7         -1.1670   -0.5530   -1.2020 hc        1 0CX      0.054700
     37 H8         -1.4950   -1.6010   -2.6380 hc        1 0CX      0.054700
     38 H9         -3.6100   -2.3920   -1.6120 hc        1 0CX      0.053200
     39 H10        -3.2720   -1.4510   -0.1040 hc        1 0CX      0.053200
     40 H11        -3.1840    0.0830   -2.7390 hc        1 0CX      0.049700
     41 H12        -4.8030   -0.4850   -2.1600 hc        1 0CX      0.049700
     42 H13        -4.5710    0.6950   -0.0250 h1        1 0CX      0.082700
     43 H14        -3.4370    2.7730   -1.9540 hc        1 0CX      0.048700
     44 H15        -4.9070    1.8910   -2.5260 hc        1 0CX      0.048700
     45 H16        -6.1690    2.5590   -0.5050 hc        1 0CX      0.042033
     46 H17        -4.6940    3.3190    0.2120 hc        1 0CX      0.042033
     47 H18        -5.4460    4.0270   -1.2830 hc        1 0CX      0.042033
     48 H20         1.8760   -1.8270    1.6750 ha        1 0CX      0.148000
     49 H22         2.9750    0.4920    2.1020 hc        1 0CX      0.069700
     50 H23         2.7320   -0.2180   -0.8910 hc        1 0CX      0.058700
     51 H24         4.8940   -0.8340    1.2240 hc        1 0CX      0.060200
     52 H25         4.1960   -1.9100   -0.0550 hc        1 0CX      0.060200
     53 H26         5.6420   -1.0460   -1.6960 h1        1 0CX      0.035700
     54 H27         6.0210    1.7660   -1.1610 hc        1 0CX      0.051700
     55 H28         4.8300    1.0450   -2.3200 hc        1 0CX      0.051700
     56 H29         7.4730   -0.0390   -0.7200 ho        1 0CX      0.400000
     57 H30         4.4680    1.8720    0.6170 hc        1 0CX      0.068700
     58 H31         3.2570    3.0730   -1.6380 ha        1 0CX      0.132000
     59 H32         0.9900    3.0860   -0.5520 ha        1 0CX      0.129000
     60 H33         1.4220    2.1400    1.8420 hc        1 0CX      0.064700
     61 H34        -0.2460    0.9190   -0.3790 hc        1 0CX      0.086700
     62 H35        -1.0670    1.3020    2.5600 hc        1 0CX      0.090200
     63 H36        -0.7670    2.7550    1.4980 hc        1 0CX      0.090200
@<TRIPOS>BOND
     1    1    2 2   
     2    2    3 1   
     3    2   14 1   
     4    3    4 1   
     5    3    5 1   
     6    3   30 1   
     7    4   31 1   
     8    4   32 1   
     9    4   33 1   
    10    5    6 1   
    11    5    7 1   
    12    5   34 1   
    13    6   35 1   
    14    7    8 1   
    15    7   36 1   
    16    7   37 1   
    17    8    9 1   
    18    8   38 1   
    19    8   39 1   
    20    9   10 1   
    21    9   40 1   
    22    9   41 1   
    23   10   11 1   
    24   10   13 1   
    25   10   42 1   
    26   11   12 1   
    27   11   43 1   
    28   11   44 1   
    29   12   45 1   
    30   12   46 1   
    31   12   47 1   
    32   13   28 1   
    33   14   15 2   
    34   14   26 1   
    35   15   16 1   
    36   15   48 1   
    37   16   17 1   
    38   16   25 1   
    39   16   49 1   
    40   17   18 1   
    41   17   22 1   
    42   17   50 1   
    43   18   19 1   
    44   18   51 1   
    45   18   52 1   
    46   19   20 1   
    47   19   21 1   
    48   19   53 1   
    49   20   22 1   
    50   20   54 1   
    51   20   55 1   
    52   21   56 1   
    53   22   23 1   
    54   22   57 1   
    55   23   24 2   
    56   23   58 1   
    57   24   25 1   
    58   24   59 1   
    59   25   26 1   
    60   25   60 1   
    61   26   27 1   
    62   26   61 1   
    63   27   28 1   
    64   27   62 1   
    65   27   63 1   
    66   28   29 2   
@<TRIPOS>SUBSTRUCTURE
     1 0CX         1 TEMP              0 ****  ****    0 ROOT
