@<TRIPOS>MOLECULE
0CX
   63    66     1     0     0
SMALL
bcc


@<TRIPOS>ATOM
      1 O4          0.0820    0.4610   -0.0510 o         1 0CX     -0.526100
      2 C15         1.2880    0.1820   -0.0600 c         1 0CX      0.590300
      3 C16         2.0070    0.0130    1.2630 c3        1 0CX     -0.155700
      4 C24         2.8700    1.2210    1.5680 c3        1 0CX     -0.086100
      5 C17         2.8380   -1.2710    1.3550 c3        1 0CX      0.154100
      6 O5          3.1920   -1.3900    2.7320 oh        1 0CX     -0.603800
      7 C18         2.1250   -2.5180    0.8490 c3        1 0CX     -0.121400
      8 C19         0.7620   -2.7570    1.4620 c3        1 0CX     -0.076400
      9 C20         0.0820   -3.9540    0.8280 c3        1 0CX     -0.081400
     10 C21        -0.8760   -3.5880   -0.3050 c3        1 0CX      0.147100
     11 C22        -1.3660   -4.8460   -1.0210 c3        1 0CX     -0.098400
     12 C23        -2.7860   -4.7080   -1.5050 c3        1 0CX     -0.100100
     13 O1         -0.1330   -2.7750   -1.2400 os        1 0CX     -0.450900
     14 C14         2.0160    0.0530   -1.3330 ce        1 0CX     -0.198400
     15 C13         3.0780    0.7820   -1.7280 c2        1 0CX     -0.118200
     16 C12         3.4920    0.4790   -3.1390 c3        1 0CX     -0.029500
     17 C11         4.8690   -0.1410   -3.2160 c3        1 0CX     -0.061700
     18 C10         6.0770    0.7520   -2.9760 c3        1 0CX     -0.073400
     19 C9          7.2260    0.0680   -3.7450 c3        1 0CX      0.139100
     20 C8          6.5910   -0.9770   -4.6880 c3        1 0CX     -0.106400
     21 O2          7.9090    1.0850   -4.4590 oh        1 0CX     -0.596800
     22 C7          5.0970   -0.6950   -4.6380 c3        1 0CX     -0.041500
     23 C6          4.1460   -1.8060   -4.8670 c2        1 0CX     -0.153200
     24 C5          2.8980   -1.6960   -4.3910 c2        1 0CX     -0.171200
     25 C4          2.3990   -0.5000   -3.6590 c3        1 0CX     -0.034500
     26 C3          1.5650   -0.9070   -2.4130 c3        1 0CX     -0.014500
     27 C2          0.0790   -0.8590   -2.7090 c3        1 0CX     -0.120400
     28 C1         -0.7850   -1.7470   -1.8650 c         1 0CX      0.641100
     29 O3         -2.0060   -1.6470   -1.7250 o         1 0CX     -0.539000
     30 H1          1.2100   -0.0480    2.0640 hc        1 0CX      0.093700
     31 H2          3.7500    1.2720    0.8840 hc        1 0CX      0.046033
     32 H3          3.2490    1.1420    2.6160 hc        1 0CX      0.046033
     33 H4          2.2750    2.1600    1.4660 hc        1 0CX      0.046033
     34 H5          3.7880   -1.1410    0.7580 h1        1 0CX      0.035700
     35 H6          3.5330   -2.2830    2.8590 ho        1 0CX      0.403000
     36 H7          2.7830   -3.4060    1.0500 hc        1 0CX      0.054700
     37 H8          2.0100   -2.4350   -0.2640 hc        1 0CX      0.054700
     38 H9          0.8790   -2.9230    2.5650 hc        1 0CX      0.053200
     39 H10         0.1210   -1.8450    1.3250 hc        1 0CX      0.053200
     40 H11         0.8520   -4.6710    0.4390 hc        1 0CX      0.049700
     41 H12        -0.5240   -4.4940    1.6030 hc        1 0CX      0.049700
     42 H13        -1.7430   -2.9930    0.0970 h1        1 0CX      0.082700
     43 H14        -1.2940   -5.7180   -0.3190 hc        1 0CX      0.048700
     44 H15        -0.6860   -5.0580   -1.8880 hc        1 0CX      0.048700
     45 H16        -3.0760   -5.5990   -2.1110 hc        1 0CX      0.042033
     46 H17        -2.8990   -3.7900   -2.1330 hc        1 0CX      0.042033
     47 H18        -3.4900   -4.6240   -0.6410 hc        1 0CX      0.042033
     48 H20         3.6140    1.5410   -1.1530 ha        1 0CX      0.148000
     49 H22         3.4730    1.4240   -3.7480 hc        1 0CX      0.069700
     50 H23         4.9110   -0.9980   -2.4860 hc        1 0CX      0.058700
     51 H24         6.3220    0.8350   -1.8910 hc        1 0CX      0.060200
     52 H25         5.9120    1.7820   -3.3800 hc        1 0CX      0.060200
     53 H26         7.9410   -0.4320   -3.0370 h1        1 0CX      0.035700
     54 H27         6.9890   -0.8740   -5.7270 hc        1 0CX      0.051700
     55 H28         6.8160   -2.0100   -4.3260 hc        1 0CX      0.051700
     56 H29         8.6130    0.6530   -4.9580 ho        1 0CX      0.400000
     57 H30         4.8710    0.1190   -5.3860 hc        1 0CX      0.068700
     58 H31         4.4960   -2.6820   -5.4280 ha        1 0CX      0.132000
     59 H32         2.1520   -2.4930   -4.5400 ha        1 0CX      0.129000
     60 H33         1.7400    0.0790   -4.3670 hc        1 0CX      0.064700
     61 H34         1.8490   -1.9550   -2.1170 hc        1 0CX      0.086700
     62 H35        -0.0990   -1.1690   -3.7760 hc        1 0CX      0.090200
     63 H36        -0.3080    0.1890   -2.5750 hc        1 0CX      0.090200
@<TRIPOS>BOND
     1    1    2 2   
     2    2    3 1   
     3    2   14 1   
     4    3    4 1   
     5    3    5 1   
     6    3   30 1   
     7    4   31 1   
     8    4   32 1   
     9    4   33 1   
    10    5    6 1   
    11    5    7 1   
    12    5   34 1   
    13    6   35 1   
    14    7    8 1   
    15    7   36 1   
    16    7   37 1   
    17    8    9 1   
    18    8   38 1   
    19    8   39 1   
    20    9   10 1   
    21    9   40 1   
    22    9   41 1   
    23   10   11 1   
    24   10   13 1   
    25   10   42 1   
    26   11   12 1   
    27   11   43 1   
    28   11   44 1   
    29   12   45 1   
    30   12   46 1   
    31   12   47 1   
    32   13   28 1   
    33   14   15 2   
    34   14   26 1   
    35   15   16 1   
    36   15   48 1   
    37   16   17 1   
    38   16   25 1   
    39   16   49 1   
    40   17   18 1   
    41   17   22 1   
    42   17   50 1   
    43   18   19 1   
    44   18   51 1   
    45   18   52 1   
    46   19   20 1   
    47   19   21 1   
    48   19   53 1   
    49   20   22 1   
    50   20   54 1   
    51   20   55 1   
    52   21   56 1   
    53   22   23 1   
    54   22   57 1   
    55   23   24 2   
    56   23   58 1   
    57   24   25 1   
    58   24   59 1   
    59   25   26 1   
    60   25   60 1   
    61   26   27 1   
    62   26   61 1   
    63   27   28 1   
    64   27   62 1   
    65   27   63 1   
    66   28   29 2   
@<TRIPOS>SUBSTRUCTURE
     1 0CX         1 TEMP              0 ****  ****    0 ROOT
