@<TRIPOS>MOLECULE
0CX
   63    66     1     0     0
SMALL
bcc


@<TRIPOS>ATOM
      1 O4          0.1040    0.4460   -0.0220 o         1 0CX     -0.526100
      2 C15         1.3090    0.1590   -0.0360 c         1 0CX      0.590300
      3 C16         2.0280   -0.0320    1.2840 c3        1 0CX     -0.155700
      4 C24         2.8990    1.1660    1.6020 c3        1 0CX     -0.086100
      5 C17         2.8500   -1.3230    1.3580 c3        1 0CX      0.154100
      6 O5          3.2060   -1.4620    2.7330 oh        1 0CX     -0.603800
      7 C18         2.1290   -2.5590    0.8390 c3        1 0CX     -0.121400
      8 C19         0.7650   -2.7960    1.4500 c3        1 0CX     -0.076400
      9 C20         0.0760   -3.9810    0.8020 c3        1 0CX     -0.081400
     10 C21        -0.8810   -3.5950   -0.3250 c3        1 0CX      0.147100
     11 C22        -1.3800   -4.8400   -1.0560 c3        1 0CX     -0.098400
     12 C23        -2.7980   -4.6870   -1.5390 c3        1 0CX     -0.100100
     13 O1         -0.1340   -2.7750   -1.2510 os        1 0CX     -0.450900
     14 C14         2.0340    0.0400   -1.3120 ce        1 0CX     -0.198400
     15 C13         3.1000    0.7650   -1.7000 c2        1 0CX     -0.118200
     16 C12         3.5110    0.4780   -3.1140 c3        1 0CX     -0.029500
     17 C11         4.8830   -0.1520   -3.2010 c3        1 0CX     -0.061700
     18 C10         6.0980    0.7290   -2.9510 c3        1 0CX     -0.073400
     19 C9          7.2410    0.0460   -3.7300 c3        1 0CX      0.139100
     20 C8          6.5970   -0.9830   -4.6850 c3        1 0CX     -0.106400
     21 O2          7.9310    1.0670   -4.4320 oh        1 0CX     -0.596800
     22 C7          5.1050   -0.6900   -4.6290 c3        1 0CX     -0.041500
     23 C6          4.1450   -1.7910   -4.8720 c2        1 0CX     -0.153200
     24 C5          2.8990   -1.6770   -4.3930 c2        1 0CX     -0.171200
     25 C4          2.4100   -0.4870   -3.6440 c3        1 0CX     -0.034500
     26 C3          1.5740   -0.9040   -2.4020 c3        1 0CX     -0.014500
     27 C2          0.0890   -0.8420   -2.6960 c3        1 0CX     -0.120400
     28 C1         -0.7800   -1.7350   -1.8610 c         1 0CX      0.641100
     29 O3         -2.0000   -1.6280   -1.7180 o         1 0CX     -0.539000
     30 H1          1.2310   -0.0980    2.0850 hc        1 0CX      0.093700
     31 H2          3.2790    1.0710    2.6500 hc        1 0CX      0.046033
     32 H3          2.3110    2.1110    1.5140 hc        1 0CX      0.046033
     33 H4          3.7790    1.2200    0.9180 hc        1 0CX      0.046033
     34 H5          3.8000   -1.1920    0.7610 h1        1 0CX      0.035700
     35 H6          3.5420   -2.3580    2.8480 ho        1 0CX      0.403000
     36 H7          2.7800   -3.4540    1.0280 hc        1 0CX      0.054700
     37 H8          2.0130   -2.4610   -0.2730 hc        1 0CX      0.054700
     38 H9          0.1300   -1.8780    1.3250 hc        1 0CX      0.053200
     39 H10         0.8820   -2.9760    2.5510 hc        1 0CX      0.053200
     40 H11         0.8410   -4.6980    0.4040 hc        1 0CX      0.049700
     41 H12        -0.5320   -4.5260    1.5720 hc        1 0CX      0.049700
     42 H13        -1.7440   -2.9990    0.0860 h1        1 0CX      0.082700
     43 H14        -1.3150   -5.7210   -0.3630 hc        1 0CX      0.048700
     44 H15        -0.7000   -5.0480   -1.9230 hc        1 0CX      0.048700
     45 H16        -3.5020   -4.6070   -0.6760 hc        1 0CX      0.042033
     46 H17        -2.9030   -3.7610   -2.1580 hc        1 0CX      0.042033
     47 H18        -3.0940   -5.5690   -2.1560 hc        1 0CX      0.042033
     48 H20         3.6420    1.5140   -1.1160 ha        1 0CX      0.148000
     49 H22         3.4980    1.4290   -3.7120 hc        1 0CX      0.069700
     50 H23         4.9190   -1.0190   -2.4820 hc        1 0CX      0.058700
     51 H24         6.3450    0.7970   -1.8650 hc        1 0CX      0.060200
     52 H25         5.9390    1.7650   -3.3420 hc        1 0CX      0.060200
     53 H26         7.9520   -0.4680   -3.0280 h1        1 0CX      0.035700
     54 H27         6.9940   -0.8690   -5.7230 hc        1 0CX      0.051700
     55 H28         6.8140   -2.0210   -4.3370 hc        1 0CX      0.051700
     56 H29         8.6310    0.6360   -4.9370 ho        1 0CX      0.400000
     57 H30         4.8840    0.1350   -5.3670 hc        1 0CX      0.068700
     58 H31         4.4880   -2.6620   -5.4440 ha        1 0CX      0.132000
     59 H32         2.1470   -2.4670   -4.5510 ha        1 0CX      0.129000
     60 H33         1.7540    0.1050   -4.3440 hc        1 0CX      0.064700
     61 H34         1.8520   -1.9580   -2.1200 hc        1 0CX      0.086700
     62 H35        -0.0930   -1.1370   -3.7660 hc        1 0CX      0.090200
     63 H36        -0.2910    0.2060   -2.5490 hc        1 0CX      0.090200
@<TRIPOS>BOND
     1    1    2 2   
     2    2    3 1   
     3    2   14 1   
     4    3    4 1   
     5    3    5 1   
     6    3   30 1   
     7    4   31 1   
     8    4   32 1   
     9    4   33 1   
    10    5    6 1   
    11    5    7 1   
    12    5   34 1   
    13    6   35 1   
    14    7    8 1   
    15    7   36 1   
    16    7   37 1   
    17    8    9 1   
    18    8   38 1   
    19    8   39 1   
    20    9   10 1   
    21    9   40 1   
    22    9   41 1   
    23   10   11 1   
    24   10   13 1   
    25   10   42 1   
    26   11   12 1   
    27   11   43 1   
    28   11   44 1   
    29   12   45 1   
    30   12   46 1   
    31   12   47 1   
    32   13   28 1   
    33   14   15 2   
    34   14   26 1   
    35   15   16 1   
    36   15   48 1   
    37   16   17 1   
    38   16   25 1   
    39   16   49 1   
    40   17   18 1   
    41   17   22 1   
    42   17   50 1   
    43   18   19 1   
    44   18   51 1   
    45   18   52 1   
    46   19   20 1   
    47   19   21 1   
    48   19   53 1   
    49   20   22 1   
    50   20   54 1   
    51   20   55 1   
    52   21   56 1   
    53   22   23 1   
    54   22   57 1   
    55   23   24 2   
    56   23   58 1   
    57   24   25 1   
    58   24   59 1   
    59   25   26 1   
    60   25   60 1   
    61   26   27 1   
    62   26   61 1   
    63   27   28 1   
    64   27   62 1   
    65   27   63 1   
    66   28   29 2   
@<TRIPOS>SUBSTRUCTURE
     1 0CX         1 TEMP              0 ****  ****    0 ROOT
