@<TRIPOS>MOLECULE
0CZ
   33    34     1     0     0
SMALL
bcc


@<TRIPOS>ATOM
      1 CAM         0.0640    0.0830   -0.0230 ca        1 0CZ     -0.058500
      2 CAI         1.4560    0.0530   -0.0150 ca        1 0CZ     -0.188500
      3 CAQ         2.1370   -0.1300    1.1960 ca        1 0CZ      0.149100
      4 OAA         3.5060   -0.1720    1.2830 oh        1 0CZ     -0.490100
      5 CAJ         1.4250   -0.2810    2.4000 ca        1 0CZ     -0.188500
      6 CAN         0.0380   -0.2510    2.3700 ca        1 0CZ     -0.058500
      7 CAS        -0.6610   -0.0730    1.1620 ca        1 0CZ     -0.162300
      8 CAW        -2.1650   -0.0420    1.2210 c3        1 0CZ      0.024600
      9 CAU        -2.5870    1.3790    1.7940 c3        1 0CZ      0.631900
     10 FAD        -3.9300    1.6470    1.7150 f         1 0CZ     -0.224967
     11 FAE        -2.2730    1.5730    3.1130 f         1 0CZ     -0.224967
     12 FAC        -2.0000    2.4320    1.1430 f         1 0CZ     -0.224967
     13 CAV        -2.8440   -0.1600   -0.2110 c3        1 0CZ      0.631900
     14 FAG        -2.6460    0.9260   -1.0250 f         1 0CZ     -0.224967
     15 FAH        -2.4180   -1.2300   -0.9530 f         1 0CZ     -0.224967
     16 FAF        -4.2070   -0.2950   -0.1660 f         1 0CZ     -0.224967
     17 CAT        -2.6750   -1.1870    2.0550 ca        1 0CZ     -0.162300
     18 CAO        -3.6560   -1.0410    3.0400 ca        1 0CZ     -0.058500
     19 CAK        -4.0950   -2.1390    3.7760 ca        1 0CZ     -0.188500
     20 CAR        -3.5520   -3.4040    3.5200 ca        1 0CZ      0.149100
     21 OAB        -3.9320   -4.5320    4.2040 oh        1 0CZ     -0.490100
     22 CAL        -2.5700   -3.5730    2.5270 ca        1 0CZ     -0.188500
     23 CAP        -2.1440   -2.4660    1.8070 ca        1 0CZ     -0.058500
     24 H1         -0.4520    0.2340   -0.9850 ha        1 0CZ      0.151000
     25 H2          2.0140    0.1770   -0.9540 ha        1 0CZ      0.151000
     26 H3          3.8690   -0.0400    0.3950 ho        1 0CZ      0.425000
     27 H4          1.9730   -0.4180    3.3420 ha        1 0CZ      0.151000
     28 H5         -0.5280   -0.3590    3.3100 ha        1 0CZ      0.151000
     29 H6         -4.1010   -0.0550    3.2530 ha        1 0CZ      0.151000
     30 H7         -4.8660   -2.0100    4.5490 ha        1 0CZ      0.151000
     31 H8         -4.6190   -4.2820    4.8400 ho        1 0CZ      0.425000
     32 H9         -2.1570   -4.5730    2.3340 ha        1 0CZ      0.151000
     33 H10        -1.3810   -2.5900    1.0200 ha        1 0CZ      0.151000
@<TRIPOS>BOND
     1    1    2 ar  
     2    1    7 ar  
     3    1   24 1   
     4    2    3 ar  
     5    2   25 1   
     6    3    4 1   
     7    3    5 ar  
     8    4   26 1   
     9    5    6 ar  
    10    5   27 1   
    11    6    7 ar  
    12    6   28 1   
    13    7    8 1   
    14    8    9 1   
    15    8   13 1   
    16    8   17 1   
    17    9   10 1   
    18    9   11 1   
    19    9   12 1   
    20   13   14 1   
    21   13   15 1   
    22   13   16 1   
    23   17   18 ar  
    24   17   23 ar  
    25   18   19 ar  
    26   18   29 1   
    27   19   20 ar  
    28   19   30 1   
    29   20   21 1   
    30   20   22 ar  
    31   21   31 1   
    32   22   23 ar  
    33   22   32 1   
    34   23   33 1   
@<TRIPOS>SUBSTRUCTURE
     1 0CZ         1 TEMP              0 ****  ****    0 ROOT
