@<TRIPOS>MOLECULE
0CZ
   33    34     1     0     0
SMALL
bcc


@<TRIPOS>ATOM
      1 CAM         2.3470    0.0020    0.7820 ca        1 0CZ     -0.058500
      2 CAI         3.4660    0.8290    0.7010 ca        1 0CZ     -0.188500
      3 CAQ         3.4750    1.8900   -0.2140 ca        1 0CZ      0.149100
      4 OAA         4.5380    2.7480   -0.3500 oh        1 0CZ     -0.490100
      5 CAJ         2.3680    2.1240   -1.0480 ca        1 0CZ     -0.188500
      6 CAN         1.2630    1.2920   -0.9500 ca        1 0CZ     -0.058500
      7 CAS         1.2340    0.2240   -0.0340 ca        1 0CZ     -0.162300
      8 CAW        -0.0000   -0.6370    0.0000 c3        1 0CZ      0.024600
      9 CAU         0.0550   -1.5930   -1.2680 c3        1 0CZ      0.631900
     10 FAD        -0.8920   -2.5860   -1.2730 f         1 0CZ     -0.224967
     11 FAE        -0.1120   -0.9510   -2.4670 f         1 0CZ     -0.224967
     12 FAC         1.2410   -2.2660   -1.4010 f         1 0CZ     -0.224967
     13 CAV        -0.0550   -1.5920    1.2690 c3        1 0CZ      0.631900
     14 FAG         0.8910   -2.5860    1.2750 f         1 0CZ     -0.224967
     15 FAH         0.1120   -0.9500    2.4690 f         1 0CZ     -0.224967
     16 FAF        -1.2410   -2.2650    1.4030 f         1 0CZ     -0.224967
     17 CAT        -1.2330    0.2240    0.0340 ca        1 0CZ     -0.162300
     18 CAO        -2.3470    0.0030   -0.7810 ca        1 0CZ     -0.058500
     19 CAK        -3.4650    0.8290   -0.7010 ca        1 0CZ     -0.188500
     20 CAR        -3.4750    1.8910    0.2130 ca        1 0CZ      0.149100
     21 OAB        -4.5380    2.7490    0.3490 oh        1 0CZ     -0.490100
     22 CAL        -2.3670    2.1260    1.0480 ca        1 0CZ     -0.188500
     23 CAP        -1.2620    1.2930    0.9500 ca        1 0CZ     -0.058500
     24 H1          2.3630   -0.8310    1.5040 ha        1 0CZ      0.151000
     25 H2          4.3340    0.6440    1.3490 ha        1 0CZ      0.151000
     26 H3          5.2330    2.4670    0.2650 ho        1 0CZ      0.425000
     27 H4          2.3920    2.9580   -1.7650 ha        1 0CZ      0.151000
     28 H5          0.3930    1.4620   -1.6070 ha        1 0CZ      0.151000
     29 H6         -2.3630   -0.8310   -1.5030 ha        1 0CZ      0.151000
     30 H7         -4.3340    0.6440   -1.3490 ha        1 0CZ      0.151000
     31 H8         -5.2320    2.4680   -0.2660 ho        1 0CZ      0.425000
     32 H9         -2.3920    2.9590    1.7640 ha        1 0CZ      0.151000
     33 H10        -0.3930    1.4630    1.6070 ha        1 0CZ      0.151000
@<TRIPOS>BOND
     1    1    2 ar  
     2    1    7 ar  
     3    1   24 1   
     4    2    3 ar  
     5    2   25 1   
     6    3    4 1   
     7    3    5 ar  
     8    4   26 1   
     9    5    6 ar  
    10    5   27 1   
    11    6    7 ar  
    12    6   28 1   
    13    7    8 1   
    14    8    9 1   
    15    8   13 1   
    16    8   17 1   
    17    9   10 1   
    18    9   11 1   
    19    9   12 1   
    20   13   14 1   
    21   13   15 1   
    22   13   16 1   
    23   17   18 ar  
    24   17   23 ar  
    25   18   19 ar  
    26   18   29 1   
    27   19   20 ar  
    28   19   30 1   
    29   20   21 1   
    30   20   22 ar  
    31   21   31 1   
    32   22   23 ar  
    33   22   32 1   
    34   23   33 1   
@<TRIPOS>SUBSTRUCTURE
     1 0CZ         1 TEMP              0 ****  ****    0 ROOT
