@<TRIPOS>MOLECULE
0CZ
   33    34     1     0     0
SMALL
bcc


@<TRIPOS>ATOM
      1 CAM         0.0650    0.0920   -0.0170 ca        1 0CZ     -0.058500
      2 CAI         1.4580    0.0650   -0.0060 ca        1 0CZ     -0.188500
      3 CAQ         2.1360   -0.1210    1.2050 ca        1 0CZ      0.149100
      4 OAA         3.5060   -0.1620    1.2950 oh        1 0CZ     -0.490100
      5 CAJ         1.4230   -0.2780    2.4070 ca        1 0CZ     -0.188500
      6 CAN         0.0360   -0.2510    2.3750 ca        1 0CZ     -0.058500
      7 CAS        -0.6620   -0.0700    1.1660 ca        1 0CZ     -0.162300
      8 CAW        -2.1660   -0.0420    1.2220 c3        1 0CZ      0.024600
      9 CAU        -2.5910    1.3760    1.7990 c3        1 0CZ      0.631900
     10 FAD        -3.9340    1.6430    1.7190 f         1 0CZ     -0.224967
     11 FAE        -2.2800    1.5670    3.1200 f         1 0CZ     -0.224967
     12 FAC        -2.0050    2.4330    1.1530 f         1 0CZ     -0.224967
     13 CAV        -2.8420   -0.1560   -0.2110 c3        1 0CZ      0.631900
     14 FAG        -2.6440    0.9340   -1.0210 f         1 0CZ     -0.224967
     15 FAH        -2.4120   -1.2220   -0.9560 f         1 0CZ     -0.224967
     16 FAF        -4.2050   -0.2930   -0.1690 f         1 0CZ     -0.224967
     17 CAT        -2.6750   -1.1900    2.0510 ca        1 0CZ     -0.162300
     18 CAO        -3.6580   -1.0490    3.0350 ca        1 0CZ     -0.058500
     19 CAK        -4.0970   -2.1510    3.7670 ca        1 0CZ     -0.188500
     20 CAR        -3.5510   -3.4140    3.5070 ca        1 0CZ      0.149100
     21 OAB        -3.9300   -4.5450    4.1870 oh        1 0CZ     -0.490100
     22 CAL        -2.5670   -3.5770    2.5150 ca        1 0CZ     -0.188500
     23 CAP        -2.1410   -2.4680    1.8000 ca        1 0CZ     -0.058500
     24 H1         -0.4490    0.2460   -0.9800 ha        1 0CZ      0.151000
     25 H2          2.0170    0.1920   -0.9440 ha        1 0CZ      0.151000
     26 H3          3.8700   -0.0260    0.4070 ho        1 0CZ      0.425000
     27 H4          1.9690   -0.4170    3.3510 ha        1 0CZ      0.151000
     28 H5         -0.5320   -0.3630    3.3140 ha        1 0CZ      0.151000
     29 H6         -4.1050   -0.0650    3.2520 ha        1 0CZ      0.151000
     30 H7         -4.8690   -2.0260    4.5390 ha        1 0CZ      0.151000
     31 H8         -4.6190   -4.2980    4.8220 ho        1 0CZ      0.425000
     32 H9         -2.1520   -4.5760    2.3190 ha        1 0CZ      0.151000
     33 H10        -1.3770   -2.5870    1.0140 ha        1 0CZ      0.151000
@<TRIPOS>BOND
     1    1    2 ar  
     2    1    7 ar  
     3    1   24 1   
     4    2    3 ar  
     5    2   25 1   
     6    3    4 1   
     7    3    5 ar  
     8    4   26 1   
     9    5    6 ar  
    10    5   27 1   
    11    6    7 ar  
    12    6   28 1   
    13    7    8 1   
    14    8    9 1   
    15    8   13 1   
    16    8   17 1   
    17    9   10 1   
    18    9   11 1   
    19    9   12 1   
    20   13   14 1   
    21   13   15 1   
    22   13   16 1   
    23   17   18 ar  
    24   17   23 ar  
    25   18   19 ar  
    26   18   29 1   
    27   19   20 ar  
    28   19   30 1   
    29   20   21 1   
    30   20   22 ar  
    31   21   31 1   
    32   22   23 ar  
    33   22   32 1   
    34   23   33 1   
@<TRIPOS>SUBSTRUCTURE
     1 0CZ         1 TEMP              0 ****  ****    0 ROOT
