@<TRIPOS>MOLECULE
0CZ
   33    27     1     0     0
SMALL
bcc


@<TRIPOS>ATOM
      1 CAM         1.5450    0.0080   -1.6420 c1        1 0CZ     -0.056000
      2 CAI         2.9300   -0.0010   -1.6880 c1        1 0CZ     -0.188500
      3 CAQ         3.6620    0.6020   -0.6770 c1        1 0CZ      0.104000
      4 OAA         5.0690    0.6060   -0.7320 oh        1 0CZ     -0.244000
      5 CAJ         3.0080    1.2150    0.3810 c1        1 0CZ     -0.123500
      6 CAN         1.6220    1.2240    0.4270 c1        1 0CZ     -0.123500
      7 CAS         0.8900    0.6210   -0.5840 c1        1 0CZ     -0.155000
      8 CAW        -0.6250    0.7050   -0.5760 c2        1 0CZ      0.010000
      9 CAU        -1.1500    0.4580   -1.9730 c3        1 0CZ      0.418000
     10 FAD        -2.4790    0.6100   -1.9830 f         1 0CZ     -0.153667
     11 FAE        -0.8420   -0.7890   -2.3520 f         1 0CZ     -0.153667
     12 FAC        -0.5950    1.3320   -2.8200 f         1 0CZ     -0.153667
     13 CAV        -1.0520    2.0830   -0.1130 c3        1 0CZ      0.418000
     14 FAG        -2.2230    2.4020   -0.6800 f         1 0CZ     -0.153667
     15 FAH        -1.1860    2.0840    1.2190 f         1 0CZ     -0.153667
     16 FAF        -0.1250    2.9800   -0.4680 f         1 0CZ     -0.153667
     17 CAT        -1.1850   -0.3430    0.3670 c1        1 0CZ     -0.155000
     18 CAO        -2.5110   -0.2750    0.7700 c1        1 0CZ     -0.123500
     19 CAK        -3.0190   -1.2240    1.6450 c1        1 0CZ     -0.123500
     20 CAR        -2.2020   -2.2400    2.1170 c1        1 0CZ      0.104000
     21 OAB        -2.7080   -3.1830    3.0320 oh        1 0CZ     -0.244000
     22 CAL        -0.8760   -2.3070    1.7150 c1        1 0CZ     -0.188500
     23 CAP        -0.3680   -1.3580    0.8400 c1        1 0CZ     -0.061000
     24 H1          1.0310   -0.4160   -2.3520 ha        1 0CZ      0.150000
     25 H2          3.3910   -0.4320   -2.4330 ha        1 0CZ      0.151000
     26 H3          5.3420    1.2510   -1.2800 ho        1 0CZ      0.224000
     27 H4          3.5220    1.6400    1.0930 ha        1 0CZ      0.151000
     28 H5          1.1610    1.6550    1.1720 ha        1 0CZ      0.151000
     29 H6         -3.0860    0.4400    0.4370 ha        1 0CZ      0.151000
     30 H7         -3.9530   -1.1760    1.9280 ha        1 0CZ      0.151000
     31 H8         -3.2520   -3.7450    2.6070 ho        1 0CZ      0.224000
     32 H9         -0.3010   -3.0220    2.0470 ha        1 0CZ      0.151000
     33 H10         0.5640   -1.4050    0.5570 ha        1 0CZ      0.152000
@<TRIPOS>BOND
     1    1    7 1   
     2    1   24 1   
     3    2    3 1   
     4    2   25 1   
     5    3    4 1   
     6    4   26 1   
     7    5    6 1   
     8    5   27 1   
     9    6   28 1   
    10    8    9 1   
    11    8   13 1   
    12    8   17 1   
    13    9   10 1   
    14    9   11 1   
    15    9   12 1   
    16   13   14 1   
    17   13   15 1   
    18   13   16 1   
    19   17   23 1   
    20   18   19 1   
    21   18   29 1   
    22   19   30 1   
    23   20   21 1   
    24   20   22 1   
    25   21   31 1   
    26   22   32 1   
    27   23   33 1   
@<TRIPOS>SUBSTRUCTURE
     1 0CZ         1 TEMP              0 ****  ****    0 ROOT
