@<TRIPOS>MOLECULE
0D1
   28    29     1     0     0
SMALL
bcc


@<TRIPOS>ATOM
      1 CAI        -0.0840   -0.0400   -0.0290 ca        1 0D1     -0.068000
      2 CAE         1.3050   -0.0640   -0.0710 ca        1 0D1     -0.188500
      3 CAO         2.0260    0.0200    1.1320 ca        1 0D1      0.134100
      4 OAA         3.3970   -0.0120    1.0280 oh        1 0D1     -0.495100
      5 CAF         1.3620    0.1280    2.3620 ca        1 0D1     -0.188500
      6 CAJ        -0.0300    0.1580    2.3850 ca        1 0D1     -0.068000
      7 CAQ        -0.7620    0.0750    1.1940 ca        1 0D1     -0.100800
      8 CAN        -2.2290    0.0850    1.2140 ce        1 0D1      0.023600
      9 CAM        -2.9350    1.1300    1.7020 c2        1 0D1      0.072800
     10 CLD        -2.2020    2.5450    2.2900 cl        1 0D1     -0.067400
     11 CLC        -4.6320    1.1410    1.7790 cl        1 0D1     -0.067400
     12 CAR        -2.8800   -1.1120    0.6710 ca        1 0D1     -0.100800
     13 CAK        -2.6360   -2.3640    1.2560 ca        1 0D1     -0.068000
     14 CAG        -3.2310   -3.5130    0.7510 ca        1 0D1     -0.188500
     15 CAP        -4.0800   -3.4080   -0.3640 ca        1 0D1      0.134100
     16 OAB        -4.6380   -4.5790   -0.8220 oh        1 0D1     -0.495100
     17 CAH        -4.3280   -2.1660   -0.9640 ca        1 0D1     -0.188500
     18 CAL        -3.7280   -1.0240   -0.4400 ca        1 0D1     -0.068000
     19 H1         -0.6590   -0.1110   -0.9650 ha        1 0D1      0.141500
     20 H2          1.8450   -0.1480   -1.0240 ha        1 0D1      0.145500
     21 H3          3.7660    0.0590    1.9210 ho        1 0D1      0.421000
     22 H4          1.9330    0.1920    3.2980 ha        1 0D1      0.145500
     23 H5         -0.5570    0.2480    3.3470 ha        1 0D1      0.141500
     24 H6         -1.9640   -2.4350    2.1260 ha        1 0D1      0.141500
     25 H7         -3.0500   -4.4970    1.2060 ha        1 0D1      0.145500
     26 H8         -5.1990   -4.3650   -1.5820 ho        1 0D1      0.421000
     27 H9         -4.9920   -2.0920   -1.8370 ha        1 0D1      0.145500
     28 H10        -3.9240   -0.0440   -0.9030 ha        1 0D1      0.141500
@<TRIPOS>BOND
     1    1    2 ar  
     2    1    7 ar  
     3    1   19 1   
     4    2    3 ar  
     5    2   20 1   
     6    3    4 1   
     7    3    5 ar  
     8    4   21 1   
     9    5    6 ar  
    10    5   22 1   
    11    6    7 ar  
    12    6   23 1   
    13    7    8 1   
    14    8    9 2   
    15    8   12 1   
    16    9   10 1   
    17    9   11 1   
    18   12   13 ar  
    19   12   18 ar  
    20   13   14 ar  
    21   13   24 1   
    22   14   15 ar  
    23   14   25 1   
    24   15   16 1   
    25   15   17 ar  
    26   16   26 1   
    27   17   18 ar  
    28   17   27 1   
    29   18   28 1   
@<TRIPOS>SUBSTRUCTURE
     1 0D1         1 TEMP              0 ****  ****    0 ROOT
