@<TRIPOS>MOLECULE
0D1
   28    20     1     0     0
SMALL
bcc


@<TRIPOS>ATOM
      1 CAI         1.6800   -1.3960   -0.7930 c1        1 0D1     -0.065500
      2 CAE         3.0650   -1.3650   -0.7950 c1        1 0D1     -0.217000
      3 CAO         3.7490   -0.8830    0.3100 c1        1 0D1      0.089000
      4 OAA         5.1560   -0.8740    0.3180 oh        1 0D1     -0.249000
      5 CAF         3.0470   -0.4330    1.4170 c1        1 0D1     -0.115750
      6 CAJ         1.6610   -0.4640    1.4190 c1        1 0D1     -0.115750
      7 CAQ         0.9770   -0.9460    0.3140 c1        1 0D1     -0.089000
      8 CAN        -0.5320   -1.0430    0.3420 c1        1 0D1     -0.001000
      9 CAM        -1.1260   -2.2000    0.6930 c1        1 0D1     -0.095000
     10 CLD        -2.8650   -2.3130    0.7260 cl        1 0D1      0.017000
     11 CLC        -0.1540   -3.5860    1.1140 cl        1 0D1      0.018000
     12 CAR        -1.3740    0.1510   -0.0480 c1        1 0D1     -0.089000
     13 CAK        -1.5230    1.2110    0.8320 c1        1 0D1     -0.115750
     14 CAG        -2.2890    2.3090    0.4720 c1        1 0D1     -0.115750
     15 CAP        -2.9060    2.3470   -0.7690 c1        1 0D1      0.089000
     16 OAB        -3.6490    3.4780   -1.1500 oh        1 0D1     -0.249000
     17 CAH        -2.7570    1.2860   -1.6490 c1        1 0D1     -0.217000
     18 CAL        -1.9910    0.1890   -1.2880 c1        1 0D1     -0.065500
     19 H1          1.1980   -1.7350   -1.5720 ha        1 0D1      0.141000
     20 H2          3.5600   -1.6820   -1.5750 ha        1 0D1      0.136500
     21 H3          5.4500   -0.1380   -0.0830 ho        1 0D1      0.220000
     22 H4          3.5280   -0.0940    2.1960 ha        1 0D1      0.148500
     23 H5          1.1670   -0.1470    2.1990 ha        1 0D1      0.148500
     24 H6         -1.0890    1.1850    1.7060 ha        1 0D1      0.148500
     25 H7         -2.3940    3.0560    1.0920 ha        1 0D1      0.148500
     26 H8         -4.5130    3.3300   -0.9990 ho        1 0D1      0.220000
     27 H9         -3.1910    1.3130   -2.5230 ha        1 0D1      0.136500
     28 H10        -1.8860   -0.5580   -1.9080 ha        1 0D1      0.141000
@<TRIPOS>BOND
     1    1    7 1   
     2    1   19 1   
     3    2    3 1   
     4    2   20 1   
     5    3    4 1   
     6    4   21 1   
     7    5    6 1   
     8    5   22 1   
     9    6   23 1   
    10    8    9 1   
    11    9   10 1   
    12   12   18 1   
    13   13   14 1   
    14   13   24 1   
    15   14   25 1   
    16   15   16 1   
    17   15   17 1   
    18   16   26 1   
    19   17   27 1   
    20   18   28 1   
@<TRIPOS>SUBSTRUCTURE
     1 0D1         1 TEMP              0 ****  ****    0 ROOT
