@<TRIPOS>MOLECULE
0D1
   28    29     1     0     0
SMALL
bcc


@<TRIPOS>ATOM
      1 CAI        -0.0810   -0.0450   -0.0250 ca        1 0D1     -0.068000
      2 CAE         1.3070   -0.0690   -0.0630 ca        1 0D1     -0.188500
      3 CAO         2.0250    0.0190    1.1420 ca        1 0D1      0.134100
      4 OAA         3.3960   -0.0140    1.0430 oh        1 0D1     -0.495100
      5 CAF         1.3570    0.1330    2.3690 ca        1 0D1     -0.188500
      6 CAJ        -0.0340    0.1630    2.3880 ca        1 0D1     -0.068000
      7 CAQ        -0.7630    0.0750    1.1950 ca        1 0D1     -0.100800
      8 CAN        -2.2310    0.0870    1.2100 ce        1 0D1      0.023600
      9 CAM        -2.9380    1.1320    1.6930 c2        1 0D1      0.072800
     10 CLD        -2.2060    2.5480    2.2810 cl        1 0D1     -0.067400
     11 CLC        -4.6350    1.1440    1.7640 cl        1 0D1     -0.067400
     12 CAR        -2.8800   -1.1120    0.6670 ca        1 0D1     -0.100800
     13 CAK        -2.6400   -2.3620    1.2580 ca        1 0D1     -0.068000
     14 CAG        -3.2350   -3.5110    0.7520 ca        1 0D1     -0.188500
     15 CAP        -4.0770   -3.4090   -0.3680 ca        1 0D1      0.134100
     16 OAB        -4.6350   -4.5800   -0.8250 oh        1 0D1     -0.495100
     17 CAH        -4.3210   -2.1680   -0.9720 ca        1 0D1     -0.188500
     18 CAL        -3.7220   -1.0250   -0.4490 ca        1 0D1     -0.068000
     19 H1         -0.6540   -0.1200   -0.9630 ha        1 0D1      0.141500
     20 H2          1.8510   -0.1580   -1.0140 ha        1 0D1      0.145500
     21 H3          3.7630    0.0610    1.9360 ho        1 0D1      0.421000
     22 H4          1.9260    0.2000    3.3070 ha        1 0D1      0.145500
     23 H5         -0.5640    0.2580    3.3480 ha        1 0D1      0.141500
     24 H6         -1.9730   -2.4310    2.1310 ha        1 0D1      0.141500
     25 H7         -3.0580   -4.4940    1.2110 ha        1 0D1      0.145500
     26 H8         -5.1910   -4.3680   -1.5890 ho        1 0D1      0.421000
     27 H9         -4.9790   -2.0960   -1.8490 ha        1 0D1      0.145500
     28 H10        -3.9140   -0.0470   -0.9150 ha        1 0D1      0.141500
@<TRIPOS>BOND
     1    1    2 ar  
     2    1    7 ar  
     3    1   19 1   
     4    2    3 ar  
     5    2   20 1   
     6    3    4 1   
     7    3    5 ar  
     8    4   21 1   
     9    5    6 ar  
    10    5   22 1   
    11    6    7 ar  
    12    6   23 1   
    13    7    8 1   
    14    8    9 2   
    15    8   12 1   
    16    9   10 1   
    17    9   11 1   
    18   12   13 ar  
    19   12   18 ar  
    20   13   14 ar  
    21   13   24 1   
    22   14   15 ar  
    23   14   25 1   
    24   15   16 1   
    25   15   17 ar  
    26   16   26 1   
    27   17   18 ar  
    28   17   27 1   
    29   18   28 1   
@<TRIPOS>SUBSTRUCTURE
     1 0D1         1 TEMP              0 ****  ****    0 ROOT
