@<TRIPOS>MOLECULE
0D1
   28    29     1     0     0
SMALL
bcc


@<TRIPOS>ATOM
      1 CAI        -1.4550   -1.0330    1.1280 ca        1 0D1     -0.068000
      2 CAE        -2.6170   -1.7920    1.1980 ca        1 0D1     -0.188500
      3 CAO        -3.5760   -1.6690    0.1780 ca        1 0D1      0.134100
      4 OAA        -4.7030   -2.4460    0.2990 oh        1 0D1     -0.495100
      5 CAF        -3.3720   -0.7930   -0.8980 ca        1 0D1     -0.188500
      6 CAJ        -2.2050   -0.0360   -0.9490 ca        1 0D1     -0.068000
      7 CAQ        -1.2400   -0.1480    0.0600 ca        1 0D1     -0.100800
      8 CAN         0.0000    0.6340    0.0010 ce        1 0D1      0.023600
      9 CAM         0.0000    1.9850    0.0030 c2        1 0D1      0.072800
     10 CLD        -1.4210    2.9080    0.1220 cl        1 0D1     -0.067400
     11 CLC         1.4220    2.9080   -0.1140 cl        1 0D1     -0.067400
     12 CAR         1.2400   -0.1480   -0.0590 ca        1 0D1     -0.100800
     13 CAK         1.4550   -1.0300   -1.1290 ca        1 0D1     -0.068000
     14 CAG         2.6170   -1.7890   -1.2010 ca        1 0D1     -0.188500
     15 CAP         3.5760   -1.6690   -0.1810 ca        1 0D1      0.134100
     16 OAB         4.7030   -2.4460   -0.3040 oh        1 0D1     -0.495100
     17 CAH         3.3720   -0.7960    0.8970 ca        1 0D1     -0.188500
     18 CAL         2.2050   -0.0380    0.9500 ca        1 0D1     -0.068000
     19 H1         -0.6940   -1.1260    1.9180 ha        1 0D1      0.141500
     20 H2         -2.7970   -2.4840    2.0320 ha        1 0D1      0.145500
     21 H3         -5.2770   -2.2620   -0.4580 ho        1 0D1      0.421000
     22 H4         -4.1260   -0.7040   -1.6920 ha        1 0D1      0.145500
     23 H5         -2.0420    0.6580   -1.7880 ha        1 0D1      0.141500
     24 H6          0.6940   -1.1210   -1.9200 ha        1 0D1      0.141500
     25 H7          2.7970   -2.4790   -2.0370 ha        1 0D1      0.145500
     26 H8          5.2770   -2.2640    0.4540 ho        1 0D1      0.421000
     27 H9          4.1260   -0.7090    1.6920 ha        1 0D1      0.145500
     28 H10         2.0420    0.6530    1.7910 ha        1 0D1      0.141500
@<TRIPOS>BOND
     1    1    2 ar  
     2    1    7 ar  
     3    1   19 1   
     4    2    3 ar  
     5    2   20 1   
     6    3    4 1   
     7    3    5 ar  
     8    4   21 1   
     9    5    6 ar  
    10    5   22 1   
    11    6    7 ar  
    12    6   23 1   
    13    7    8 1   
    14    8    9 2   
    15    8   12 1   
    16    9   10 1   
    17    9   11 1   
    18   12   13 ar  
    19   12   18 ar  
    20   13   14 ar  
    21   13   24 1   
    22   14   15 ar  
    23   14   25 1   
    24   15   16 1   
    25   15   17 ar  
    26   16   26 1   
    27   17   18 ar  
    28   17   27 1   
    29   18   28 1   
@<TRIPOS>SUBSTRUCTURE
     1 0D1         1 TEMP              0 ****  ****    0 ROOT
