@<TRIPOS>MOLECULE
0D2
   40    43     1     0     0
SMALL
bcc


@<TRIPOS>ATOM
      1 O20        -0.0320    0.5020   -2.6460 o         1 0D2     -0.599500
      2 C19        -0.1980    1.1220   -1.5910 c         1 0D2      0.709500
      3 N16        -0.9110    2.3120   -1.4470 n         1 0D2     -0.599500
      4 C18         0.3080    0.7090   -0.1580 c3        1 0D2      0.067700
      5 N17        -0.2190    1.7820    0.7040 n         1 0D2     -0.520900
      6 C15        -0.9960    2.6820   -0.0720 c         1 0D2      0.798500
      7 O14        -1.6170    3.6680    0.3500 o         1 0D2     -0.590500
      8 C21         1.8190    0.6450   -0.1080 ca        1 0D2     -0.119300
      9 C26         2.5680    0.3280   -1.2480 ca        1 0D2     -0.110000
     10 C25         3.9600    0.2760   -1.1830 ca        1 0D2     -0.129500
     11 C24         4.6210    0.5420    0.0150 ca        1 0D2     -0.109000
     12 C23         3.8810    0.8560    1.1540 ca        1 0D2     -0.129500
     13 C22         2.4890    0.9050    1.0970 ca        1 0D2     -0.110000
     14 C5         -0.3130   -0.7010    0.1860 c3        1 0D2      0.067700
     15 N4          0.2140   -1.7740   -0.6750 n         1 0D2     -0.520900
     16 C3          0.9910   -2.6750    0.1000 c         1 0D2      0.798500
     17 O13         1.6120   -3.6600   -0.3220 o         1 0D2     -0.590500
     18 C1          0.1930   -1.1150    1.6190 c         1 0D2      0.709500
     19 O12         0.0270   -0.4940    2.6740 o         1 0D2     -0.599500
     20 N2          0.9060   -2.3040    1.4750 n         1 0D2     -0.599500
     21 C6         -1.8240   -0.6380    0.1360 ca        1 0D2     -0.119300
     22 C7         -2.4940   -0.8970   -1.0690 ca        1 0D2     -0.110000
     23 C8         -3.8850   -0.8480   -1.1260 ca        1 0D2     -0.129500
     24 C9         -4.6260   -0.5340    0.0130 ca        1 0D2     -0.109000
     25 C10        -3.9650   -0.2680    1.2110 ca        1 0D2     -0.129500
     26 C11        -2.5730   -0.3200    1.2750 ca        1 0D2     -0.110000
     27 H1         -1.3330    2.8280   -2.1760 hn        1 0D2      0.364500
     28 H2         -0.5300    1.5410    1.6190 hn        1 0D2      0.348500
     29 H3          2.0770    0.1210   -2.2120 ha        1 0D2      0.153500
     30 H4          4.5360    0.0240   -2.0870 ha        1 0D2      0.141500
     31 H5          5.7190    0.5050    0.0610 ha        1 0D2      0.139000
     32 H6          4.3930    1.0670    2.1050 ha        1 0D2      0.141500
     33 H7          1.9250    1.1430    2.0140 ha        1 0D2      0.153500
     34 H8          0.5250   -1.5330   -1.5910 hn        1 0D2      0.348500
     35 H9          1.3280   -2.8210    2.2040 hn        1 0D2      0.364500
     36 H10        -1.9300   -1.1360   -1.9860 ha        1 0D2      0.153500
     37 H11        -4.3980   -1.0590   -2.0770 ha        1 0D2      0.141500
     38 H12        -5.7240   -0.4970   -0.0340 ha        1 0D2      0.139000
     39 H13        -4.5410   -0.0160    2.1150 ha        1 0D2      0.141500
     40 H14        -2.0820   -0.1130    2.2400 ha        1 0D2      0.153500
@<TRIPOS>BOND
     1    1    2 2   
     2    2    3 1   
     3    2    4 1   
     4    3    6 1   
     5    3   27 1   
     6    4    5 1   
     7    4    8 1   
     8    4   14 1   
     9    5    6 1   
    10    5   28 1   
    11    6    7 2   
    12    8    9 ar  
    13    8   13 ar  
    14    9   10 ar  
    15    9   29 1   
    16   10   11 ar  
    17   10   30 1   
    18   11   12 ar  
    19   11   31 1   
    20   12   13 ar  
    21   12   32 1   
    22   13   33 1   
    23   14   15 1   
    24   14   18 1   
    25   14   21 1   
    26   15   16 1   
    27   15   34 1   
    28   16   17 2   
    29   16   20 1   
    30   18   19 2   
    31   18   20 1   
    32   20   35 1   
    33   21   22 ar  
    34   21   26 ar  
    35   22   23 ar  
    36   22   36 1   
    37   23   24 ar  
    38   23   37 1   
    39   24   25 ar  
    40   24   38 1   
    41   25   26 ar  
    42   25   39 1   
    43   26   40 1   
@<TRIPOS>SUBSTRUCTURE
     1 0D2         1 TEMP              0 ****  ****    0 ROOT
