@<TRIPOS>MOLECULE
0D2
   40    43     1     0     0
SMALL
bcc


@<TRIPOS>ATOM
      1 O20        -0.1260   -0.2320   -0.0710 o         1 0D2     -0.599500
      2 C19         1.0990   -0.0990    0.0030 c         1 0D2      0.709500
      3 N16         1.8480   -0.0600    1.1780 ns        1 0D2     -0.599500
      4 C18         2.1150    0.0140   -1.1970 c3        1 0D2      0.067700
      5 N17         3.4200    0.1020   -0.5200 ns        1 0D2     -0.520900
      6 C15         3.2430   -0.0150    0.8830 c         1 0D2      0.798500
      7 O14         4.1400   -0.0280    1.7380 o         1 0D2     -0.590500
      8 C21         1.8370    1.2430   -2.0340 ca        1 0D2     -0.119300
      9 C26         0.5440    1.7690   -2.1430 ca        1 0D2     -0.110000
     10 C25         0.3070    2.9040   -2.9180 ca        1 0D2     -0.129500
     11 C24         1.3560    3.5290   -3.5900 ca        1 0D2     -0.109000
     12 C23         2.6460    3.0090   -3.4890 ca        1 0D2     -0.129500
     13 C22         2.8870    1.8730   -2.7190 ca        1 0D2     -0.110000
     14 C5          1.9740   -1.2910   -2.0730 c3        1 0D2      0.067700
     15 N4          0.6680   -1.3790   -2.7500 ns        1 0D2     -0.520900
     16 C3          0.8450   -1.2620   -4.1530 c         1 0D2      0.798500
     17 O13        -0.0510   -1.2490   -5.0080 o         1 0D2     -0.590500
     18 C1          2.9890   -1.1780   -3.2730 c         1 0D2      0.709500
     19 O12         4.2140   -1.0450   -3.2000 o         1 0D2     -0.599500
     20 N2          2.2400   -1.2160   -4.4480 ns        1 0D2     -0.599500
     21 C6          2.2510   -2.5200   -1.2360 ca        1 0D2     -0.119300
     22 C7          1.2010   -3.1490   -0.5510 ca        1 0D2     -0.110000
     23 C8          1.4420   -4.2860    0.2190 ca        1 0D2     -0.129500
     24 C9          2.7320   -4.8060    0.3200 ca        1 0D2     -0.109000
     25 C10         3.7810   -4.1810   -0.3520 ca        1 0D2     -0.129500
     26 C11         3.5450   -3.0460   -1.1270 ca        1 0D2     -0.110000
     27 H1          1.4870   -0.0900    2.0980 hn        1 0D2      0.364500
     28 H2          4.2020   -0.3460   -0.9470 hn        1 0D2      0.348500
     29 H3         -0.3060    1.3030   -1.6170 ha        1 0D2      0.153500
     30 H4         -0.7150    3.3040   -2.9950 ha        1 0D2      0.141500
     31 H5          1.1670    4.4270   -4.1970 ha        1 0D2      0.139000
     32 H6          3.4800    3.4960   -4.0160 ha        1 0D2      0.141500
     33 H7          3.9130    1.4740   -2.6640 ha        1 0D2      0.153500
     34 H8         -0.1140   -0.9310   -2.3230 hn        1 0D2      0.348500
     35 H9          2.6010   -1.1860   -5.3680 hn        1 0D2      0.364500
     36 H10         0.1750   -2.7500   -0.6060 ha        1 0D2      0.153500
     37 H11         0.6080   -4.7720    0.7470 ha        1 0D2      0.141500
     38 H12         2.9210   -5.7040    0.9270 ha        1 0D2      0.139000
     39 H13         4.8030   -4.5820   -0.2750 ha        1 0D2      0.141500
     40 H14         4.3940   -2.5800   -1.6530 ha        1 0D2      0.153500
@<TRIPOS>BOND
     1    1    2 2   
     2    2    3 1   
     3    2    4 1   
     4    3    6 1   
     5    3   27 1   
     6    4    5 1   
     7    4    8 1   
     8    4   14 1   
     9    5    6 1   
    10    5   28 1   
    11    6    7 2   
    12    8    9 ar  
    13    8   13 ar  
    14    9   10 ar  
    15    9   29 1   
    16   10   11 ar  
    17   10   30 1   
    18   11   12 ar  
    19   11   31 1   
    20   12   13 ar  
    21   12   32 1   
    22   13   33 1   
    23   14   15 1   
    24   14   18 1   
    25   14   21 1   
    26   15   16 1   
    27   15   34 1   
    28   16   17 2   
    29   16   20 1   
    30   18   19 2   
    31   18   20 1   
    32   20   35 1   
    33   21   22 ar  
    34   21   26 ar  
    35   22   23 ar  
    36   22   36 1   
    37   23   24 ar  
    38   23   37 1   
    39   24   25 ar  
    40   24   38 1   
    41   25   26 ar  
    42   25   39 1   
    43   26   40 1   
@<TRIPOS>SUBSTRUCTURE
     1 0D2         1 TEMP              0 ****  ****    0 ROOT
