@<TRIPOS>MOLECULE
0D2
   40    36     1     0     0
SMALL
bcc


@<TRIPOS>ATOM
      1 O20        -2.1010   -1.8250    0.2900 o         1 0D2     -0.324000
      2 C19        -1.1990   -1.3060    0.9200 c1        1 0D2      0.317000
      3 N16        -1.1440   -1.1710    2.3170 n2        1 0D2     -0.379000
      4 C18         0.0580   -0.6910    0.3310 c3        1 0D2      0.073000
      5 N17         0.9110   -0.4740    1.4730 n         1 0D2     -0.330000
      6 C15         0.0940   -0.5450    2.6580 c2        1 0D2      0.389000
      7 O14         0.4060   -0.1410    3.7610 o         1 0D2     -0.315000
      8 C21         0.8040   -1.4870   -0.7810 c2        1 0D2     -0.112000
      9 C26         0.1350   -2.4650   -1.4990 c2        1 0D2     -0.124000
     10 C25         0.8190   -3.2320   -2.4270 c1        1 0D2     -0.127000
     11 C24         2.1720   -3.0230   -2.6370 c1        1 0D2     -0.122167
     12 C23         2.8410   -2.0450   -1.9190 c1        1 0D2     -0.122167
     13 C22         2.1580   -1.2770   -0.9910 c1        1 0D2     -0.096000
     14 C5         -0.3060    0.5580   -0.3970 c3        1 0D2      0.073000
     15 N4         -1.2790    0.4180   -1.4650 n3        1 0D2     -0.330000
     16 C3         -0.6570    0.7870   -2.6990 c1        1 0D2      0.389000
     17 O13        -1.1160    0.6030   -3.8090 o         1 0D2     -0.315000
     18 C1          0.9240    1.0370   -1.1180 c2        1 0D2      0.317000
     19 O12         2.0380    1.1210   -0.6430 o         1 0D2     -0.324000
     20 N2          0.5650    1.3940   -2.4130 n2        1 0D2     -0.379000
     21 C6         -0.7520    1.3840    0.7600 c1        1 0D2     -0.112000
     22 C7          0.1760    2.1140    1.4870 c1        1 0D2     -0.122167
     23 C8         -0.2480    2.9570    2.5020 c1        1 0D2     -0.122167
     24 C9         -1.5980    3.0710    2.7890 c1        1 0D2     -0.122167
     25 C10        -2.5250    2.3420    2.0620 c1        1 0D2     -0.122167
     26 C11        -2.1020    1.4990    1.0480 c1        1 0D2     -0.096000
     27 H1         -1.8320   -1.3340    2.8930 hn        1 0D2      0.278000
     28 H2          1.7470   -0.1160    1.4370 hn        1 0D2      0.262000
     29 H3         -0.8170   -2.6130   -1.3510 ha        1 0D2      0.155000
     30 H4          0.3480   -3.9210   -2.9330 ha        1 0D2      0.142000
     31 H5          2.6540   -3.5640   -3.2920 ha        1 0D2      0.142833
     32 H6          3.7940   -1.8970   -2.0670 ha        1 0D2      0.142833
     33 H7          2.6280   -0.5900   -0.4870 ha        1 0D2      0.152000
     34 H8         -2.1420    0.1370   -1.3660 hn        1 0D2      0.262000
     35 H9          1.1420    1.7170   -3.0400 hn        1 0D2      0.278000
     36 H10         1.1260    2.0340    1.2840 ha        1 0D2      0.142833
     37 H11         0.4060    3.4720    3.0140 ha        1 0D2      0.142833
     38 H12        -1.8960    3.6660    3.5040 ha        1 0D2      0.142833
     39 H13        -3.4770    2.4220    2.2650 ha        1 0D2      0.142833
     40 H14        -2.7560    0.9850    0.5360 ha        1 0D2      0.152000
@<TRIPOS>BOND
     1    1    2 1   
     2    2    4 1   
     3    3    6 1   
     4    3   27 1   
     5    4    5 1   
     6    4    8 1   
     7    4   14 1   
     8    5    6 1   
     9    5   28 1   
    10    6    7 1   
    11    8    9 1   
    12    8   13 1   
    13    9   10 1   
    14    9   29 1   
    15   10   30 1   
    16   11   12 1   
    17   11   31 1   
    18   12   32 1   
    19   13   33 1   
    20   14   15 1   
    21   14   18 1   
    22   14   21 1   
    23   15   16 1   
    24   15   34 1   
    25   16   17 1   
    26   18   19 1   
    27   18   20 1   
    28   20   35 1   
    29   21   26 1   
    30   22   23 1   
    31   22   36 1   
    32   23   37 1   
    33   24   25 1   
    34   24   38 1   
    35   25   39 1   
    36   26   40 1   
@<TRIPOS>SUBSTRUCTURE
     1 0D2         1 TEMP              0 ****  ****    0 ROOT
