@<TRIPOS>MOLECULE
0D2
   40    43     1     0     0
SMALL
bcc


@<TRIPOS>ATOM
      1 O20        -0.1250   -0.2330   -0.0690 o         1 0D2     -0.599500
      2 C19         1.1000   -0.0990    0.0030 c         1 0D2      0.709500
      3 N16         1.8500   -0.0600    1.1780 n         1 0D2     -0.599500
      4 C18         2.1140    0.0140   -1.1970 c3        1 0D2      0.067700
      5 N17         3.4210    0.1030   -0.5220 n         1 0D2     -0.520900
      6 C15         3.2450   -0.0130    0.8820 c         1 0D2      0.798500
      7 O14         4.1420   -0.0250    1.7360 o         1 0D2     -0.590500
      8 C21         1.8350    1.2430   -2.0350 ca        1 0D2     -0.119300
      9 C26         0.5410    1.7680   -2.1430 ca        1 0D2     -0.110000
     10 C25         0.3030    2.9020   -2.9180 ca        1 0D2     -0.129500
     11 C24         1.3510    3.5280   -3.5910 ca        1 0D2     -0.109000
     12 C23         2.6420    3.0090   -3.4910 ca        1 0D2     -0.129500
     13 C22         2.8840    1.8730   -2.7210 ca        1 0D2     -0.110000
     14 C5          1.9740   -1.2910   -2.0730 c3        1 0D2      0.067700
     15 N4          0.6670   -1.3800   -2.7480 n         1 0D2     -0.520900
     16 C3          0.8430   -1.2630   -4.1520 c         1 0D2      0.798500
     17 O13        -0.0540   -1.2520   -5.0060 o         1 0D2     -0.590500
     18 C1          2.9880   -1.1770   -3.2730 c         1 0D2      0.709500
     19 O12         4.2130   -1.0440   -3.2010 o         1 0D2     -0.599500
     20 N2          2.2380   -1.2170   -4.4480 n         1 0D2     -0.599500
     21 C6          2.2530   -2.5200   -1.2350 ca        1 0D2     -0.119300
     22 C7          1.2040   -3.1490   -0.5490 ca        1 0D2     -0.110000
     23 C8          1.4470   -4.2860    0.2210 ca        1 0D2     -0.129500
     24 C9          2.7370   -4.8040    0.3210 ca        1 0D2     -0.109000
     25 C10         3.7850   -4.1790   -0.3520 ca        1 0D2     -0.129500
     26 C11         3.5470   -3.0450   -1.1270 ca        1 0D2     -0.110000
     27 H1          1.4900   -0.0900    2.0990 hn        1 0D2      0.364500
     28 H2          4.2030   -0.3440   -0.9490 hn        1 0D2      0.348500
     29 H3         -0.3070    1.3020   -1.6160 ha        1 0D2      0.153500
     30 H4         -0.7190    3.3020   -2.9940 ha        1 0D2      0.141500
     31 H5          1.1610    4.4250   -4.1980 ha        1 0D2      0.139000
     32 H6          3.4750    3.4960   -4.0190 ha        1 0D2      0.141500
     33 H7          3.9110    1.4740   -2.6670 ha        1 0D2      0.153500
     34 H8         -0.1150   -0.9330   -2.3210 hn        1 0D2      0.348500
     35 H9          2.5980   -1.1870   -5.3690 hn        1 0D2      0.364500
     36 H10         0.1770   -2.7510   -0.6040 ha        1 0D2      0.153500
     37 H11         0.6130   -4.7720    0.7490 ha        1 0D2      0.141500
     38 H12         2.9270   -5.7020    0.9280 ha        1 0D2      0.139000
     39 H13         4.8070   -4.5790   -0.2760 ha        1 0D2      0.141500
     40 H14         4.3960   -2.5780   -1.6540 ha        1 0D2      0.153500
@<TRIPOS>BOND
     1    1    2 2   
     2    2    3 1   
     3    2    4 1   
     4    3    6 1   
     5    3   27 1   
     6    4    5 1   
     7    4    8 1   
     8    4   14 1   
     9    5    6 1   
    10    5   28 1   
    11    6    7 2   
    12    8    9 ar  
    13    8   13 ar  
    14    9   10 ar  
    15    9   29 1   
    16   10   11 ar  
    17   10   30 1   
    18   11   12 ar  
    19   11   31 1   
    20   12   13 ar  
    21   12   32 1   
    22   13   33 1   
    23   14   15 1   
    24   14   18 1   
    25   14   21 1   
    26   15   16 1   
    27   15   34 1   
    28   16   17 2   
    29   16   20 1   
    30   18   19 2   
    31   18   20 1   
    32   20   35 1   
    33   21   22 ar  
    34   21   26 ar  
    35   22   23 ar  
    36   22   36 1   
    37   23   24 ar  
    38   23   37 1   
    39   24   25 ar  
    40   24   38 1   
    41   25   26 ar  
    42   25   39 1   
    43   26   40 1   
@<TRIPOS>SUBSTRUCTURE
     1 0D2         1 TEMP              0 ****  ****    0 ROOT
