@<TRIPOS>MOLECULE
0D3
   43    40     1     0     0
SMALL
bcc


@<TRIPOS>ATOM
      1 C1          0.4670    0.2330    0.5520 c1        1 0D3      0.307000
      2 O1         -0.1470   -0.1850    1.5130 o         1 0D3     -0.365000
      3 C2          1.9800    0.2070    0.5510 c2        1 0D3     -0.104000
      4 C3          2.4770   -0.2630    1.9000 c3        1 0D3     -0.122000
      5 C1'         3.1560   -1.6090    1.7470 c2        1 0D3     -0.083000
      6 C2'         4.3050   -1.7210    0.9790 c1        1 0D3     -0.125000
      7 C3'         4.9690   -2.9350    0.8980 c1        1 0D3     -0.131000
      8 C4'         4.4850   -4.0370    1.5860 c1        1 0D3     -0.131000
      9 C5'         3.3370   -3.9250    2.3550 c1        1 0D3     -0.132000
     10 C6'         2.6720   -2.7110    2.4350 c2        1 0D3     -0.119000
     11 C'          2.5080    1.5970    0.2750 c3        1 0D3     -0.257000
     12 S'          4.2800    1.5590    0.2360 sh        1 0D3     -0.022000
     13 N          -0.2360    0.7300   -0.5780 n3        1 0D3     -0.356000
     14 CA         -1.5510    0.2690   -0.8550 c3        1 0D3      0.008000
     15 C          -2.5190    1.4290   -0.7740 c2        1 0D3      0.270000
     16 O          -2.0990    2.5690   -0.7460 o         1 0D3     -0.378000
     17 CB         -1.5930   -0.3270   -2.2440 c3        1 0D3     -0.226000
     18 N1         -3.9170    1.1860   -0.7390 n         1 0D3     -0.343000
     19 CA1        -4.8300    2.2510   -0.9760 c3        1 0D3     -0.056000
     20 C4         -6.1580    1.6850   -1.4280 c2        1 0D3      0.272000
     21 O2         -6.5500    0.6250   -0.9830 o         1 0D3     -0.382000
     22 N2         -6.9540    2.4000   -2.3600 n         1 0D3     -0.427000
     23 H2          2.2940   -0.4040   -0.1430 ha        1 0D3      0.129000
     24 H31         1.7210   -0.3480    2.5150 hc        1 0D3      0.113500
     25 H32         3.1160    0.3860    2.2570 hc        1 0D3      0.113500
     26 H2'         4.6460   -0.9450    0.4940 ha        1 0D3      0.134000
     27 H3'         5.7780   -3.0140    0.3570 ha        1 0D3      0.129500
     28 H4'         4.9530   -4.8920    1.5300 ha        1 0D3      0.129500
     29 H5'         2.9960   -4.7010    2.8390 ha        1 0D3      0.131000
     30 H6'         1.8640   -2.6320    2.9760 ha        1 0D3      0.151000
     31 H'1         2.2100    2.2050    0.9820 h1        1 0D3      0.114000
     32 H'2         2.1690    1.9090   -0.5880 h1        1 0D3      0.114000
     33 HS'         4.6940    2.6570    0.1340 hs        1 0D3      0.035000
     34 H           0.1680    1.3230   -1.1410 hn        1 0D3      0.234000
     35 HA         -1.8020   -0.4110   -0.2000 h1        1 0D3      0.148000
     36 HB1        -0.8710   -0.9830   -2.3400 hc        1 0D3      0.094333
     37 HB2        -1.4800    0.3840   -2.9090 hc        1 0D3      0.094333
     38 HB3        -2.4570   -0.7690   -2.3830 hc        1 0D3      0.094333
     39 H1         -4.2290    0.3440   -0.5840 hn        1 0D3      0.238000
     40 HA2        -4.9570    2.7620   -0.1500 h1        1 0D3      0.125500
     41 HA3        -4.4720    2.8390   -1.6720 h1        1 0D3      0.125500
     42 HN1        -7.7110    2.0180   -2.7030 hn        1 0D3      0.228500
     43 HN2        -6.7110    3.2430   -2.6160 hn        1 0D3      0.228500
@<TRIPOS>BOND
     1    1    2 1   
     2    1   13 1   
     3    3    4 1   
     4    3   11 1   
     5    3   23 1   
     6    4    5 1   
     7    4   24 1   
     8    4   25 1   
     9    5    6 1   
    10    5   10 1   
    11    6   26 1   
    12    7    8 1   
    13    7   27 1   
    14    8   28 1   
    15    9   10 1   
    16    9   29 1   
    17   10   30 1   
    18   11   12 1   
    19   11   31 1   
    20   11   32 1   
    21   12   33 1   
    22   13   14 1   
    23   13   34 1   
    24   14   15 1   
    25   14   17 1   
    26   14   35 1   
    27   15   16 1   
    28   15   18 1   
    29   17   36 1   
    30   17   37 1   
    31   17   38 1   
    32   18   19 1   
    33   18   39 1   
    34   19   20 1   
    35   19   40 1   
    36   19   41 1   
    37   20   21 1   
    38   20   22 1   
    39   22   42 1   
    40   22   43 1   
@<TRIPOS>SUBSTRUCTURE
     1 0D3         1 TEMP              0 ****  ****    0 ROOT
