@<TRIPOS>MOLECULE
0D3
   43    43     1     0     0
SMALL
bcc


@<TRIPOS>ATOM
      1 C1          0.9780    0.8620    1.1910 c         1 0D3      0.662100
      2 O1          0.9270    0.2370    2.2680 o         1 0D3     -0.607100
      3 C2          2.3090    1.2010    0.5130 c3        1 0D3     -0.111700
      4 C3          3.3210    0.0830    0.7530 c3        1 0D3     -0.038100
      5 C1'         3.0650   -1.1040   -0.1080 ca        1 0D3     -0.091300
      6 C2'         3.6140   -1.1770   -1.3940 ca        1 0D3     -0.122500
      7 C3'         3.3910   -2.3000   -2.1890 ca        1 0D3     -0.131000
      8 C4'         2.6220   -3.3580   -1.7060 ca        1 0D3     -0.128000
      9 C5'         2.0730   -3.2900   -0.4250 ca        1 0D3     -0.131000
     10 C6'         2.2920   -2.1680    0.3720 ca        1 0D3     -0.122500
     11 C'          2.8020    2.5150    1.0870 c3        1 0D3      0.008700
     12 S'          4.0870    3.1230    0.0250 sh        1 0D3     -0.376900
     13 N          -0.1710    1.3540    0.5920 n         1 0D3     -0.550900
     14 CA         -1.4850    0.9820    1.0530 c3        1 0D3      0.033700
     15 C          -2.2590    0.1880   -0.0310 c         1 0D3      0.629100
     16 O          -2.0530    0.3690   -1.2470 o         1 0D3     -0.609100
     17 CB         -2.3560    2.1890    1.4120 c3        1 0D3     -0.108100
     18 N1         -3.1600   -0.7620    0.4230 n         1 0D3     -0.533900
     19 CA1        -4.0820   -1.3970   -0.4720 c3        1 0D3      0.010000
     20 C4         -5.5360   -0.9350   -0.2800 c         1 0D3      0.628100
     21 O2         -5.9340   -0.4530    0.8010 o         1 0D3     -0.622100
     22 N2         -6.4050   -1.1160   -1.3230 n         1 0D3     -0.667000
     23 H2          2.1620    1.3140   -0.5990 hc        1 0D3      0.085700
     24 H31         4.3480    0.4910    0.5370 hc        1 0D3      0.074200
     25 H32         3.2890   -0.2140    1.8360 hc        1 0D3      0.074200
     26 H2'         4.2240   -0.3440   -1.7750 ha        1 0D3      0.140500
     27 H3'         3.8250   -2.3500   -3.1980 ha        1 0D3      0.130500
     28 H4'         2.4490   -4.2440   -2.3330 ha        1 0D3      0.129000
     29 H5'         1.4650   -4.1230   -0.0420 ha        1 0D3      0.130500
     30 H6'         1.8530   -2.1060    1.3810 ha        1 0D3      0.140500
     31 H'1         1.9680    3.2570    1.1340 h1        1 0D3      0.073200
     32 H'2         3.1880    2.3610    2.1240 h1        1 0D3      0.073200
     33 HS'         4.3580    4.2500    0.6610 hs        1 0D3      0.206800
     34 H          -0.1200    1.6870   -0.3460 hn        1 0D3      0.326500
     35 HA         -1.3590    0.3400    1.9790 h1        1 0D3      0.105700
     36 HB1        -3.3440    1.8290    1.7890 hc        1 0D3      0.053700
     37 HB2        -1.8660    2.7940    2.2120 hc        1 0D3      0.053700
     38 HB3        -2.5250    2.8420    0.5220 hc        1 0D3      0.053700
     39 H1         -3.4580   -0.7040    1.3730 hn        1 0D3      0.324500
     40 HA2        -3.7480   -1.2230   -1.5360 h1        1 0D3      0.086700
     41 HA3        -4.0670   -2.5080   -0.2650 h1        1 0D3      0.086700
     42 HN1        -6.0880   -1.4290   -2.2030 hn        1 0D3      0.315000
     43 HN2        -7.3470   -0.8260   -1.2300 hn        1 0D3      0.315000
@<TRIPOS>BOND
     1    1    2 2   
     2    1    3 1   
     3    1   13 1   
     4    3    4 1   
     5    3   11 1   
     6    3   23 1   
     7    4    5 1   
     8    4   24 1   
     9    4   25 1   
    10    5    6 ar  
    11    5   10 ar  
    12    6    7 ar  
    13    6   26 1   
    14    7    8 ar  
    15    7   27 1   
    16    8    9 ar  
    17    8   28 1   
    18    9   10 ar  
    19    9   29 1   
    20   10   30 1   
    21   11   12 1   
    22   11   31 1   
    23   11   32 1   
    24   12   33 1   
    25   13   14 1   
    26   13   34 1   
    27   14   15 1   
    28   14   17 1   
    29   14   35 1   
    30   15   16 2   
    31   15   18 1   
    32   17   36 1   
    33   17   37 1   
    34   17   38 1   
    35   18   19 1   
    36   18   39 1   
    37   19   20 1   
    38   19   40 1   
    39   19   41 1   
    40   20   21 2   
    41   20   22 1   
    42   22   42 1   
    43   22   43 1   
@<TRIPOS>SUBSTRUCTURE
     1 0D3         1 TEMP              0 ****  ****    0 ROOT
