@<TRIPOS>MOLECULE
0D6
   77    74     1     0     0
SMALL
bcc


@<TRIPOS>ATOM
      1 N1          4.8420   -2.7460    1.0150 n         1 0D6     -0.316000
      2 C1          4.0910   -1.6570    0.4090 c2        1 0D6      0.380000
      3 O1          4.5700   -0.5420    0.3640 o         1 0D6     -0.401000
      4 C2          6.2230   -2.7500    1.6530 c3        1 0D6     -0.064500
      5 C3          6.1820   -3.1460    3.1120 c3        1 0D6     -0.089500
      6 N4          5.0600   -3.7560    3.3970 n3        1 0D6     -0.274000
      7 C5          4.4210   -4.6170    2.6510 c3        1 0D6     -0.089500
      8 C6          4.4750   -4.2110    1.1940 c3        1 0D6     -0.064500
      9 N           2.8350   -1.9250   -0.2410 n         1 0D6     -0.348000
     10 CA          2.4120   -1.1180   -1.3290 c3        1 0D6      0.006000
     11 C           0.8810   -0.9900   -1.3070 c2        1 0D6      0.303000
     12 O           0.1890   -1.9870   -1.2030 o         1 0D6     -0.381000
     13 CB          2.8500   -1.7590   -2.6370 c3        1 0D6     -0.184000
     14 CG          3.3550   -0.6560   -3.6150 c3        1 0D6     -0.104000
     15 CD1         4.7410   -0.2190   -3.2090 c3        1 0D6     -0.211000
     16 CD2         3.3960   -1.2110   -5.0280 c3        1 0D6     -0.211000
     17 C11        -3.4440    0.2010   -1.6110 c3        1 0D6     -0.847000
     18 C21        -2.0440    0.7940   -1.9390 c3        1 0D6     -0.145000
     19 C31        -1.0890    0.5090   -0.7910 c3        1 0D6      0.025000
     20 N2          0.2550    0.3390   -1.3090 n         1 0D6     -0.370000
     21 C4         -1.1130    1.6550    0.1740 c3        1 0D6     -0.182000
     22 C51        -2.0540    1.3130    1.3610 c3        1 0D6     -0.118000
     23 C1'        -2.2600    2.5610    2.2270 c2        1 0D6     -0.077000
     24 C2'        -3.4070    3.3290    2.0690 c2        1 0D6     -0.124000
     25 C3'        -3.6810    4.3590    2.9600 c1        1 0D6     -0.127000
     26 C4'        -2.8130    4.6210    4.0030 c1        1 0D6     -0.108833
     27 C5'        -1.6680    3.8550    4.1610 c1        1 0D6     -0.108833
     28 C6'        -1.3920    2.8240    3.2710 c1        1 0D6     -0.129000
     29 C12        -7.9510    2.1270    0.9860 c1        1 0D6     -0.108833
     30 C22        -6.6150    2.3120    1.3010 c1        1 0D6     -0.108833
     31 C32        -5.6290    2.0160    0.3600 c1        1 0D6     -0.108833
     32 C41        -5.9840    1.5360   -0.8900 c1        1 0D6     -0.835000
     33 S1         -4.7210    1.3330   -2.1700 s6        1 0D6      2.841000
     34 O11        -4.1650    2.5960   -2.5560 o         1 0D6     -0.935000
     35 O2         -5.3020    0.8920   -3.4120 o         1 0D6     -0.935000
     36 C52        -7.3220    1.3510   -1.2040 c1        1 0D6     -0.018000
     37 C61        -8.3090    1.6480   -0.2620 c1        1 0D6     -0.108833
     38 H21         6.6060   -1.8600    1.5790 h1        1 0D6      0.091750
     39 H22         6.7950   -3.3830    1.1690 h1        1 0D6      0.091750
     40 H31         6.9370   -3.7490    3.3060 h1        1 0D6      0.097500
     41 H32         6.2600   -2.3460    3.6640 h1        1 0D6      0.097500
     42 HN4         5.0900   -4.0670    4.2700 hn        1 0D6      0.152000
     43 H51         4.8350   -5.5050    2.7550 h1        1 0D6      0.097500
     44 H52         3.4940   -4.6610    2.9360 h1        1 0D6      0.097500
     45 H61         3.6060   -4.3680    0.7930 h1        1 0D6      0.091750
     46 H62         5.1420   -4.7640    0.7350 h1        1 0D6      0.091750
     47 H           2.3050   -2.6030    0.0550 hn        1 0D6      0.225000
     48 HA          2.8130   -0.2320   -1.2510 h1        1 0D6      0.140000
     49 HB2         3.5790   -2.4000   -2.4600 hc        1 0D6      0.101500
     50 HB3         2.0910   -2.2300   -3.0400 hc        1 0D6      0.101500
     51 HG          2.7540    0.1040   -3.5830 hc        1 0D6      0.084000
     52 HD11        4.6820    0.3730   -2.4460 hc        1 0D6      0.076833
     53 HD12        5.1680    0.2550   -3.9600 hc        1 0D6      0.076833
     54 HD13        5.2760   -1.0060   -2.9730 hc        1 0D6      0.076833
     55 HD21        4.1350   -1.8610   -5.1040 hc        1 0D6      0.076833
     56 HD22        2.5540   -1.6530   -5.2260 hc        1 0D6      0.076833
     57 HD23        3.5380   -0.4770   -5.6630 hc        1 0D6      0.076833
     58 H11        -3.5250    0.0700   -0.6470 h1        1 0D6      0.154500
     59 H12        -3.5490   -0.6590   -2.0670 h1        1 0D6      0.154500
     60 H211       -2.1200    1.7630   -2.0670 hc        1 0D6      0.101500
     61 H221       -1.6980    0.3820   -2.7610 hc        1 0D6      0.101500
     62 H3         -1.3660   -0.3070   -0.3330 h1        1 0D6      0.125000
     63 HN2         0.6780    1.0380   -1.7090 hn        1 0D6      0.231000
     64 H41        -1.4410    2.4600   -0.2820 hc        1 0D6      0.103500
     65 H42        -0.2060    1.8170    0.5120 hc        1 0D6      0.103500
     66 H511       -1.6530    0.6050    1.9020 hc        1 0D6      0.090000
     67 H521       -2.9170    1.0100    1.0160 hc        1 0D6      0.090000
     68 H2'        -4.0200    3.1440    1.3340 ha        1 0D6      0.149000
     69 H3'        -4.4880    4.8990    2.8490 ha        1 0D6      0.132000
     70 H4'        -3.0050    5.3430    4.6260 ha        1 0D6      0.140000
     71 H5'        -1.0570    4.0400    4.8940 ha        1 0D6      0.140000
     72 H6'        -0.5850    2.2850    3.3830 ha        1 0D6      0.129000
     73 H1         -8.6390    2.3340    1.6440 ha        1 0D6      0.140000
     74 H2         -6.3630    2.6500    2.1810 ha        1 0D6      0.140000
     75 H33        -4.6910    2.1460    0.5820 ha        1 0D6      0.140000
     76 H5         -7.5750    1.0120   -2.0870 ha        1 0D6      0.156000
     77 H6         -9.2520    1.5170   -0.4830 ha        1 0D6      0.140000
@<TRIPOS>BOND
     1    1    2 1   
     2    1    4 1   
     3    1    8 1   
     4    2    3 1   
     5    2    9 1   
     6    4    5 1   
     7    4   38 1   
     8    4   39 1   
     9    5    6 1   
    10    5   40 1   
    11    5   41 1   
    12    6    7 1   
    13    6   42 1   
    14    7    8 1   
    15    7   43 1   
    16    7   44 1   
    17    8   45 1   
    18    8   46 1   
    19    9   10 1   
    20    9   47 1   
    21   10   11 1   
    22   10   13 1   
    23   10   48 1   
    24   11   12 1   
    25   11   20 1   
    26   13   14 1   
    27   13   49 1   
    28   13   50 1   
    29   14   15 1   
    30   14   16 1   
    31   14   51 1   
    32   15   52 1   
    33   15   53 1   
    34   15   54 1   
    35   16   55 1   
    36   16   56 1   
    37   16   57 1   
    38   17   18 1   
    39   17   33 1   
    40   17   58 1   
    41   17   59 1   
    42   18   19 1   
    43   18   60 1   
    44   18   61 1   
    45   19   20 1   
    46   19   21 1   
    47   19   62 1   
    48   20   63 1   
    49   21   22 1   
    50   21   64 1   
    51   21   65 1   
    52   22   23 1   
    53   22   66 1   
    54   22   67 1   
    55   23   24 1   
    56   23   28 1   
    57   24   25 1   
    58   24   68 1   
    59   25   69 1   
    60   26   27 1   
    61   26   70 1   
    62   27   71 1   
    63   28   72 1   
    64   29   37 1   
    65   29   73 1   
    66   30   31 1   
    67   30   74 1   
    68   31   75 1   
    69   32   33 1   
    70   32   36 1   
    71   33   34 1   
    72   33   35 1   
    73   36   76 1   
    74   37   77 1   
@<TRIPOS>SUBSTRUCTURE
     1 0D6         1 TEMP              0 ****  ****    0 ROOT
