@<TRIPOS>MOLECULE
0D6
   77    79     1     0     0
SMALL
bcc


@<TRIPOS>ATOM
      1 N1          4.3220    3.1610   -0.5730 n         1 0D6     -0.423800
      2 C1          3.2970    2.5820    0.2350 c         1 0D6      0.738100
      3 O1          3.4260    2.5180    1.4820 o         1 0D6     -0.638100
      4 C2          5.5380    3.5410    0.1340 c3        1 0D6      0.029000
      5 C3          6.6590    2.4810    0.0830 c3        1 0D6      0.121300
      6 N4          6.9290    1.9440   -1.2370 n3        1 0D6     -0.795200
      7 C5          5.7160    1.5680   -1.9340 c3        1 0D6      0.121300
      8 C6          4.5900    2.6280   -1.8960 c3        1 0D6      0.029000
      9 N           2.1150    2.1190   -0.3690 n         1 0D6     -0.538900
     10 CA          0.9560    1.8710    0.4620 c3        1 0D6      0.032700
     11 C           0.1670    0.6980   -0.1790 c         1 0D6      0.658100
     12 O          -0.3670    0.8330   -1.3000 o         1 0D6     -0.626100
     13 CB          0.0010    3.0710    0.5880 c3        1 0D6     -0.104400
     14 CG         -1.0040    2.8770    1.7140 c3        1 0D6     -0.064700
     15 CD1        -0.3830    3.1580    3.0670 c3        1 0D6     -0.094100
     16 CD2        -2.2030    3.7790    1.4960 c3        1 0D6     -0.094100
     17 C21        -1.9880   -1.8470    0.5100 c3        1 0D6     -0.069400
     18 C31        -0.5420   -1.6650    0.0140 c3        1 0D6      0.105700
     19 N2          0.0960   -0.4740    0.5310 n         1 0D6     -0.558900
     20 C4          0.2390   -2.9430    0.3630 c3        1 0D6     -0.091400
     21 C51         1.6010   -2.9810   -0.3030 c3        1 0D6     -0.037100
     22 C1'         2.2770   -4.2890   -0.0860 ca        1 0D6     -0.083300
     23 C2'         1.8190   -5.4370   -0.7450 ca        1 0D6     -0.127000
     24 C3'         2.4550   -6.6610   -0.5520 ca        1 0D6     -0.127500
     25 C4'         3.5570   -6.7500    0.3000 ca        1 0D6     -0.131000
     26 C5'         4.0190   -5.6110    0.9570 ca        1 0D6     -0.127500
     27 C6'         3.3830   -4.3850    0.7660 ca        1 0D6     -0.127000
     28 C12        -6.2960    2.4220   -1.9690 ca        1 0D6     -0.064000
     29 C22        -5.7060    1.3960   -2.7070 ca        1 0D6     -0.155500
     30 C32        -5.1520    0.3000   -2.0510 ca        1 0D6     -0.015500
     31 C41        -5.1760    0.2110   -0.6520 ca        1 0D6     -0.385500
     32 S1         -4.5350   -1.1230    0.1320 sy        1 0D6      1.383300
     33 O11        -4.7190   -2.2770   -0.6450 o         1 0D6     -0.657800
     34 O2         -4.9920   -1.1630    1.4590 o         1 0D6     -0.657800
     35 C52        -5.7790    1.2460    0.0740 ca        1 0D6     -0.015500
     36 C61        -6.3350    2.3450   -0.5760 ca        1 0D6     -0.155500
     37 H21         5.8960    4.4910   -0.3550 h1        1 0D6      0.066450
     38 H22         5.3000    3.7630    1.2120 h1        1 0D6      0.066450
     39 H31         7.5990    2.9410    0.4900 h1        1 0D6      0.064450
     40 H32         6.3740    1.6180    0.7490 h1        1 0D6      0.064450
     41 HN4         7.4390    2.6180   -1.7800 hn        1 0D6      0.350800
     42 H51         5.9630    1.3560   -3.0100 h1        1 0D6      0.064450
     43 H52         5.3390    0.6150   -1.4680 h1        1 0D6      0.064450
     44 H61         3.6750    2.1770   -2.3640 h1        1 0D6      0.066450
     45 H62         4.8950    3.5090   -2.5320 h1        1 0D6      0.066450
     46 H           1.9000    2.4210   -1.2940 hn        1 0D6      0.313500
     47 HA          1.3230    1.5970    1.4970 h1        1 0D6      0.101700
     48 HB2         0.5960    4.0010    0.7850 hc        1 0D6      0.062200
     49 HB3        -0.5430    3.2070   -0.3850 hc        1 0D6      0.062200
     50 HG         -1.3600    1.8060    1.6980 hc        1 0D6      0.042700
     51 HD11       -1.1230    2.9580    3.8790 hc        1 0D6      0.037867
     52 HD12        0.5130    2.5140    3.2370 hc        1 0D6      0.037867
     53 HD13       -0.0640    4.2260    3.1360 hc        1 0D6      0.037867
     54 HD21       -2.7120    3.5270    0.5340 hc        1 0D6      0.037867
     55 HD22       -2.9350    3.6550    2.3300 hc        1 0D6      0.037867
     56 HD23       -1.8850    4.8480    1.4590 hc        1 0D6      0.037867
     57 H11        -2.6840    0.1680    0.8180 h1        1 0D6      0.123200
     58 H12        -2.5530   -0.3140   -0.8890 h1        1 0D6      0.123200
     59 H211       -1.9980   -1.9780    1.6230 hc        1 0D6      0.064200
     60 H221       -2.3830   -2.7930    0.0470 hc        1 0D6      0.064200
     61 H3         -0.5770   -1.5630   -1.1150 h1        1 0D6      0.082700
     62 HN2         0.5360   -0.5400    1.4170 hn        1 0D6      0.317500
     63 H41         0.3540   -3.0370    1.4740 hc        1 0D6      0.056200
     64 H42        -0.3660   -3.8220    0.0150 hc        1 0D6      0.056200
     65 H511        1.4790   -2.8060   -1.4070 hc        1 0D6      0.052700
     66 H521        2.2430   -2.1500    0.0940 hc        1 0D6      0.052700
     67 H2'         0.9510   -5.3670   -1.4190 ha        1 0D6      0.131500
     68 H3'         2.0880   -7.5570   -1.0730 ha        1 0D6      0.132000
     69 H4'         4.0590   -7.7170    0.4510 ha        1 0D6      0.131000
     70 H5'         4.8880   -5.6780    1.6280 ha        1 0D6      0.132000
     71 H6'         3.7550   -3.4890    1.2860 ha        1 0D6      0.131500
     72 H2         -5.6790    1.4510   -3.8060 ha        1 0D6      0.142500
     73 H33        -4.6980   -0.5190   -2.6350 ha        1 0D6      0.155000
     74 H5         -5.8220    1.1760    1.1760 ha        1 0D6      0.155000
     75 H6         -6.8070    3.1490    0.0090 ha        1 0D6      0.142500
     76 C11        -2.8800   -0.6910    0.1210 c3        1 0D6     -0.320600
     77 H1         -6.7340    3.2910   -2.4850 ha        1 0D6      0.138000
@<TRIPOS>BOND
     1    1    2 1   
     2    1    4 1   
     3    1    8 1   
     4    2    3 2   
     5    2    9 1   
     6    4    5 1   
     7    4   37 1   
     8    4   38 1   
     9    5    6 1   
    10    5   39 1   
    11    5   40 1   
    12    6    7 1   
    13    6   41 1   
    14    7    8 1   
    15    7   42 1   
    16    7   43 1   
    17    8   44 1   
    18    8   45 1   
    19    9   10 1   
    20    9   46 1   
    21   10   11 1   
    22   10   13 1   
    23   10   47 1   
    24   11   12 2   
    25   11   19 1   
    26   13   14 1   
    27   13   48 1   
    28   13   49 1   
    29   14   15 1   
    30   14   16 1   
    31   14   50 1   
    32   15   51 1   
    33   15   52 1   
    34   15   53 1   
    35   16   54 1   
    36   16   55 1   
    37   16   56 1   
    38   17   18 1   
    39   17   59 1   
    40   17   60 1   
    41   17   76 1   
    42   18   19 1   
    43   18   20 1   
    44   18   61 1   
    45   19   62 1   
    46   20   21 1   
    47   20   63 1   
    48   20   64 1   
    49   21   22 1   
    50   21   65 1   
    51   21   66 1   
    52   22   23 ar  
    53   22   27 ar  
    54   23   24 ar  
    55   23   67 1   
    56   24   25 ar  
    57   24   68 1   
    58   25   26 ar  
    59   25   69 1   
    60   26   27 ar  
    61   26   70 1   
    62   27   71 1   
    63   28   29 ar  
    64   28   36 ar  
    65   28   77 1   
    66   29   30 ar  
    67   29   72 1   
    68   30   31 ar  
    69   30   73 1   
    70   31   32 1   
    71   31   35 ar  
    72   32   33 2   
    73   32   34 2   
    74   32   76 1   
    75   35   36 ar  
    76   35   74 1   
    77   36   75 1   
    78   57   76 1   
    79   58   76 1   
@<TRIPOS>SUBSTRUCTURE
     1 0D6         1 TEMP              0 ****  ****    0 ROOT
