@<TRIPOS>MOLECULE
0D8
   15    14     1     0     0
SMALL
bcc


@<TRIPOS>ATOM
      1 OH          0.0260    0.0060    0.0520 oh        1 0D8     -0.588800
      2 N3          3.9790   -0.0010    2.8410 n4        1 0D8     -0.838600
      3 CA3         3.4390   -0.0020    1.4480 c3        1 0D8      0.102800
      4 C7          1.9190    0.0020    1.4230 c3        1 0D8     -0.126400
      5 C8          1.4380   -0.0010   -0.0260 c3        1 0D8      0.143400
      6 H3          3.6540    0.8340    3.3430 hn        1 0D8      0.463467
      7 HA21        3.8360   -0.9220    0.9280 hx        1 0D8      0.114700
      8 HA3         3.8410    0.9130    0.9240 hx        1 0D8      0.114700
      9 H14         1.8060    0.9120   -0.5660 h1        1 0D8      0.039700
     10 H24         1.7980   -0.9200   -0.5610 h1        1 0D8      0.039700
     11 H89         1.5010   -0.9020    1.9400 hc        1 0D8      0.087700
     12 H99         1.5060    0.9100    1.9360 hc        1 0D8      0.087700
     13 H2         -0.3080    0.0040   -0.8550 ho        1 0D8      0.433000
     14 H1          5.0030   -0.0030    2.8220 hn        1 0D8      0.463467
     15 H33         3.6500   -0.8310    3.3470 hn        1 0D8      0.463467
@<TRIPOS>BOND
     1    1    5 1   
     2    1   13 1   
     3    2    3 1   
     4    2    6 1   
     5    2   14 1   
     6    2   15 1   
     7    3    4 1   
     8    3    7 1   
     9    3    8 1   
    10    4    5 1   
    11    4   11 1   
    12    4   12 1   
    13    5    9 1   
    14    5   10 1   
@<TRIPOS>SUBSTRUCTURE
     1 0D8         1 TEMP              0 ****  ****    0 ROOT
