@<TRIPOS>MOLECULE
0D8
   14    13     1     0     0
SMALL
bcc


@<TRIPOS>ATOM
      1 OH          2.3450   -0.3610    0.0500 oh        1 0D8     -0.600800
      2 N3         -2.4920   -0.2740   -0.0860 n3        1 0D8     -0.914800
      3 CA3        -1.2690    0.4850    0.0250 c3        1 0D8      0.160800
      4 C7         -0.0150   -0.3840   -0.0180 c3        1 0D8     -0.088400
      5 C8          1.2190    0.5010    0.0120 c3        1 0D8      0.132400
      6 H3         -2.4940   -1.0520    0.5420 hn        1 0D8      0.350300
      7 HA21       -1.2450    1.2050   -0.8440 h1        1 0D8      0.023700
      8 HA3        -1.2300    1.1070    0.9690 h1        1 0D8      0.023700
      9 H14         1.2140    1.1600    0.9230 h1        1 0D8      0.020700
     10 H24         1.2620    1.1510   -0.9030 h1        1 0D8      0.020700
     11 H89         0.0110   -1.0840    0.8570 hc        1 0D8      0.062200
     12 H99         0.0000   -1.0100   -0.9470 hc        1 0D8      0.062200
     13 H2          3.1250    0.2050    0.0290 ho        1 0D8      0.400000
     14 H1         -3.2810    0.3090    0.1070 hn        1 0D8      0.350300
@<TRIPOS>BOND
     1    1    5 1   
     2    1   13 1   
     3    2    3 1   
     4    2    6 1   
     5    2   14 1   
     6    3    4 1   
     7    3    7 1   
     8    3    8 1   
     9    4    5 1   
    10    4   11 1   
    11    4   12 1   
    12    5    9 1   
    13    5   10 1   
@<TRIPOS>SUBSTRUCTURE
     1 0D8         1 TEMP              0 ****  ****    0 ROOT
