@<TRIPOS>MOLECULE
0D8
   15    14     1     0     0
SMALL
bcc


@<TRIPOS>ATOM
      1 OH          0.0250    0.0010    0.0530 oh        1 0D8     -0.588800
      2 N3          3.9790   -0.0010    2.8410 n4        1 0D8     -0.838600
      3 CA3         3.4390   -0.0000    1.4480 c3        1 0D8      0.102800
      4 C7          1.9200   -0.0000    1.4230 c3        1 0D8     -0.126400
      5 C8          1.4380    0.0010   -0.0250 c3        1 0D8      0.143400
      6 H3          3.6530   -0.8340    3.3440 hn        1 0D8      0.463467
      7 HA21        3.8390   -0.9170    0.9250 hx        1 0D8      0.114700
      8 HA3         3.8380    0.9180    0.9260 hx        1 0D8      0.114700
      9 H14         1.8020   -0.9150   -0.5640 h1        1 0D8      0.039700
     10 H24         1.8010    0.9170   -0.5630 h1        1 0D8      0.039700
     11 H89         1.5030   -0.9070    1.9380 hc        1 0D8      0.087700
     12 H99         1.5030    0.9060    1.9390 hc        1 0D8      0.087700
     13 H2         -0.3090    0.0010   -0.8540 ho        1 0D8      0.433000
     14 H1          3.6530    0.8310    3.3450 hn        1 0D8      0.463467
     15 H33         5.0040   -0.0010    2.8210 hn        1 0D8      0.463467
@<TRIPOS>BOND
     1    1    5 1   
     2    1   13 1   
     3    2    3 1   
     4    2    6 1   
     5    2   14 1   
     6    2   15 1   
     7    3    4 1   
     8    3    7 1   
     9    3    8 1   
    10    4    5 1   
    11    4   11 1   
    12    4   12 1   
    13    5    9 1   
    14    5   10 1   
@<TRIPOS>SUBSTRUCTURE
     1 0D8         1 TEMP              0 ****  ****    0 ROOT
