@<TRIPOS>MOLECULE
0D8
   14    13     1     0     0
SMALL
bcc


@<TRIPOS>ATOM
      1 OH         -2.3810   -0.0000   -1.1000 oh        1 0D8     -0.600800
      2 N3          1.5220   -0.0000    1.6710 n3        1 0D8     -0.914800
      3 CA3         1.0470   -0.0000    0.3260 c3        1 0D8      0.160800
      4 C7         -0.4660   -0.0000    0.3260 c3        1 0D8     -0.088400
      5 C8         -0.9710   -0.0000   -1.1000 c3        1 0D8      0.132400
      6 H3          2.0280    0.7440    1.8140 hn        1 0D8      0.350300
      7 HA21        1.3720   -0.7970   -0.1340 h1        1 0D8      0.023700
      8 HA3         1.3720    0.7970   -0.1340 h1        1 0D8      0.023700
      9 H14        -0.6450   -0.7950   -1.5640 h1        1 0D8      0.020700
     10 H24        -0.6450    0.7990   -1.5560 h1        1 0D8      0.020700
     11 H89        -0.7920    0.7970    0.7870 hc        1 0D8      0.062200
     12 H99        -0.7920   -0.7970    0.7870 hc        1 0D8      0.062200
     13 H2         -2.6770   -0.0000   -1.9370 ho        1 0D8      0.400000
     14 H1          2.0280   -0.7450    1.8140 hn        1 0D8      0.350300
@<TRIPOS>BOND
     1    1    5 1   
     2    1   13 1   
     3    2    3 1   
     4    2    6 1   
     5    2   14 1   
     6    3    4 1   
     7    3    7 1   
     8    3    8 1   
     9    4    5 1   
    10    4   11 1   
    11    4   12 1   
    12    5    9 1   
    13    5   10 1   
@<TRIPOS>SUBSTRUCTURE
     1 0D8         1 TEMP              0 ****  ****    0 ROOT
