@<TRIPOS>MOLECULE
0DB
   65    68     1     0     0
SMALL
bcc


@<TRIPOS>ATOM
      1 CA          1.9790   -1.3830   -1.1120 c3        1 0DB     -0.182700
      2 CB1         3.1640   -0.6280   -0.5380 c3        1 0DB     -0.043400
      3 CG          3.8610    0.1860   -1.6170 c3        1 0DB     -0.065100
      4 CD          5.1210    0.8040   -1.1230 ca        1 0DB     -0.036300
      5 CE1         6.3660    0.2780   -1.4940 ca        1 0DB     -0.133000
      6 CE2         5.0820    1.9280   -0.2870 ca        1 0DB     -0.133000
      7 CZ1         7.5450    0.8680   -1.0420 ca        1 0DB     -0.141500
      8 CZ2         6.2620    2.5150    0.1650 ca        1 0DB     -0.141500
      9 CH          7.4970    1.9880   -0.2130 ca        1 0DB     -0.165000
     10 CB2         2.5030   -2.4080   -2.1580 c         1 0DB      0.907600
     11 OG1         2.8450   -3.5640   -1.7720 o         1 0DB     -0.859300
     12 OG2         2.5850   -2.0360   -3.3660 o         1 0DB     -0.859300
     13 CH2         1.1770   -2.1480   -0.0760 c3        1 0DB     -0.037400
     14 CA1         0.4880   -1.4480    1.0950 c3        1 0DB     -0.109000
     15 CB11       -0.2960   -2.5310    1.8760 c3        1 0DB     -0.076900
     16 CB21        1.4790   -0.8700    2.1190 c3        1 0DB     -0.076900
     17 CG1        -0.0940   -2.2830    3.3640 c3        1 0DB     -0.088400
     18 CG2         0.9470   -1.1820    3.5110 c3        1 0DB     -0.088400
     19 C          -0.4670   -0.3220    0.6600 c         1 0DB      0.656100
     20 O          -0.4880    0.1190   -0.5110 o         1 0DB     -0.648100
     21 N          -1.3480    0.1490    1.6160 n         1 0DB     -0.527900
     22 CA2        -2.0180    1.4290    1.5270 c3        1 0DB     -0.043300
     23 C1         -1.7060    2.3460    2.7700 c         1 0DB      0.904600
     24 O1         -1.1870    1.8260    3.7980 o         1 0DB     -0.841300
     25 CB         -3.5510    1.3120    1.4710 c3        1 0DB     -0.010200
     26 CG3        -4.1030    0.7230    0.2440 cc        1 0DB     -0.117400
     27 CD1        -3.4560    0.4890   -0.9660 cd        1 0DB     -0.091100
     28 CD2        -5.4780    0.2840    0.0740 ca        1 0DB     -0.081800
     29 NE1        -4.3540   -0.0340   -1.9130 na        1 0DB     -0.196400
     30 CE21       -5.5870   -0.2190   -1.2830 ca        1 0DB     -0.060200
     31 CE3        -6.5990    0.2620    0.8990 ca        1 0DB     -0.084000
     32 CZ21       -6.8000   -0.7300   -1.7650 ca        1 0DB     -0.156000
     33 CZ3        -7.7940   -0.2490    0.4060 ca        1 0DB     -0.182000
     34 CH21       -7.8900   -0.7380   -0.9050 ca        1 0DB     -0.140000
     35 OXT        -2.0180    3.5630    2.6630 o         1 0DB     -0.841300
     36 HA1         1.3080   -0.6550   -1.6440 hc        1 0DB      0.074700
     37 HB11        2.8280    0.0740    0.2680 hc        1 0DB      0.025200
     38 HB12        3.8840   -1.3580   -0.0850 hc        1 0DB      0.025200
     39 HG1         4.0630   -0.4830   -2.5020 hc        1 0DB      0.075700
     40 HG2         3.1640    0.9930   -1.9700 hc        1 0DB      0.075700
     41 HE1         6.4020   -0.6110   -2.1430 ha        1 0DB      0.142500
     42 HE2         4.1070    2.3390    0.0170 ha        1 0DB      0.142500
     43 HZ1         8.5150    0.4450   -1.3380 ha        1 0DB      0.111000
     44 HZ2         6.2190    3.3940    0.8230 ha        1 0DB      0.111000
     45 HH          8.4270    2.4510    0.1430 ha        1 0DB      0.104000
     46 HH21        0.3720   -2.6890   -0.6470 hc        1 0DB      0.046200
     47 HH22        1.8600   -2.9320    0.3580 hc        1 0DB      0.046200
     48 HB13       -1.3800   -2.5200    1.6040 hc        1 0DB      0.048950
     49 HB14        0.0960   -3.5460    1.6080 hc        1 0DB      0.048950
     50 HB21        2.4820   -1.3460    1.9730 hc        1 0DB      0.048950
     51 HB22        1.5990    0.2340    1.9870 hc        1 0DB      0.048950
     52 HG11       -1.0560   -1.9790    3.8500 hc        1 0DB      0.038450
     53 HG12        0.2480   -3.2200    3.8700 hc        1 0DB      0.038450
     54 HG21        1.7770   -1.5070    4.1860 hc        1 0DB      0.038450
     55 HG22        0.4840   -0.2640    3.9640 hc        1 0DB      0.038450
     56 H          -1.1510   -0.1060    2.5650 hn        1 0DB      0.314500
     57 HA         -1.6650    1.9690    0.6030 h1        1 0DB      0.066700
     58 HB2        -3.9140    0.7210    2.3550 hc        1 0DB      0.055200
     59 HB3        -3.9470    2.3610    1.5830 hc        1 0DB      0.055200
     60 HD1        -2.4010    0.6580   -1.2260 h4        1 0DB      0.222000
     61 HE11       -4.0720   -0.5130   -2.7270 hn        1 0DB      0.286700
     62 HE3        -6.5270    0.6450    1.9280 ha        1 0DB      0.133000
     63 HZ21       -6.8840   -1.1150   -2.7890 ha        1 0DB      0.115000
     64 HZ3        -8.6820   -0.2730    1.0520 ha        1 0DB      0.107000
     65 HH2        -8.8510   -1.1390   -1.2580 ha        1 0DB      0.103000
@<TRIPOS>BOND
     1    1    2 1   
     2    1   10 1   
     3    1   13 1   
     4    1   36 1   
     5    2    3 1   
     6    2   37 1   
     7    2   38 1   
     8    3    4 1   
     9    3   39 1   
    10    3   40 1   
    11    4    5 ar  
    12    4    6 ar  
    13    5    7 ar  
    14    5   41 1   
    15    6    8 ar  
    16    6   42 1   
    17    7    9 ar  
    18    7   43 1   
    19    8    9 ar  
    20    8   44 1   
    21    9   45 1   
    22   10   11 1   
    23   10   12 1   
    24   13   14 1   
    25   13   46 1   
    26   13   47 1   
    27   14   15 1   
    28   14   16 1   
    29   14   19 1   
    30   15   17 1   
    31   15   48 1   
    32   15   49 1   
    33   16   18 1   
    34   16   50 1   
    35   16   51 1   
    36   17   18 1   
    37   17   52 1   
    38   17   53 1   
    39   18   54 1   
    40   18   55 1   
    41   19   20 2   
    42   19   21 1   
    43   21   22 1   
    44   21   56 1   
    45   22   23 1   
    46   22   25 1   
    47   22   57 1   
    48   23   24 1   
    49   23   35 1   
    50   25   26 1   
    51   25   58 1   
    52   25   59 1   
    53   26   27 2   
    54   26   28 1   
    55   27   29 1   
    56   27   60 1   
    57   28   30 ar  
    58   28   31 ar  
    59   29   30 1   
    60   29   61 1   
    61   30   32 ar  
    62   31   33 ar  
    63   31   62 1   
    64   32   34 ar  
    65   32   63 1   
    66   33   34 ar  
    67   33   64 1   
    68   34   65 1   
@<TRIPOS>SUBSTRUCTURE
     1 0DB         1 TEMP              0 ****  ****    0 ROOT
