@<TRIPOS>MOLECULE
0DB
   65    61     1     0     0
SMALL
bcc


@<TRIPOS>ATOM
      1 CA         -0.7480   -0.8310    1.9740 c3        1 0DB     -0.172000
      2 CB1        -1.5190   -1.2560    3.2040 c3        1 0DB     -0.129000
      3 CG         -1.3650   -0.2060    4.2840 c3        1 0DB     -0.140000
      4 CD         -1.5780   -0.8430    5.6410 c2        1 0DB     -0.041000
      5 CE1        -0.5460   -1.5400    6.2490 c2        1 0DB     -0.114000
      6 CE2        -2.8050   -0.7270    6.2760 c1        1 0DB     -0.149000
      7 CZ1        -0.7410   -2.1210    7.4920 c1        1 0DB     -0.142000
      8 CZ2        -3.0000   -1.3080    7.5190 c1        1 0DB     -0.160500
      9 CH         -1.9670   -2.0060    8.1270 c1        1 0DB     -0.160500
     10 CB2         0.4140    0.0440    2.3850 c2        1 0DB      0.326000
     11 OG1         1.4300   -0.4700    2.9220 o         1 0DB     -0.592500
     12 OG2         0.3570    1.2890    2.2100 o         1 0DB     -0.592500
     13 CH2        -0.2270   -2.0570    1.2550 c3        1 0DB     -0.117000
     14 CA1        -0.4040   -1.8800   -0.2420 c3        1 0DB     -0.060000
     15 CB11        0.1400   -3.1900   -1.0070 c3        1 0DB     -0.155500
     16 CB21       -2.0260   -1.9110   -0.6180 c3        1 0DB     -0.155500
     17 CG1        -0.9530   -3.8790   -1.3840 c3        1 0DB     -0.164500
     18 CG2        -2.1550   -2.8020   -1.5710 c3        1 0DB     -0.164500
     19 C           0.3310   -0.5950   -0.4680 c2        1 0DB      0.304000
     20 O           0.2170    0.3170    0.3250 o         1 0DB     -0.413000
     21 N           1.1170   -0.4230   -1.6430 n         1 0DB     -0.359000
     22 CA2         1.4450    0.8840   -2.0920 c3        1 0DB     -0.041000
     23 C1          0.1760    1.6540   -2.3730 c2        1 0DB      0.330000
     24 O1         -0.6870    1.1800   -3.1580 o         1 0DB     -0.579000
     25 CB          2.2690    0.7900   -3.3590 c3        1 0DB     -0.093000
     26 CG3         2.6030    2.1820   -3.8490 c2        1 0DB     -0.106000
     27 CD1         3.7860    2.7610   -3.4370 c1        1 0DB     -0.085000
     28 CD2         1.9550    3.0780   -4.6700 c1        1 0DB     -0.065000
     29 NE1         3.8680    4.0030   -4.0000 n2        1 0DB     -0.220000
     30 CE21        2.7340    4.2030   -4.7660 c1        1 0DB     -0.025000
     31 CE3         0.7430    3.0000   -5.3800 c1        1 0DB     -0.067000
     32 CZ21        2.3210    5.2780   -5.5730 c1        1 0DB     -0.169000
     33 CZ3         0.3360    4.0610   -6.1760 c1        1 0DB     -0.160500
     34 CH21        1.1250    5.2000   -6.2720 c1        1 0DB     -0.160500
     35 OXT         0.0000    2.7870   -1.8530 o         1 0DB     -0.579000
     36 HA1        -1.3370   -0.3300    1.3780 hc        1 0DB      0.112000
     37 HB11       -1.1700   -2.1100    3.5280 hc        1 0DB      0.068500
     38 HB12       -2.4650   -1.3550    2.9780 hc        1 0DB      0.068500
     39 HG1        -0.4660    0.1770    4.2410 hc        1 0DB      0.101000
     40 HG2        -2.0270    0.5010    4.1470 hc        1 0DB      0.101000
     41 HE1         0.3170   -1.6210    5.8020 ha        1 0DB      0.214000
     42 HE2        -3.5310   -0.2370    5.8480 ha        1 0DB      0.117000
     43 HZ1        -0.0200   -2.6260    7.9130 ha        1 0DB      0.117000
     44 HZ2        -3.8700   -1.2460    7.9560 ha        1 0DB      0.102500
     45 HH         -2.1100   -2.4310    8.9940 ha        1 0DB      0.102500
     46 HH21        0.7220   -2.1760    1.4600 hc        1 0DB      0.086000
     47 HH22       -0.7260   -2.8460    1.5520 hc        1 0DB      0.086000
     48 HB13        0.6880   -3.7310   -0.4030 hc        1 0DB      0.086500
     49 HB14        0.6610   -2.9280   -1.7930 hc        1 0DB      0.086500
     50 HB21       -2.5500   -2.1760    0.1660 hc        1 0DB      0.086500
     51 HB22       -2.3150   -1.0310   -0.9370 hc        1 0DB      0.086500
     52 HG11       -1.1930   -4.5300   -0.6920 hc        1 0DB      0.075750
     53 HG12       -0.7820   -4.3390   -2.2310 hc        1 0DB      0.075750
     54 HG21       -2.0820   -2.3690   -2.4470 hc        1 0DB      0.075750
     55 HG22       -3.0220   -3.2520   -1.4930 hc        1 0DB      0.075750
     56 H           1.4050   -1.1500   -2.1090 hn        1 0DB      0.243000
     57 HA          1.9610    1.3460   -1.4010 h1        1 0DB      0.088000
     58 HB2         3.0970    0.3020   -3.1740 hc        1 0DB      0.091000
     59 HB3         1.7590    0.3160   -4.0460 hc        1 0DB      0.091000
     60 HD1         4.4600    2.3440   -2.8660 DU        1 0DB      0.210000
     61 HE11        4.5520    4.5970   -3.8910 DU        1 0DB      0.210000
     62 HE3         0.1890    2.2000   -5.3120 ha        1 0DB      0.201000
     63 HZ21        2.8750    6.0780   -5.6400 ha        1 0DB      0.108000
     64 HZ3        -0.5050    4.0070   -6.6670 ha        1 0DB      0.102500
     65 HH2         0.8380    5.9460   -6.8320 ha        1 0DB      0.102500
@<TRIPOS>BOND
     1    1    2 1   
     2    1   10 1   
     3    1   13 1   
     4    1   36 1   
     5    2    3 1   
     6    2   37 1   
     7    2   38 1   
     8    3    4 1   
     9    3   39 1   
    10    3   40 1   
    11    4    5 1   
    12    4    6 1   
    13    5    7 1   
    14    5   41 1   
    15    6   42 1   
    16    7   43 1   
    17    8    9 1   
    18    8   44 1   
    19    9   45 1   
    20   10   11 1   
    21   10   12 1   
    22   13   14 1   
    23   13   46 1   
    24   13   47 1   
    25   14   15 1   
    26   14   16 1   
    27   14   19 1   
    28   15   17 1   
    29   15   48 1   
    30   15   49 1   
    31   16   18 1   
    32   16   50 1   
    33   16   51 1   
    34   17   18 1   
    35   17   52 1   
    36   17   53 1   
    37   18   54 1   
    38   18   55 1   
    39   19   20 1   
    40   19   21 1   
    41   21   22 1   
    42   21   56 1   
    43   22   23 1   
    44   22   25 1   
    45   22   57 1   
    46   23   24 1   
    47   23   35 1   
    48   25   26 1   
    49   25   58 1   
    50   25   59 1   
    51   26   27 1   
    52   26   28 1   
    53   27   29 1   
    54   28   31 1   
    55   29   30 1   
    56   30   32 1   
    57   31   62 1   
    58   32   63 1   
    59   33   34 1   
    60   33   64 1   
    61   34   65 1   
@<TRIPOS>SUBSTRUCTURE
     1 0DB         1 TEMP              0 ****  ****    0 ROOT
