@<TRIPOS>MOLECULE
0DC
   32    32     1     0     0
SMALL
bcc


@<TRIPOS>ATOM
      1 OP3        -4.1010   -4.4360   -1.8470 o         1 0DC     -0.929500
      2 P          -3.2730   -3.9650   -0.6750 p5        1 0DC      1.563500
      3 OP1        -4.1510   -3.8490    0.5480 o         1 0DC     -0.929500
      4 OP2        -2.1680   -4.9580   -0.4080 o         1 0DC     -0.929500
      5 O5'        -2.6440   -2.5540   -1.0080 os        1 0DC     -0.715000
      6 C5'        -2.3150   -1.6970    0.0600 c3        1 0DC      0.074000
      7 C4'        -1.8930   -0.3500   -0.4850 c3        1 0DC     -0.061000
      8 O4'        -0.3180   -0.3640   -0.8380 os        1 0DC     -0.298000
      9 C3'        -2.0570    0.5610    0.4110 c3        1 0DC      0.042000
     10 O3'        -3.3720    1.2260    0.2330 oh        1 0DC     -0.396000
     11 C2'        -0.8950    1.5820    0.1670 c3        1 0DC     -0.208000
     12 C1'         0.0710    0.8810   -0.8090 c3        1 0DC      0.145000
     13 N1          1.4230    0.9700   -0.3240 n         1 0DC     -0.261000
     14 C2          2.1220   -0.2360    0.1170 c2        1 0DC      0.342000
     15 O2          1.5290   -1.2940    0.1760 o         1 0DC     -0.391000
     16 N3          3.5410   -0.1740    0.4650 n2        1 0DC     -0.323000
     17 C4          4.2020    1.0810    0.5260 c1        1 0DC      0.188000
     18 N4          5.5810    1.1400    0.8560 n2        1 0DC     -0.336000
     19 C5          3.4820    2.3070    0.1530 c2        1 0DC     -0.377000
     20 C6          2.0760    2.2280   -0.2700 c2        1 0DC      0.101000
     21 H5'        -1.5780   -2.0860    0.5750 h1        1 0DC      0.035500
     22 H5''       -3.0950   -1.5840    0.6410 h1        1 0DC      0.035500
     23 H4'        -2.4130   -0.1330   -1.2840 h1        1 0DC      0.114000
     24 H3'        -1.9880    0.1740    1.3070 h1        1 0DC      0.138000
     25 HO3'       -3.6580    1.5310    1.0170 ho        1 0DC      0.299000
     26 H2'        -0.4390    1.7830    1.0090 hc        1 0DC      0.092500
     27 H2''       -1.2450    2.4030   -0.2340 hc        1 0DC      0.092500
     28 H1'         0.0030    1.2790   -1.7000 h2        1 0DC      0.127000
     29 H41         6.0160    1.9440    0.8550 hn        1 0DC      0.192000
     30 H42         6.0290    0.3780    1.0860 hn        1 0DC      0.192000
     31 H5          3.9330    3.1710    0.1940 ha        1 0DC      0.158000
     32 H6          1.5940    3.0400   -0.5190 h4        1 0DC      0.224000
@<TRIPOS>BOND
     1    1    2 1   
     2    2    3 1   
     3    2    4 1   
     4    2    5 1   
     5    5    6 1   
     6    6    7 1   
     7    6   21 1   
     8    6   22 1   
     9    7    8 1   
    10    7    9 1   
    11    7   23 1   
    12    8   12 1   
    13    9   10 1   
    14    9   11 1   
    15    9   24 1   
    16   10   25 1   
    17   11   12 1   
    18   11   26 1   
    19   11   27 1   
    20   12   13 1   
    21   12   28 1   
    22   13   14 1   
    23   13   20 1   
    24   14   15 1   
    25   14   16 1   
    26   16   17 1   
    27   17   19 1   
    28   18   29 1   
    29   18   30 1   
    30   19   20 1   
    31   19   31 1   
    32   20   32 1   
@<TRIPOS>SUBSTRUCTURE
     1 0DC         1 TEMP              0 ****  ****    0 ROOT
