@<TRIPOS>MOLECULE
0DC
   32    33     1     0     0
SMALL
bcc


@<TRIPOS>ATOM
      1 OP3         3.1050    2.5350   -0.6990 o         1 0DC     -0.923167
      2 P           3.1420    1.2800    0.1180 p5        1 0DC      1.310900
      3 OP1         3.5940    0.0090   -0.5510 o         1 0DC     -0.923167
      4 OP2         3.5120    1.4030    1.5690 o         1 0DC     -0.923167
      5 O5'         1.4230    0.8780    0.2590 os        1 0DC     -0.555200
      6 C5'         1.2230   -0.3070    0.9020 c3        1 0DC      0.227400
      7 C4'         0.9180   -1.4680   -0.0730 c3        1 0DC      0.040100
      8 O4'        -0.0770   -1.1310   -1.0680 os        1 0DC     -0.398600
      9 C3'         0.3290   -2.6720    0.6850 c3        1 0DC      0.109100
     10 O3'         0.7250   -3.9260    0.1510 oh        1 0DC     -0.622800
     11 C2'        -1.1930   -2.4920    0.5540 c3        1 0DC     -0.136400
     12 C1'        -1.3750   -1.4940   -0.6160 c3        1 0DC      0.295500
     13 N1         -2.1810   -0.3050   -0.2960 n         1 0DC     -0.371000
     14 C2         -3.6110   -0.4420   -0.2470 c         1 0DC      0.817900
     15 O2         -4.1050   -1.5830   -0.4280 o         1 0DC     -0.686500
     16 N3         -4.4280    0.6730   -0.0200 nc        1 0DC     -0.761100
     17 C4         -3.8350    1.8700    0.1690 cd        1 0DC      0.713500
     18 N4         -4.6250    2.9850    0.4880 nh        1 0DC     -0.898800
     19 C5         -2.4050    2.0440    0.0950 cd        1 0DC     -0.468600
     20 C6         -1.6180    0.9320   -0.1480 cc        1 0DC      0.102600
     21 H5'         2.1330   -0.6070    1.4990 h1        1 0DC     -0.005300
     22 H5''        0.3320   -0.2200    1.5990 h1        1 0DC     -0.005300
     23 H4'         1.8460   -1.6870   -0.6760 h1        1 0DC      0.150700
     24 H3'         0.6600   -2.6960    1.7560 h1        1 0DC      0.081700
     25 HO3'        0.8770   -3.7950   -0.7920 ho        1 0DC      0.402000
     26 H2'        -1.6970   -3.4550    0.3060 hc        1 0DC      0.058700
     27 H2''       -1.6190   -2.1030    1.5090 hc        1 0DC      0.058700
     28 H1'        -1.8900   -1.9890   -1.4930 h2        1 0DC      0.069700
     29 H41        -5.5950    2.9140    0.2770 hn        1 0DC      0.394300
     30 H42        -4.2110    3.8520    0.2330 hn        1 0DC      0.394300
     31 H5         -1.9290    3.0190    0.2390 ha        1 0DC      0.163000
     32 H6         -0.4920    1.0190   -0.2390 h4        1 0DC      0.289000
@<TRIPOS>BOND
     1    1    2 1   
     2    2    3 1   
     3    2    4 1   
     4    2    5 1   
     5    5    6 1   
     6    6    7 1   
     7    6   21 1   
     8    6   22 1   
     9    7    8 1   
    10    7    9 1   
    11    7   23 1   
    12    8   12 1   
    13    9   10 1   
    14    9   11 1   
    15    9   24 1   
    16   10   25 1   
    17   11   12 1   
    18   11   26 1   
    19   11   27 1   
    20   12   13 1   
    21   12   28 1   
    22   13   14 1   
    23   13   20 1   
    24   14   15 2   
    25   14   16 1   
    26   16   17 2   
    27   17   18 1   
    28   17   19 1   
    29   18   29 1   
    30   18   30 1   
    31   19   20 2   
    32   19   31 1   
    33   20   32 1   
@<TRIPOS>SUBSTRUCTURE
     1 0DC         1 TEMP              0 ****  ****    0 ROOT
