@<TRIPOS>MOLECULE
0DF
   28    30     1     0     0
SMALL
bcc


@<TRIPOS>ATOM
      1 O1         -0.0760    0.1510   -0.0550 o         1 0DF     -0.615500
      2 C3          1.1630    0.0860   -0.0240 c         1 0DF      0.788500
      3 N1          2.0010    0.4000    1.1030 n         1 0DF     -0.331000
      4 C7          1.5220    0.3170    2.4460 c3        1 0DF      0.082300
      5 C2          3.3320    0.1190    0.7220 ca        1 0DF     -0.122700
      6 C6          4.5400    0.1890    1.3990 ca        1 0DF     -0.078000
      7 C5          5.7080   -0.1060    0.6700 cp        1 0DF     -0.151300
      8 C4          5.6030   -0.4590   -0.6930 ca        1 0DF      0.406200
      9 N3          4.4520   -0.5420   -1.3930 nb        1 0DF     -0.657000
     10 C1          3.3330   -0.2540   -0.6950 ca        1 0DF      0.478200
     11 N2          1.9940   -0.2350   -1.1330 ns        1 0DF     -0.536400
     12 C8          7.0150   -0.0510    1.3150 cp        1 0DF     -0.035000
     13 C13         7.1830   -0.5280    2.6240 ca        1 0DF     -0.119000
     14 C12         8.4330   -0.4750    3.2370 ca        1 0DF     -0.128000
     15 C11         9.5270    0.0550    2.5540 ca        1 0DF     -0.124000
     16 C10         9.3680    0.5330    1.2530 ca        1 0DF     -0.128000
     17 C9          8.1200    0.4810    0.6350 ca        1 0DF     -0.119000
     18 H1          1.6360   -0.7180    2.8700 h1        1 0DF      0.055700
     19 H2          2.1080    1.0360    3.0790 h1        1 0DF      0.055700
     20 H3          0.4360    0.6020    2.4560 h1        1 0DF      0.055700
     21 H4          4.5930    0.4720    2.4590 ha        1 0DF      0.152000
     22 H5          6.5110   -0.7020   -1.2760 h4        1 0DF      0.032100
     23 H6          1.6640   -0.5440   -2.0100 hn        1 0DF      0.365500
     24 H7          6.3240   -0.9540    3.1640 ha        1 0DF      0.134000
     25 H8          8.5550   -0.8550    4.2620 ha        1 0DF      0.134500
     26 H9         10.5130    0.0970    3.0400 ha        1 0DF      0.134000
     27 H10        10.2280    0.9540    0.7120 ha        1 0DF      0.134500
     28 H11         7.9980    0.8670   -0.3890 ha        1 0DF      0.134000
@<TRIPOS>BOND
     1    1    2 2   
     2    2    3 1   
     3    2   11 1   
     4    3    4 1   
     5    3    5 1   
     6    4   18 1   
     7    4   19 1   
     8    4   20 1   
     9    5    6 ar  
    10    5   10 ar  
    11    6    7 ar  
    12    6   21 1   
    13    7    8 ar  
    14    7   12 1   
    15    8    9 ar  
    16    8   22 1   
    17    9   10 ar  
    18   10   11 1   
    19   11   23 1   
    20   12   13 ar  
    21   12   17 ar  
    22   13   14 ar  
    23   13   24 1   
    24   14   15 ar  
    25   14   25 1   
    26   15   16 ar  
    27   15   26 1   
    28   16   17 ar  
    29   16   27 1   
    30   17   28 1   
@<TRIPOS>SUBSTRUCTURE
     1 0DF         1 TEMP              0 ****  ****    0 ROOT
