@<TRIPOS>MOLECULE
0DF
   28    30     1     0     0
SMALL
bcc


@<TRIPOS>ATOM
      1 O1         -4.9310   -0.2900    0.1510 o         1 0DF     -0.615500
      2 C3         -3.7190   -0.0300    0.0860 c         1 0DF      0.788500
      3 N1         -2.6410   -0.9300    0.4020 n         1 0DF     -0.331000
      4 C7         -2.7930   -2.3480    0.3220 c3        1 0DF      0.082300
      5 C2         -1.4360   -0.2490    0.1200 ca        1 0DF     -0.122700
      6 C6         -0.1030   -0.6260    0.1910 ca        1 0DF     -0.078000
      7 C5          0.8630    0.3550   -0.1050 cp        1 0DF     -0.151300
      8 C4          0.4430    1.6550   -0.4600 ca        1 0DF      0.406200
      9 N3         -0.8400    2.0680   -0.5450 nb        1 0DF     -0.657000
     10 C1         -1.7650    1.1280   -0.2560 ca        1 0DF      0.478200
     11 N2         -3.1690    1.2420   -0.2380 n         1 0DF     -0.536400
     12 C8          2.2850    0.0330   -0.0480 cp        1 0DF     -0.035000
     13 C13         2.7530   -1.2010   -0.5230 ca        1 0DF     -0.119000
     14 C12         4.1120   -1.5050   -0.4690 ca        1 0DF     -0.128000
     15 C11         5.0160   -0.5850    0.0600 ca        1 0DF     -0.124000
     16 C10         4.5580    0.6430    0.5350 ca        1 0DF     -0.128000
     17 C9          3.2000    0.9530    0.4820 ca        1 0DF     -0.119000
     18 H1         -3.8470   -2.6100    0.6060 h1        1 0DF      0.055700
     19 H2         -2.5830   -2.7360   -0.7120 h1        1 0DF      0.055700
     20 H3         -2.0760   -2.8250    1.0420 h1        1 0DF      0.055700
     21 H4          0.1960   -1.6440    0.4770 ha        1 0DF      0.152000
     22 H5          1.1900    2.4340   -0.7040 h4        1 0DF      0.032100
     23 H6         -3.6940    2.0170   -0.5480 hn        1 0DF      0.365500
     24 H7          2.0440   -1.9270   -0.9490 ha        1 0DF      0.134000
     25 H8          4.4700   -2.4740   -0.8470 ha        1 0DF      0.134500
     26 H9          6.0880   -0.8270    0.1020 ha        1 0DF      0.134000
     27 H10         5.2680    1.3710    0.9560 ha        1 0DF      0.134500
     28 H11         2.8420    1.9210    0.8660 ha        1 0DF      0.134000
@<TRIPOS>BOND
     1    1    2 2   
     2    2    3 1   
     3    2   11 1   
     4    3    4 1   
     5    3    5 1   
     6    4   18 1   
     7    4   19 1   
     8    4   20 1   
     9    5    6 ar  
    10    5   10 ar  
    11    6    7 ar  
    12    6   21 1   
    13    7    8 ar  
    14    7   12 1   
    15    8    9 ar  
    16    8   22 1   
    17    9   10 ar  
    18   10   11 1   
    19   11   23 1   
    20   12   13 ar  
    21   12   17 ar  
    22   13   14 ar  
    23   13   24 1   
    24   14   15 ar  
    25   14   25 1   
    26   15   16 ar  
    27   15   26 1   
    28   16   17 ar  
    29   16   27 1   
    30   17   28 1   
@<TRIPOS>SUBSTRUCTURE
     1 0DF         1 TEMP              0 ****  ****    0 ROOT
