@<TRIPOS>MOLECULE
0DF
   28    24     1     0     0
SMALL
bcc


@<TRIPOS>ATOM
      1 O1         -5.3090   -0.0050   -0.9770 o         1 0DF     -0.340000
      2 C3         -4.0940   -0.0050   -0.9770 c1        1 0DF      0.378000
      3 N1         -3.2660   -0.0050    0.1630 n2        1 0DF     -0.232000
      4 C7         -3.7060    0.0220    1.5170 c3        1 0DF     -0.074000
      5 C2         -1.8950   -0.0050   -0.2830 c2        1 0DF     -0.051000
      6 C6         -0.7000   -0.0050    0.4050 c1        1 0DF     -0.078000
      7 C5          0.4850   -0.0050   -0.2820 c1        1 0DF     -0.061000
      8 C4          0.4830   -0.0050   -1.6770 c1        1 0DF     -0.088500
      9 N3         -0.7020   -0.0050   -2.3600 n1        1 0DF     -0.132000
     10 C1         -1.8950   -0.0050   -1.6710 c2        1 0DF      0.071000
     11 N2         -3.2660   -0.0050   -2.1170 n3        1 0DF     -0.304000
     12 C8          1.9370   -0.0050    0.1450 c1        1 0DF     -0.061000
     13 C13         2.5980    1.1960    0.3520 c1        1 0DF     -0.125000
     14 C12         3.9280    1.1960    0.7420 c1        1 0DF     -0.125000
     15 C11         4.5970   -0.0040    0.9250 c1        1 0DF     -0.125000
     16 C10         3.9360   -1.2040    0.7180 c1        1 0DF     -0.125000
     17 C9          2.6060   -1.2050    0.3270 c1        1 0DF     -0.088500
     18 H1         -4.6770   -0.0650    1.5450 h1        1 0DF      0.095333
     19 H2         -3.4430    0.8680    1.9280 h1        1 0DF      0.095333
     20 H3         -3.2980   -0.7170    2.0060 h1        1 0DF      0.095333
     21 H4         -0.6980   -0.0050    1.3820 ha        1 0DF      0.152000
     22 H5          1.3270   -0.0050   -2.1670 ha        1 0DF      0.151500
     23 H6         -3.5480   -0.0070   -2.9840 hn        1 0DF      0.279000
     24 H7          2.1270    2.0410    0.2230 ha        1 0DF      0.134750
     25 H8          4.3930    2.0420    0.8890 ha        1 0DF      0.134750
     26 H9          5.5330   -0.0040    1.2000 ha        1 0DF      0.134750
     27 H10         4.4070   -2.0490    0.8470 ha        1 0DF      0.134750
     28 H11         2.1400   -2.0500    0.1810 ha        1 0DF      0.151500
@<TRIPOS>BOND
     1    1    2 1   
     2    2   11 1   
     3    3    4 1   
     4    3    5 1   
     5    4   18 1   
     6    4   19 1   
     7    4   20 1   
     8    5    6 1   
     9    5   10 1   
    10    6   21 1   
    11    7    8 1   
    12    7   12 1   
    13    8   22 1   
    14    9   10 1   
    15   10   11 1   
    16   11   23 1   
    17   12   17 1   
    18   13   14 1   
    19   13   24 1   
    20   14   25 1   
    21   15   16 1   
    22   15   26 1   
    23   16   27 1   
    24   17   28 1   
@<TRIPOS>SUBSTRUCTURE
     1 0DF         1 TEMP              0 ****  ****    0 ROOT
