@<TRIPOS>MOLECULE
0DF
   28    30     1     0     0
SMALL
bcc


@<TRIPOS>ATOM
      1 O1         -0.0740    0.1470   -0.0680 o         1 0DF     -0.615500
      2 C3          1.1650    0.0820   -0.0340 c         1 0DF      0.788500
      3 N1          2.0020    0.4020    1.0930 n         1 0DF     -0.331000
      4 C7          1.5200    0.3270    2.4360 c3        1 0DF      0.082300
      5 C2          3.3330    0.1170    0.7170 ca        1 0DF     -0.122700
      6 C6          4.5390    0.1910    1.3960 ca        1 0DF     -0.078000
      7 C5          5.7090   -0.1090    0.6720 cp        1 0DF     -0.151300
      8 C4          5.6070   -0.4690   -0.6890 ca        1 0DF      0.406200
      9 N3          4.4570   -0.5560   -1.3920 nb        1 0DF     -0.657000
     10 C1          3.3370   -0.2630   -0.6980 ca        1 0DF      0.478200
     11 N2          1.9990   -0.2460   -1.1390 n         1 0DF     -0.536400
     12 C8          7.0150   -0.0510    1.3200 cp        1 0DF     -0.035000
     13 C13         7.1790   -0.5210    2.6310 ca        1 0DF     -0.119000
     14 C12         8.4280   -0.4660    3.2470 ca        1 0DF     -0.128000
     15 C11         9.5240    0.0600    2.5630 ca        1 0DF     -0.124000
     16 C10         9.3680    0.5310    1.2600 ca        1 0DF     -0.128000
     17 C9          8.1220    0.4760    0.6390 ca        1 0DF     -0.119000
     18 H1          1.6320   -0.7050    2.8660 h1        1 0DF      0.055700
     19 H2          2.1040    1.0490    3.0660 h1        1 0DF      0.055700
     20 H3          0.4330    0.6120    2.4410 h1        1 0DF      0.055700
     21 H4          4.5900    0.4800    2.4550 ha        1 0DF      0.152000
     22 H5          6.5160   -0.7160   -1.2690 h4        1 0DF      0.032100
     23 H6          1.6710   -0.5600   -2.0150 hn        1 0DF      0.365500
     24 H7          6.3190   -0.9440    3.1720 ha        1 0DF      0.134000
     25 H8          8.5480   -0.8400    4.2740 ha        1 0DF      0.134500
     26 H9         10.5090    0.1040    3.0510 ha        1 0DF      0.134000
     27 H10        10.2300    0.9490    0.7190 ha        1 0DF      0.134500
     28 H11         8.0020    0.8560   -0.3870 ha        1 0DF      0.134000
@<TRIPOS>BOND
     1    1    2 2   
     2    2    3 1   
     3    2   11 1   
     4    3    4 1   
     5    3    5 1   
     6    4   18 1   
     7    4   19 1   
     8    4   20 1   
     9    5    6 ar  
    10    5   10 ar  
    11    6    7 ar  
    12    6   21 1   
    13    7    8 ar  
    14    7   12 1   
    15    8    9 ar  
    16    8   22 1   
    17    9   10 ar  
    18   10   11 1   
    19   11   23 1   
    20   12   13 ar  
    21   12   17 ar  
    22   13   14 ar  
    23   13   24 1   
    24   14   15 ar  
    25   14   25 1   
    26   15   16 ar  
    27   15   26 1   
    28   16   17 ar  
    29   16   27 1   
    30   17   28 1   
@<TRIPOS>SUBSTRUCTURE
     1 0DF         1 TEMP              0 ****  ****    0 ROOT
