@<TRIPOS>MOLECULE
0DG
   35    34     1     0     0
SMALL
bcc


@<TRIPOS>ATOM
      1 OP3        -5.1260    1.9790    0.6790 o         1 0DG     -0.930167
      2 P          -3.8970    2.4360    1.4280 p5        1 0DG      1.565500
      3 OP1        -3.7090    1.5790    2.6570 o         1 0DG     -0.930167
      4 OP2        -4.0670    3.8790    1.8420 o         1 0DG     -0.930167
      5 O5'        -2.6300    2.3020    0.4930 os        1 0DG     -0.715000
      6 C5'        -1.4170    2.8780    0.9190 c3        1 0DG      0.079000
      7 C4'        -0.2880    2.3840    0.0400 c3        1 0DG     -0.058000
      8 O4'        -0.2890    0.7710   -0.0090 os        1 0DG     -0.290000
      9 C3'         0.8470    2.7320    0.5420 c3        1 0DG      0.047000
     10 O3'         1.3120    4.0010   -0.0720 oh        1 0DG     -0.401000
     11 C2'         1.8250    1.5640    0.1790 c3        1 0DG     -0.208000
     12 C1'         0.9250    0.4170   -0.3270 c3        1 0DG      0.160000
     13 N9          1.2730   -0.8160    0.3280 n3        1 0DG     -0.137000
     14 C8          1.6200   -1.1630    1.5930 c1        1 0DG     -0.036000
     15 N7          1.5450   -2.5150    1.6930 n2        1 0DG     -0.105000
     16 C5          1.1530   -3.0030    0.4940 c1        1 0DG     -0.221000
     17 C6          0.8860   -4.4060    0.0110 c1        1 0DG      0.392000
     18 O6          1.0730   -5.3490    0.7530 o         1 0DG     -0.367000
     19 N1          0.4690   -4.6240   -1.3070 n3        1 0DG     -0.338000
     20 C2          0.2980   -3.5220   -2.1900 c2        1 0DG      0.149000
     21 N2         -0.1420   -3.7410   -3.5210 n3        1 0DG     -0.305000
     22 N3          0.5540   -2.1790   -1.7280 n1        1 0DG     -0.196000
     23 C4          0.9840   -1.9490   -0.3530 c1        1 0DG      0.001000
     24 H5'        -1.4790    3.8530    0.8550 h1        1 0DG      0.035000
     25 H5''       -1.2430    2.6220    1.8490 h1        1 0DG      0.035000
     26 H4'        -0.3810    2.7480   -0.8620 h1        1 0DG      0.122000
     27 H3'         0.7760    2.8280    1.5120 h1        1 0DG      0.145000
     28 HO3'        1.7320    4.4900    0.5410 ho        1 0DG      0.301000
     29 H2'         2.4420    1.8460   -0.5250 hc        1 0DG      0.093500
     30 H2''        2.3210    1.2800    0.9720 hc        1 0DG      0.093500
     31 H1'         1.0090    0.3220   -1.2960 h2        1 0DG      0.106000
     32 H8          1.8780   -0.5490    2.3070 DU        1 0DG      0.255000
     33 H1          0.3310   -5.4740   -1.6060 hn        1 0DG      0.236000
     34 H21        -0.2740   -3.0310   -4.0820 hn        1 0DG      0.177500
     35 H22        -0.3110   -4.5920   -3.8130 hn        1 0DG      0.177500
@<TRIPOS>BOND
     1    1    2 1   
     2    2    3 1   
     3    2    4 1   
     4    2    5 1   
     5    5    6 1   
     6    6    7 1   
     7    6   24 1   
     8    6   25 1   
     9    7    8 1   
    10    7    9 1   
    11    7   26 1   
    12    8   12 1   
    13    9   10 1   
    14    9   11 1   
    15    9   27 1   
    16   10   28 1   
    17   11   12 1   
    18   11   29 1   
    19   11   30 1   
    20   12   13 1   
    21   12   31 1   
    22   13   14 1   
    23   13   23 1   
    24   14   15 1   
    25   15   16 1   
    26   16   23 1   
    27   17   18 1   
    28   17   19 1   
    29   19   20 1   
    30   19   33 1   
    31   20   21 1   
    32   20   22 1   
    33   21   34 1   
    34   21   35 1   
@<TRIPOS>SUBSTRUCTURE
     1 0DG         1 TEMP              0 ****  ****    0 ROOT
