@<TRIPOS>MOLECULE
0DG
   35    37     1     0     0
SMALL
bcc


@<TRIPOS>ATOM
      1 OP3         3.9640    1.4090   -1.4530 o         1 0DG     -0.930167
      2 P           4.6250    0.0890   -1.1070 p5        1 0DG      1.331900
      3 OP1         4.1690   -1.0630   -1.9540 o         1 0DG     -0.930167
      4 OP2         6.0590    0.1400   -0.6800 o         1 0DG     -0.930167
      5 O5'         3.7640   -0.2220    0.3830 os        1 0DG     -0.553200
      6 C5'         2.4130   -0.3380    0.2210 c3        1 0DG      0.229400
      7 C4'         1.7000    0.9700    0.6440 c3        1 0DG      0.053100
      8 O4'         0.4620    0.6560    1.3390 os        1 0DG     -0.433600
      9 C3'         1.3560    1.9020   -0.5350 c3        1 0DG      0.158100
     10 O3'         2.0620    3.1190   -0.4460 oh        1 0DG     -0.673800
     11 C2'        -0.1450    2.1980   -0.3980 c3        1 0DG     -0.129400
     12 C1'        -0.6560    1.2100    0.6710 c3        1 0DG      0.251800
     13 N9         -1.4840    0.1260    0.1310 na        1 0DG     -0.181900
     14 C8         -1.0540   -1.1020   -0.4120 cc        1 0DG      0.452400
     15 N7         -2.0760   -1.9160   -0.7660 nd        1 0DG     -0.631000
     16 C5         -3.2290   -1.2060   -0.4390 cd        1 0DG      0.196800
     17 C6         -4.6260   -1.5510   -0.5890 c         1 0DG      0.645000
     18 O6         -5.1310   -2.5890   -1.0530 o         1 0DG     -0.642500
     19 N1         -5.5230   -0.5540   -0.1250 n         1 0DG     -0.498400
     20 C2         -5.0820    0.6770    0.4020 cd        1 0DG      0.595800
     21 N2         -6.1180    1.6180    0.7460 nh        1 0DG     -0.866800
     22 N3         -3.7960    1.0200    0.5690 nc        1 0DG     -0.623100
     23 C4         -2.8780    0.0770    0.1290 cc        1 0DG      0.050800
     24 H5'         2.1530   -0.5870   -0.8490 h1        1 0DG     -0.004300
     25 H5''        2.0160   -1.1580    0.8920 h1        1 0DG     -0.004300
     26 H4'         2.3290    1.5080    1.4020 h1        1 0DG      0.082700
     27 H3'         1.5910    1.4040   -1.5170 h1        1 0DG      0.105700
     28 HO3'        2.9760    2.9070   -0.7480 ho        1 0DG      0.502000
     29 H2'        -0.3030    3.2410   -0.0290 hc        1 0DG      0.054200
     30 H2''       -0.6650    2.0880   -1.3770 hc        1 0DG      0.054200
     31 H1'        -1.2840    1.7220    1.4580 h2        1 0DG      0.066700
     32 H8          0.0260   -1.3230   -0.5090 h5        1 0DG      0.118100
     33 H1         -6.4960   -0.7070   -0.2690 hn        1 0DG      0.322500
     34 H21        -6.6390    1.2900    1.5360 hn        1 0DG      0.382300
     35 H22        -5.7340    2.5240    0.9360 hn        1 0DG      0.382300
@<TRIPOS>BOND
     1    1    2 1   
     2    2    3 1   
     3    2    4 1   
     4    2    5 1   
     5    5    6 1   
     6    6    7 1   
     7    6   24 1   
     8    6   25 1   
     9    7    8 1   
    10    7    9 1   
    11    7   26 1   
    12    8   12 1   
    13    9   10 1   
    14    9   11 1   
    15    9   27 1   
    16   10   28 1   
    17   11   12 1   
    18   11   29 1   
    19   11   30 1   
    20   12   13 1   
    21   12   31 1   
    22   13   14 1   
    23   13   23 1   
    24   14   15 2   
    25   14   32 1   
    26   15   16 1   
    27   16   17 1   
    28   16   23 2   
    29   17   18 2   
    30   17   19 1   
    31   19   20 1   
    32   19   33 1   
    33   20   21 1   
    34   20   22 2   
    35   21   34 1   
    36   21   35 1   
    37   22   23 1   
@<TRIPOS>SUBSTRUCTURE
     1 0DG         1 TEMP              0 ****  ****    0 ROOT
