@<TRIPOS>MOLECULE
0DI
   49    51     1     0     0
SMALL
bcc


@<TRIPOS>ATOM
      1 C1         -0.0150    0.2470   -0.0530 c3        1 0DI      0.075000
      2 F1          0.6270    1.7680   -5.7710 f         1 0DI     -0.118900
      3 N1          1.4040    0.4130   -0.2420 n         1 0DI     -0.464800
      4 O1         -1.4160   -1.5020    3.3870 o         1 0DI     -0.619100
      5 CL1         5.2320   -0.1910    7.7720 cl        1 0DI     -0.039400
      6 C2         -0.3760   -0.9260    0.8890 c3        1 0DI      0.050500
      7 F2          0.5290   -2.2630   -2.0270 f         1 0DI     -0.142900
      8 N2          0.4170   -0.9470    2.1130 n         1 0DI     -0.421800
      9 O2          3.3070    0.0360   -1.4510 o         1 0DI     -0.556100
     10 C3          1.8360   -0.7000    1.9580 c3        1 0DI      0.050500
     11 N3         -0.0530   -2.2320    5.5760 n4        1 0DI     -0.839600
     12 C4          2.1490    0.4710    0.9920 c3        1 0DI      0.075000
     13 C5         -0.1900   -1.2570    3.2920 c         1 0DI      0.638100
     14 C6          0.6400   -1.3180    4.6030 c3        1 0DI      0.047500
     15 C7          0.7690    0.1000    5.1790 c3        1 0DI     -0.053100
     16 C8          1.4830    0.0880    6.4840 ca        1 0DI     -0.153300
     17 C9          2.8760   -0.0440    6.5140 ca        1 0DI     -0.122000
     18 C10         3.5490   -0.0270    7.7400 ca        1 0DI      0.024400
     19 C11         2.8370    0.1300    8.9370 ca        1 0DI     -0.095000
     20 C12         1.4500    0.2690    8.8980 ca        1 0DI     -0.105000
     21 C13         0.7720    0.2470    7.6790 ca        1 0DI     -0.148000
     22 C14         2.0660    0.0980   -1.4340 c         1 0DI      0.680700
     23 C15         1.2650   -0.0730   -2.6800 ca        1 0DI     -0.150600
     24 C16         0.5650   -1.2680   -2.9470 ca        1 0DI      0.121900
     25 C17        -0.1020   -1.4350   -4.1760 ca        1 0DI     -0.134000
     26 C18        -0.0830   -0.4200   -5.1220 ca        1 0DI     -0.120000
     27 C19         0.6100    0.7770   -4.8520 ca        1 0DI      0.126900
     28 C20         1.2900    0.9460   -3.6320 ca        1 0DI     -0.106000
     29 H1         -0.5290    0.0540   -1.0360 h1        1 0DI      0.082200
     30 H1A        -0.4230    1.2060    0.3780 h1        1 0DI      0.082200
     31 H2         -1.4700   -0.8460    1.1490 h1        1 0DI      0.074450
     32 H2A        -0.2030   -1.9020    0.3480 h1        1 0DI      0.074450
     33 H3          2.3160   -1.6430    1.5630 h1        1 0DI      0.074450
     34 H3A         2.3100   -0.4440    2.9450 h1        1 0DI      0.074450
     35 HN3         0.2020   -1.9640    6.5360 hn        1 0DI      0.471467
     36 HN3A        0.2130   -3.2020    5.4000 hn        1 0DI      0.471467
     37 H4          1.8990    1.4440    1.5040 h1        1 0DI      0.082200
     38 H4A         3.2570    0.4490    0.7780 h1        1 0DI      0.082200
     39 H6          1.6650   -1.7580    4.4240 hx        1 0DI      0.120700
     40 H7          1.3360    0.7220    4.4330 hc        1 0DI      0.100700
     41 H7A        -0.2510    0.5620    5.2860 hc        1 0DI      0.100700
     42 H9          3.4430   -0.1390    5.5750 ha        1 0DI      0.150000
     43 H11         3.3700    0.1550    9.9020 ha        1 0DI      0.173000
     44 H12         0.8890    0.4110    9.8360 ha        1 0DI      0.162000
     45 H13        -0.3190    0.3980    7.6610 ha        1 0DI      0.141000
     46 H17        -0.6330   -2.3780   -4.3780 ha        1 0DI      0.166000
     47 H18        -0.6010   -0.5430   -6.0860 ha        1 0DI      0.170000
     48 H20         1.8500    1.8750   -3.4410 ha        1 0DI      0.173000
     49 H33        -1.0760   -2.1400    5.4480 hn        1 0DI      0.471467
@<TRIPOS>BOND
     1    1    3 1   
     2    1    6 1   
     3    1   29 1   
     4    1   30 1   
     5    2   27 1   
     6    3   12 1   
     7    3   22 1   
     8    4   13 2   
     9    5   18 1   
    10    6    8 1   
    11    6   31 1   
    12    6   32 1   
    13    7   24 1   
    14    8   10 1   
    15    8   13 1   
    16    9   22 2   
    17   10   12 1   
    18   10   33 1   
    19   10   34 1   
    20   11   14 1   
    21   11   35 1   
    22   11   36 1   
    23   11   49 1   
    24   12   37 1   
    25   12   38 1   
    26   13   14 1   
    27   14   15 1   
    28   14   39 1   
    29   15   16 1   
    30   15   40 1   
    31   15   41 1   
    32   16   17 ar  
    33   16   21 ar  
    34   17   18 ar  
    35   17   42 1   
    36   18   19 ar  
    37   19   20 ar  
    38   19   43 1   
    39   20   21 ar  
    40   20   44 1   
    41   21   45 1   
    42   22   23 1   
    43   23   24 ar  
    44   23   28 ar  
    45   24   25 ar  
    46   25   26 ar  
    47   25   46 1   
    48   26   27 ar  
    49   26   47 1   
    50   27   28 ar  
    51   28   48 1   
@<TRIPOS>SUBSTRUCTURE
     1 0DI         1 TEMP              0 ****  ****    0 ROOT
