@<TRIPOS>MOLECULE
0DI
   49    51     1     0     0
SMALL
bcc


@<TRIPOS>ATOM
      1 C1         -0.0460    0.1950   -0.0570 c3        1 0DI      0.075000
      2 F1          0.5190    1.7710   -5.7680 f         1 0DI     -0.118900
      3 N1          1.3620    0.4290   -0.2450 n         1 0DI     -0.464800
      4 O1         -1.3650   -1.6250    3.3770 o         1 0DI     -0.619100
      5 CL1         5.2170   -0.0190    7.7640 cl        1 0DI     -0.039400
      6 C2         -0.3510   -0.9980    0.8800 c3        1 0DI      0.050500
      7 F2          0.6160   -2.2770   -2.0420 f         1 0DI     -0.142900
      8 N2          0.4410   -0.9860    2.1040 n         1 0DI     -0.421800
      9 O2          3.2810    0.1490   -1.4560 o         1 0DI     -0.556100
     10 C3          1.8470   -0.6720    1.9500 c3        1 0DI      0.050500
     11 N3          0.0300   -2.2930    5.5660 n4        1 0DI     -0.839600
     12 C4          2.1050    0.5160    0.9880 c3        1 0DI      0.075000
     13 C5         -0.1510   -1.3230    3.2830 c         1 0DI      0.638100
     14 C6          0.6810   -1.3480    4.5940 c3        1 0DI      0.047500
     15 C7          0.7450    0.0730    5.1720 c3        1 0DI     -0.053100
     16 C8          1.4600    0.0930    6.4760 ca        1 0DI     -0.153300
     17 C9          2.8570    0.0240    6.5070 ca        1 0DI     -0.122000
     18 C10         3.5280    0.0690    7.7330 ca        1 0DI      0.024400
     19 C11         2.8100    0.1930    8.9290 ca        1 0DI     -0.095000
     20 C12         1.4190    0.2700    8.8900 ca        1 0DI     -0.105000
     21 C13         0.7420    0.2180    7.6720 ca        1 0DI     -0.148000
     22 C14         2.0380    0.1520   -1.4390 c         1 0DI      0.680700
     23 C15         1.2460   -0.0520   -2.6860 ca        1 0DI     -0.150600
     24 C16         0.6040   -1.2770   -2.9580 ca        1 0DI      0.121900
     25 C17        -0.0560   -1.4700   -4.1870 ca        1 0DI     -0.134000
     26 C18        -0.0850   -0.4510   -5.1280 ca        1 0DI     -0.120000
     27 C19         0.5500    0.7760   -4.8540 ca        1 0DI      0.125900
     28 C20         1.2220    0.9710   -3.6330 ca        1 0DI     -0.106000
     29 H1         -0.5510   -0.0180   -1.0410 h1        1 0DI      0.082200
     30 H1A        -0.4990    1.1320    0.3780 h1        1 0DI      0.082200
     31 H2         -0.1320   -1.9620    0.3360 h1        1 0DI      0.074950
     32 H2A        -1.4480   -0.9710    1.1400 h1        1 0DI      0.074950
     33 H3          2.3100   -0.3990    2.9370 h1        1 0DI      0.074950
     34 H3A         2.3700   -1.5890    1.5500 h1        1 0DI      0.074950
     35 HN3        -0.9960   -2.2490    5.4380 hn        1 0DI      0.471467
     36 HN3A        0.3400   -3.2510    5.3890 hn        1 0DI      0.471467
     37 H4          3.2130    0.5480    0.7740 h1        1 0DI      0.082200
     38 H4A         1.8100    1.4740    1.5050 h1        1 0DI      0.082200
     39 H6          1.7250   -1.7410    4.4150 hx        1 0DI      0.120700
     40 H7          1.2840    0.7210    4.4260 hc        1 0DI      0.100700
     41 H7A        -0.2940    0.4890    5.2790 hc        1 0DI      0.100700
     42 H9          3.4280   -0.0460    5.5670 ha        1 0DI      0.150000
     43 H11         3.3420    0.2420    9.8940 ha        1 0DI      0.173000
     44 H12         0.8520    0.3850    9.8290 ha        1 0DI      0.162000
     45 H13        -0.3540    0.3200    7.6540 ha        1 0DI      0.141000
     46 H17        -0.5410   -2.4370   -4.3940 ha        1 0DI      0.166000
     47 H18        -0.5970   -0.5950   -6.0930 ha        1 0DI      0.170000
     48 H20         1.7380    1.9250   -3.4380 ha        1 0DI      0.173000
     49 H33         0.2730   -2.0160    6.5260 hn        1 0DI      0.471467
@<TRIPOS>BOND
     1    1    3 1   
     2    1    6 1   
     3    1   29 1   
     4    1   30 1   
     5    2   27 1   
     6    3   12 1   
     7    3   22 1   
     8    4   13 2   
     9    5   18 1   
    10    6    8 1   
    11    6   31 1   
    12    6   32 1   
    13    7   24 1   
    14    8   10 1   
    15    8   13 1   
    16    9   22 2   
    17   10   12 1   
    18   10   33 1   
    19   10   34 1   
    20   11   14 1   
    21   11   35 1   
    22   11   36 1   
    23   11   49 1   
    24   12   37 1   
    25   12   38 1   
    26   13   14 1   
    27   14   15 1   
    28   14   39 1   
    29   15   16 1   
    30   15   40 1   
    31   15   41 1   
    32   16   17 ar  
    33   16   21 ar  
    34   17   18 ar  
    35   17   42 1   
    36   18   19 ar  
    37   19   20 ar  
    38   19   43 1   
    39   20   21 ar  
    40   20   44 1   
    41   21   45 1   
    42   22   23 1   
    43   23   24 ar  
    44   23   28 ar  
    45   24   25 ar  
    46   25   26 ar  
    47   25   46 1   
    48   26   27 ar  
    49   26   47 1   
    50   27   28 ar  
    51   28   48 1   
@<TRIPOS>SUBSTRUCTURE
     1 0DI         1 TEMP              0 ****  ****    0 ROOT
