@<TRIPOS>MOLECULE
0DI
   48    48     1     0     0
SMALL
bcc


@<TRIPOS>ATOM
      1 C1         -1.1800   -0.9020   -2.9610 c3        1 0DI     -0.054500
      2 F1          5.2920   -3.2670   -3.5410 f         1 0DI     -0.096000
      3 N1          0.2630   -0.9370   -2.9570 n         1 0DI     -0.313000
      4 O1         -3.2510    0.2540    0.3820 o         1 0DI     -0.369000
      5 CL1        -5.0330    0.9300    6.3870 cl        1 0DI     -0.013000
      6 C2         -1.7150    0.2070   -2.1130 c3        1 0DI     -0.057500
      7 F2          2.5310    1.3960   -4.6570 f         1 0DI     -0.098000
      8 N2         -1.1480    0.2040   -0.8070 n         1 0DI     -0.309000
      9 O2          0.5120   -0.9690   -5.2550 o         1 0DI     -0.342000
     10 C3          0.3000    0.1710   -0.8040 c3        1 0DI     -0.057500
     11 N3         -1.7940   -0.7600    2.6210 n3        1 0DI     -0.338000
     12 C4          0.8340   -0.9390   -1.6510 c3        1 0DI     -0.054500
     13 C5         -1.9850    0.2290    0.4600 c2        1 0DI      0.302000
     14 C6         -1.3170    0.2940    1.8030 c3        1 0DI     -0.039000
     15 C7         -1.6350    1.6440    2.4740 c3        1 0DI     -0.162000
     16 C8         -1.8860    1.4210    3.9540 c2        1 0DI     -0.070000
     17 C9         -3.1910    1.3180    4.4350 c2        1 0DI     -0.133000
     18 C10        -3.4180    1.1870    5.8000 c2        1 0DI     -0.058000
     19 C11        -2.3330    1.1570    6.6960 c2        1 0DI     -0.124000
     20 C12        -1.0110    1.2610    6.2090 c1        1 0DI     -0.117000
     21 C13        -0.7860    1.3910    4.8630 c1        1 0DI     -0.125000
     22 C14         1.0570   -0.9710   -4.1620 c2        1 0DI      0.346000
     23 C15         2.5370   -0.9460   -4.0700 c2        1 0DI     -0.118000
     24 C16         3.2280    0.2440   -4.2840 c2        1 0DI      0.096000
     25 C17         4.6120    0.2490   -4.2760 c1        1 0DI     -0.143000
     26 C18         5.3170   -0.9500   -4.0540 c1        1 0DI     -0.130000
     27 C19         4.6190   -2.1410   -3.8400 c2        1 0DI      0.078000
     28 C20         3.2470   -2.1460   -3.8470 c2        1 0DI     -0.107000
     29 H1         -1.5020   -0.7720   -3.9090 h1        1 0DI      0.110000
     30 H1A        -1.5250   -1.7660   -2.6160 h1        1 0DI      0.110000
     31 H2         -2.7240    0.1030   -2.0340 h1        1 0DI      0.111750
     32 H2A        -1.5240    1.0340   -2.5310 h1        1 0DI      0.111750
     33 H3          0.6090    0.0490    0.0990 h1        1 0DI      0.111750
     34 H3A         0.6650    1.0830   -1.1680 h1        1 0DI      0.111750
     35 HN3        -1.2100   -0.8950    3.3120 hn        1 0DI      0.157000
     36 HN3A       -1.8610   -1.5100    2.1350 hn        1 0DI      0.157000
     37 H4          1.8270   -0.8370   -1.7320 h1        1 0DI      0.110000
     38 H4A         0.6400   -1.7760   -1.2270 h1        1 0DI      0.110000
     39 H6         -0.3500    0.2070    1.6930 h1        1 0DI      0.114000
     40 H7         -2.4270    2.0370    2.0600 hc        1 0DI      0.114500
     41 H7A        -0.8750    2.2510    2.3630 hc        1 0DI      0.114500
     42 H9         -3.9660    1.2220    3.7820 ha        1 0DI      0.146000
     43 H11        -2.4970    1.0630    7.6730 ha        1 0DI      0.149000
     44 H12        -0.2450    1.2400    6.8430 ha        1 0DI      0.140000
     45 H13         0.1670    1.4640    4.5120 ha        1 0DI      0.138000
     46 H17         5.1250    1.1280   -4.4340 ha        1 0DI      0.159000
     47 H18         6.2710   -0.9500   -4.0480 ha        1 0DI      0.159000
     48 H20         2.7340   -3.0040   -3.5770 ha        1 0DI      0.170000
@<TRIPOS>BOND
     1    1    3 1   
     2    1    6 1   
     3    1   29 1   
     4    1   30 1   
     5    2   27 1   
     6    3   12 1   
     7    3   22 1   
     8    4   13 1   
     9    5   18 1   
    10    6    8 1   
    11    6   31 1   
    12    6   32 1   
    13    7   24 1   
    14    8   10 1   
    15    8   13 1   
    16    9   22 1   
    17   10   12 1   
    18   10   33 1   
    19   10   34 1   
    20   11   14 1   
    21   11   35 1   
    22   11   36 1   
    23   12   37 1   
    24   12   38 1   
    25   13   14 1   
    26   14   15 1   
    27   14   39 1   
    28   15   16 1   
    29   15   40 1   
    30   15   41 1   
    31   16   17 1   
    32   16   21 1   
    33   17   18 1   
    34   17   42 1   
    35   18   19 1   
    36   19   20 1   
    37   19   43 1   
    38   20   44 1   
    39   21   45 1   
    40   22   23 1   
    41   23   24 1   
    42   23   28 1   
    43   24   25 1   
    44   25   46 1   
    45   26   27 1   
    46   26   47 1   
    47   27   28 1   
    48   28   48 1   
@<TRIPOS>SUBSTRUCTURE
     1 0DI         1 TEMP              0 ****  ****    0 ROOT
