@<TRIPOS>MOLECULE
0DI
   48    50     1     0     0
SMALL
bcc


@<TRIPOS>ATOM
      1 C1          2.1910    0.9780    0.6640 c3        1 0DI      0.072500
      2 F1          7.6880   -0.7250    1.8950 f         1 0DI     -0.130900
      3 N1          2.0840   -0.4600    0.7400 n         1 0DI     -0.454800
      4 O1         -0.8990    3.1760   -0.8710 o         1 0DI     -0.611100
      5 CL1        -6.1450   -2.7670    0.8100 cl        1 0DI     -0.090400
      6 C2          1.2860    1.6030   -0.4210 c3        1 0DI      0.067500
      7 F2          3.9110    0.0910   -2.0220 f         1 0DI     -0.129900
      8 N2         -0.0730    1.1040   -0.3920 n         1 0DI     -0.470800
      9 O2          2.9010   -2.5490    0.2690 o         1 0DI     -0.578100
     10 C3         -0.2240   -0.3230   -0.2470 c3        1 0DI      0.067500
     11 N3         -3.2150    2.0620   -2.0220 n3        1 0DI     -0.900800
     12 C4          0.7230   -0.9410    0.8110 c3        1 0DI      0.072500
     13 C5         -1.1100    1.9520   -0.7450 c         1 0DI      0.662100
     14 C6         -2.5370    1.3920   -0.9320 c3        1 0DI      0.115500
     15 C7         -3.2230    1.4890    0.4480 c3        1 0DI     -0.078100
     16 C8         -4.5740    0.8710    0.4280 ca        1 0DI     -0.077300
     17 C9         -4.7120   -0.5110    0.6060 ca        1 0DI     -0.122000
     18 C10        -5.9830   -1.0890    0.5920 ca        1 0DI      0.022400
     19 C11        -7.1240   -0.3010    0.4010 ca        1 0DI     -0.122000
     20 C12        -6.9800    1.0740    0.2250 ca        1 0DI     -0.116000
     21 C13        -5.7150    1.6590    0.2380 ca        1 0DI     -0.132000
     22 C14         3.1040   -1.3230    0.3570 c         1 0DI      0.674700
     23 C15         4.4780   -0.7700    0.1470 ca        1 0DI     -0.141600
     24 C16         4.8330   -0.1210   -1.0540 ca        1 0DI      0.132900
     25 C17         6.1570    0.3150   -1.2540 ca        1 0DI     -0.142000
     26 C18         7.1130    0.1150   -0.2680 ca        1 0DI     -0.128000
     27 C19         6.7560   -0.5300    0.9320 ca        1 0DI      0.112900
     28 C20         5.4390   -0.9770    1.1350 ca        1 0DI     -0.107000
     29 H1          1.9020    1.3930    1.6730 h1        1 0DI      0.069700
     30 H1A         3.2490    1.2880    0.4440 h1        1 0DI      0.069700
     31 H2          1.2750    2.7200   -0.2670 h1        1 0DI      0.062950
     32 H2A         1.7360    1.3890   -1.4350 h1        1 0DI      0.062950
     33 H3         -1.2720   -0.5690    0.0870 h1        1 0DI      0.062950
     34 H3A        -0.0400   -0.8240   -1.2410 h1        1 0DI      0.062950
     35 HN3        -4.2080    1.9800   -1.9070 hn        1 0DI      0.366300
     36 HN3A       -2.9630    3.0320   -2.0650 hn        1 0DI      0.366300
     37 H4          0.7020   -2.0600    0.6790 h1        1 0DI      0.069700
     38 H4A         0.3320   -0.6930    1.8390 h1        1 0DI      0.069700
     39 H6         -2.5000    0.3030   -1.2350 h1        1 0DI      0.076700
     40 H7         -2.5790    0.9680    1.2050 hc        1 0DI      0.065700
     41 H7A        -3.2920    2.5680    0.7520 hc        1 0DI      0.065700
     42 H9         -3.8180   -1.1360    0.7560 ha        1 0DI      0.144000
     43 H11        -8.1230   -0.7610    0.3910 ha        1 0DI      0.150000
     44 H12        -7.8720    1.7000    0.0760 ha        1 0DI      0.140000
     45 H13        -5.6120    2.7470    0.1050 ha        1 0DI      0.137000
     46 H17         6.4230    0.8130   -2.1990 ha        1 0DI      0.161000
     47 H18         8.1500    0.4520   -0.4170 ha        1 0DI      0.160000
     48 H20         5.1730   -1.4980    2.0680 ha        1 0DI      0.169000
@<TRIPOS>BOND
     1    1    3 1   
     2    1    6 1   
     3    1   29 1   
     4    1   30 1   
     5    2   27 1   
     6    3   12 1   
     7    3   22 1   
     8    4   13 2   
     9    5   18 1   
    10    6    8 1   
    11    6   31 1   
    12    6   32 1   
    13    7   24 1   
    14    8   10 1   
    15    8   13 1   
    16    9   22 2   
    17   10   12 1   
    18   10   33 1   
    19   10   34 1   
    20   11   14 1   
    21   11   35 1   
    22   11   36 1   
    23   12   37 1   
    24   12   38 1   
    25   13   14 1   
    26   14   15 1   
    27   14   39 1   
    28   15   16 1   
    29   15   40 1   
    30   15   41 1   
    31   16   17 ar  
    32   16   21 ar  
    33   17   18 ar  
    34   17   42 1   
    35   18   19 ar  
    36   19   20 ar  
    37   19   43 1   
    38   20   21 ar  
    39   20   44 1   
    40   21   45 1   
    41   22   23 1   
    42   23   24 ar  
    43   23   28 ar  
    44   24   25 ar  
    45   25   26 ar  
    46   25   46 1   
    47   26   27 ar  
    48   26   47 1   
    49   27   28 ar  
    50   28   48 1   
@<TRIPOS>SUBSTRUCTURE
     1 0DI         1 TEMP              0 ****  ****    0 ROOT
