@<TRIPOS>MOLECULE
0DI
   49    51     1     0     0
SMALL
bcc


@<TRIPOS>ATOM
      1 C1         -0.0220    0.2360   -0.0500 c3        1 0DI      0.075000
      2 F1          0.5980    1.7720   -5.7660 f         1 0DI     -0.118900
      3 N1          1.3950    0.4120   -0.2410 n         1 0DI     -0.464800
      4 O1         -1.4080   -1.5190    3.3910 o         1 0DI     -0.619100
      5 Cl1         5.2390   -0.1670    7.7660 cl        1 0DI     -0.039400
      6 C2         -0.3730   -0.9410    0.8910 c3        1 0DI      0.050500
      7 F2          0.5370   -2.2660   -2.0290 f         1 0DI     -0.142900
      8 N2          0.4210   -0.9570    2.1140 n         1 0DI     -0.421800
      9 O2          3.2990    0.0520   -1.4540 o         1 0DI     -0.556100
     10 C3          1.8380   -0.7020    1.9570 c3        1 0DI      0.050500
     11 N3         -0.0380   -2.2370    5.5800 nz        1 0DI     -0.839600
     12 C4          2.1420    0.4730    0.9910 c3        1 0DI      0.075000
     13 C5         -0.1830   -1.2680    3.2940 c         1 0DI      0.638100
     14 C6          0.6490   -1.3220    4.6040 c3        1 0DI      0.047500
     15 C7          0.7720    0.0970    5.1780 c3        1 0DI     -0.053100
     16 C8          1.4880    0.0920    6.4810 ca        1 0DI     -0.153300
     17 C9          2.8810   -0.0330    6.5100 ca        1 0DI     -0.122000
     18 C10         3.5550   -0.0110    7.7360 ca        1 0DI      0.024400
     19 C11         2.8440    0.1460    8.9320 ca        1 0DI     -0.095000
     20 C12         1.4570    0.2780    8.8950 ca        1 0DI     -0.105000
     21 C13         0.7770    0.2490    7.6770 ca        1 0DI     -0.148000
     22 C14         2.0570    0.1040   -1.4350 c         1 0DI      0.680700
     23 C15         1.2550   -0.0700   -2.6800 ca        1 0DI     -0.150600
     24 C16         0.5640   -1.2690   -2.9480 ca        1 0DI      0.121900
     25 C17        -0.1050   -1.4390   -4.1750 ca        1 0DI     -0.134000
     26 C18        -0.0950   -0.4220   -5.1190 ca        1 0DI     -0.120000
     27 C19         0.5900    0.7790   -4.8490 ca        1 0DI      0.125900
     28 C20         1.2710    0.9510   -3.6300 ca        1 0DI     -0.106000
     29 H1         -0.4360    1.1920    0.3830 h1        1 0DI      0.082200
     30 H1A        -0.5360    0.0410   -1.0330 h1        1 0DI      0.082200
     31 H2         -0.1940   -1.9150    0.3480 h1        1 0DI      0.074950
     32 H2A        -1.4670   -0.8690    1.1520 h1        1 0DI      0.074950
     33 H3          2.3130   -0.4450    2.9430 h1        1 0DI      0.074950
     34 H3A         2.3230   -1.6410    1.5590 h1        1 0DI      0.074950
     35 HN3         0.2320   -3.2070    5.4050 hn        1 0DI      0.471467
     36 HN3A        0.2170   -1.9670    6.5390 hn        1 0DI      0.471467
     37 H4          3.2500    0.4590    0.7760 h1        1 0DI      0.082200
     38 H4A         1.8870    1.4430    1.5060 h1        1 0DI      0.082200
     39 H6          1.6760   -1.7570    4.4250 hx        1 0DI      0.120700
     40 H7          1.3350    0.7200    4.4290 hc        1 0DI      0.100700
     41 H7A        -0.2500    0.5550    5.2840 hc        1 0DI      0.100700
     42 H9          3.4470   -0.1280    5.5700 ha        1 0DI      0.150000
     43 H11         3.3780    0.1760    9.8970 ha        1 0DI      0.173000
     44 H12         0.8960    0.4190    9.8340 ha        1 0DI      0.162000
     45 H13        -0.3140    0.3960    7.6600 ha        1 0DI      0.141000
     46 H17        -0.6290   -2.3860   -4.3780 ha        1 0DI      0.166000
     47 H18        -0.6130   -0.5470   -6.0830 ha        1 0DI      0.170000
     48 H20         1.8250    1.8830   -3.4380 ha        1 0DI      0.173000
     49 H33        -1.0620   -2.1510    5.4530 hn        1 0DI      0.471467
@<TRIPOS>BOND
     1    1    3 1   
     2    1    6 1   
     3    1   29 1   
     4    1   30 1   
     5    2   27 1   
     6    3   12 1   
     7    3   22 1   
     8    4   13 2   
     9    5   18 1   
    10    6    8 1   
    11    6   31 1   
    12    6   32 1   
    13    7   24 1   
    14    8   10 1   
    15    8   13 1   
    16    9   22 2   
    17   10   12 1   
    18   10   33 1   
    19   10   34 1   
    20   11   14 1   
    21   11   35 1   
    22   11   36 1   
    23   11   49 1   
    24   12   37 1   
    25   12   38 1   
    26   13   14 1   
    27   14   15 1   
    28   14   39 1   
    29   15   16 1   
    30   15   40 1   
    31   15   41 1   
    32   16   17 ar  
    33   16   21 ar  
    34   17   18 ar  
    35   17   42 1   
    36   18   19 ar  
    37   19   20 ar  
    38   19   43 1   
    39   20   21 ar  
    40   20   44 1   
    41   21   45 1   
    42   22   23 1   
    43   23   24 ar  
    44   23   28 ar  
    45   24   25 ar  
    46   25   26 ar  
    47   25   46 1   
    48   26   27 ar  
    49   26   47 1   
    50   27   28 ar  
    51   28   48 1   
@<TRIPOS>SUBSTRUCTURE
     1 0DI         1 TEMP              0 ****  ****    0 ROOT
