@<TRIPOS>MOLECULE
0DJ
   33    35     1     0     0
SMALL
bcc


@<TRIPOS>ATOM
      1 C1          0.1050    0.7430    0.0720 ca        1 0DJ      0.426200
      2 C2          1.4480    0.3150    0.0160 cp        1 0DJ     -0.213300
      3 C3          2.0910   -0.1140    1.1990 ca        1 0DJ     -0.076000
      4 C4          1.3500   -0.0970    2.3670 ca        1 0DJ     -0.104700
      5 C5         -0.0490    0.3650    2.3170 ca        1 0DJ      0.513200
      6 N6         -0.6560    0.7820    1.1850 nb        1 0DJ     -0.652000
      7 N7          1.6270   -0.5000    3.6840 n         1 0DJ     -0.341000
      8 C8          0.4670   -0.2070    4.4820 c         1 0DJ      0.796500
      9 N9         -0.5620    0.2750    3.6170 n         1 0DJ     -0.531400
     10 C10         2.9330   -0.6420    4.2440 c3        1 0DJ      0.084300
     11 O11         0.3510   -0.3870    5.7000 o         1 0DJ     -0.579500
     12 C12         2.1650    0.3160   -1.2500 cp        1 0DJ      0.006000
     13 C13         3.5140    0.6970   -1.3150 ca        1 0DJ     -0.050000
     14 C14         4.1940    0.6980   -2.5350 ca        1 0DJ     -0.114000
     15 C15         3.5480    0.3220   -3.7070 ca        1 0DJ     -0.103000
     16 C16         2.1980   -0.0640   -3.6580 ca        1 0DJ     -0.201600
     17 C17         1.5100   -0.0660   -2.4310 ca        1 0DJ     -0.039000
     18 C18         1.4290   -0.4740   -4.8240 c         1 0DJ      0.577700
     19 O19         0.2440   -0.7610   -4.9210 o         1 0DJ     -0.416100
     20 N20         2.1800   -0.5810   -6.1460 n4        1 0DJ     -0.763400
     21 H1         -0.4120    1.1000   -0.8380 h4        1 0DJ      0.027100
     22 H2          3.1340   -0.4600    1.1840 ha        1 0DJ      0.150000
     23 H3         -1.4630    0.5510    3.9160 hn        1 0DJ      0.379500
     24 H4          2.8310   -0.9900    5.3080 h1        1 0DJ      0.061700
     25 H5          3.5000   -1.4080    3.6510 h1        1 0DJ      0.061700
     26 H6          3.4990    0.3290    4.2250 h1        1 0DJ      0.061700
     27 H7          4.0390    1.0080   -0.3950 ha        1 0DJ      0.170000
     28 H8          5.2530    1.0060   -2.5690 ha        1 0DJ      0.168000
     29 H9          4.1180    0.3440   -4.6470 ha        1 0DJ      0.123000
     30 H10         0.4500   -0.3770   -2.3960 ha        1 0DJ      0.176000
     31 H11         1.5430   -0.9130   -6.8800 hn        1 0DJ      0.467467
     32 H12         2.5490    0.3370   -6.4100 hn        1 0DJ      0.467467
     33 H203        2.9590   -1.2380   -6.0500 hn        1 0DJ      0.467467
@<TRIPOS>BOND
     1    1    2 ar  
     2    1    6 ar  
     3    1   21 1   
     4    2    3 ar  
     5    2   12 1   
     6    3    4 ar  
     7    3   22 1   
     8    4    5 ar  
     9    4    7 1   
    10    5    6 ar  
    11    5    9 1   
    12    7    8 1   
    13    7   10 1   
    14    8    9 1   
    15    8   11 2   
    16    9   23 1   
    17   10   24 1   
    18   10   25 1   
    19   10   26 1   
    20   12   13 ar  
    21   12   17 ar  
    22   13   14 ar  
    23   13   27 1   
    24   14   15 ar  
    25   14   28 1   
    26   15   16 ar  
    27   15   29 1   
    28   16   17 ar  
    29   16   18 1   
    30   17   30 1   
    31   18   19 2   
    32   18   20 1   
    33   20   31 1   
    34   20   32 1   
    35   20   33 1   
@<TRIPOS>SUBSTRUCTURE
     1 0DJ         1 TEMP              0 ****  ****    0 ROOT
