@<TRIPOS>MOLECULE
0DJ
   33    35     1     0     0
SMALL
bcc


@<TRIPOS>ATOM
      1 C1          0.0970    0.7250    0.0690 ca        1 0DJ      0.426200
      2 C2          1.4440    0.3110    0.0150 cp        1 0DJ     -0.213300
      3 C3          2.0910   -0.1070    1.1990 ca        1 0DJ     -0.076000
      4 C4          1.3490   -0.0960    2.3670 ca        1 0DJ     -0.104700
      5 C5         -0.0540    0.3510    2.3150 ca        1 0DJ      0.513200
      6 N6         -0.6660    0.7580    1.1820 nb        1 0DJ     -0.652000
      7 N7          1.6300   -0.4920    3.6860 n         1 0DJ     -0.341000
      8 C8          0.4660   -0.2100    4.4820 c         1 0DJ      0.796500
      9 N9         -0.5680    0.2590    3.6150 ns        1 0DJ     -0.531400
     10 C10         2.9370   -0.6190    4.2460 c3        1 0DJ      0.084300
     11 O11         0.3510   -0.3880    5.7010 o         1 0DJ     -0.579500
     12 C12         2.1620    0.3160   -1.2510 cp        1 0DJ      0.006000
     13 C13         3.5070    0.7120   -1.3160 ca        1 0DJ     -0.050000
     14 C14         4.1880    0.7170   -2.5360 ca        1 0DJ     -0.114000
     15 C15         3.5470    0.3310   -3.7070 ca        1 0DJ     -0.103000
     16 C16         2.2000   -0.0690   -3.6570 ca        1 0DJ     -0.201600
     17 C17         1.5120   -0.0760   -2.4300 ca        1 0DJ     -0.039000
     18 C18         1.4360   -0.4900   -4.8220 c         1 0DJ      0.577700
     19 O19         0.2560   -0.7920   -4.9190 o         1 0DJ     -0.416100
     20 N20         2.1890   -0.5900   -6.1440 nz        1 0DJ     -0.763400
     21 H1         -0.4230    1.0740   -0.8420 h4        1 0DJ      0.027100
     22 H2          3.1380   -0.4420    1.1860 ha        1 0DJ      0.150000
     23 H3         -1.4720    0.5260    3.9130 hn        1 0DJ      0.379500
     24 H4          2.8380   -0.9650    5.3110 h1        1 0DJ      0.061700
     25 H5          3.5130   -1.3810    3.6550 h1        1 0DJ      0.061700
     26 H6          3.4930    0.3570    4.2250 h1        1 0DJ      0.061700
     27 H7          4.0280    1.0310   -0.3960 ha        1 0DJ      0.170000
     28 H8          5.2430    1.0360   -2.5690 ha        1 0DJ      0.168000
     29 H9          4.1170    0.3570   -4.6460 ha        1 0DJ      0.123000
     30 H10         0.4560   -0.3980   -2.3960 ha        1 0DJ      0.176000
     31 H11         1.5560   -0.9300   -6.8790 hn        1 0DJ      0.467467
     32 H12         2.5470    0.3320   -6.4100 hn        1 0DJ      0.467467
     33 H203        2.9760   -1.2380   -6.0480 hn        1 0DJ      0.467467
@<TRIPOS>BOND
     1    1    2 ar  
     2    1    6 ar  
     3    1   21 1   
     4    2    3 ar  
     5    2   12 1   
     6    3    4 ar  
     7    3   22 1   
     8    4    5 ar  
     9    4    7 1   
    10    5    6 ar  
    11    5    9 1   
    12    7    8 1   
    13    7   10 1   
    14    8    9 1   
    15    8   11 2   
    16    9   23 1   
    17   10   24 1   
    18   10   25 1   
    19   10   26 1   
    20   12   13 ar  
    21   12   17 ar  
    22   13   14 ar  
    23   13   27 1   
    24   14   15 ar  
    25   14   28 1   
    26   15   16 ar  
    27   15   29 1   
    28   16   17 ar  
    29   16   18 1   
    30   17   30 1   
    31   18   19 2   
    32   18   20 1   
    33   20   31 1   
    34   20   32 1   
    35   20   33 1   
@<TRIPOS>SUBSTRUCTURE
     1 0DJ         1 TEMP              0 ****  ****    0 ROOT
