@<TRIPOS>MOLECULE
0DJ
   32    34     1     0     0
SMALL
bcc


@<TRIPOS>ATOM
      1 C1         -0.3020    1.3150    0.6750 ca        1 0DJ      0.411200
      2 C2         -0.0800   -0.0070    0.2330 cp        1 0DJ     -0.157300
      3 C3         -1.1770   -0.7950   -0.1680 ca        1 0DJ     -0.078000
      4 C4         -2.4350   -0.2160   -0.1030 ca        1 0DJ     -0.120700
      5 C5         -2.5560    1.1640    0.3740 ca        1 0DJ      0.483200
      6 N6         -1.5060    1.9200    0.7590 nb        1 0DJ     -0.656000
      7 N7         -3.7200   -0.6690   -0.4710 n         1 0DJ     -0.334000
      8 C8         -4.6540    0.3660   -0.1190 c         1 0DJ      0.791500
      9 N9         -3.9240    1.4970    0.3400 n         1 0DJ     -0.538400
     10 C10        -4.0980   -2.0440   -0.5390 c3        1 0DJ      0.084300
     11 O11        -5.8880    0.3130   -0.2440 o         1 0DJ     -0.615500
     12 C12         1.2730   -0.5500    0.1930 cp        1 0DJ     -0.038000
     13 C13         1.5180   -1.8770    0.5760 ca        1 0DJ     -0.102000
     14 C14         2.8100   -2.3950    0.5320 ca        1 0DJ     -0.136000
     15 C15         3.8760   -1.5980    0.1160 ca        1 0DJ     -0.102000
     16 C16         3.6420   -0.2720   -0.2590 ca        1 0DJ     -0.137600
     17 C17         2.3440    0.2480   -0.2310 ca        1 0DJ     -0.069000
     18 C18         4.7390    0.6230   -0.7270 c         1 0DJ      0.668700
     19 O19         4.5570    1.4800   -1.6160 o         1 0DJ     -0.605100
     20 N20         5.9780    0.4930   -0.1460 n         1 0DJ     -0.673000
     21 H1          0.5490    1.9470    0.9940 h4        1 0DJ      0.034100
     22 H2         -1.0320   -1.8240   -0.5280 ha        1 0DJ      0.151000
     23 H3         -4.3280    2.3460    0.6390 hn        1 0DJ      0.368500
     24 H4         -3.9940   -2.5570    0.4560 h1        1 0DJ      0.055700
     25 H5         -5.1690   -2.1040   -0.8730 h1        1 0DJ      0.055700
     26 H6         -3.4380   -2.5610   -1.2860 h1        1 0DJ      0.055700
     27 H7          0.6840   -2.5110    0.9170 ha        1 0DJ      0.137000
     28 H8          2.9910   -3.4400    0.8260 ha        1 0DJ      0.139000
     29 H9          4.8880   -2.0270    0.0700 ha        1 0DJ      0.137000
     30 H10         2.1710    1.2850   -0.5650 ha        1 0DJ      0.162000
     31 H11         6.1280   -0.1280    0.6050 hn        1 0DJ      0.313500
     32 H12         6.7100    1.0970   -0.4240 hn        1 0DJ      0.313500
@<TRIPOS>BOND
     1    1    2 ar  
     2    1    6 ar  
     3    1   21 1   
     4    2    3 ar  
     5    2   12 1   
     6    3    4 ar  
     7    3   22 1   
     8    4    5 ar  
     9    4    7 1   
    10    5    6 ar  
    11    5    9 1   
    12    7    8 1   
    13    7   10 1   
    14    8    9 1   
    15    8   11 2   
    16    9   23 1   
    17   10   24 1   
    18   10   25 1   
    19   10   26 1   
    20   12   13 ar  
    21   12   17 ar  
    22   13   14 ar  
    23   13   27 1   
    24   14   15 ar  
    25   14   28 1   
    26   15   16 ar  
    27   15   29 1   
    28   16   17 ar  
    29   16   18 1   
    30   17   30 1   
    31   18   19 2   
    32   18   20 1   
    33   20   31 1   
    34   20   32 1   
@<TRIPOS>SUBSTRUCTURE
     1 0DJ         1 TEMP              0 ****  ****    0 ROOT
