@<TRIPOS>MOLECULE
0DJ
   32    26     1     0     0
SMALL
bcc


@<TRIPOS>ATOM
      1 C1         -1.4550   -1.2320   -0.2500 c1        1 0DJ     -0.053000
      2 C2         -0.0610   -1.2260   -0.2590 c1        1 0DJ     -0.093000
      3 C3          0.6380   -1.3340    0.9320 c1        1 0DJ     -0.075000
      4 C4         -0.0480   -1.4470    2.1290 c1        1 0DJ     -0.052000
      5 C5         -1.4420   -1.4530    2.1330 c1        1 0DJ      0.074000
      6 N6         -2.1380   -1.3450    0.9450 n1        1 0DJ     -0.130000
      7 N7          0.4060   -1.5840    3.5050 n         1 0DJ     -0.230000
      8 C8         -0.7360   -1.6090    4.3400 c2        1 0DJ      0.377000
      9 N9         -1.8850   -1.5530    3.5120 n         1 0DJ     -0.302000
     10 C10         1.7830   -1.6800    3.9440 c3        1 0DJ     -0.076000
     11 O11        -0.7320   -1.7000    5.5540 o         1 0DJ     -0.337000
     12 C12        -0.0310    0.1080   -1.0270 c1        1 0DJ     -0.039000
     13 C13        -0.3620    1.2910   -0.3770 c1        1 0DJ     -0.118500
     14 C14        -0.3680    2.4970   -1.0800 c1        1 0DJ     -0.118500
     15 C15        -0.0410    2.5150   -2.4360 c1        1 0DJ     -0.101000
     16 C16         0.2910    1.3310   -3.0870 c1        1 0DJ     -0.117000
     17 C17         0.2970    0.1260   -2.3840 c2        1 0DJ     -0.070000
     18 C18         0.6180    1.3460   -4.5730 c1        1 0DJ      0.343000
     19 O19         0.9080    0.3130   -5.1420 o         1 0DJ     -0.367000
     20 N20         0.6290    2.5790   -5.2870 n2        1 0DJ     -0.433000
     21 H1         -1.9510   -1.1560   -1.0920 ha        1 0DJ      0.171000
     22 H2          1.6120   -1.3300    0.9270 ha        1 0DJ      0.151000
     23 H3         -2.7530   -1.5560    3.7980 hn        1 0DJ      0.279000
     24 H4          2.3490   -1.1340    3.3630 h1        1 0DJ      0.096000
     25 H5          1.8550   -1.3550    4.8740 h1        1 0DJ      0.096000
     26 H6          2.0760   -2.6180    3.9000 h1        1 0DJ      0.096000
     27 H7         -0.5910    1.2780    0.5680 ha        1 0DJ      0.139000
     28 H8         -0.6010    3.3260   -0.6240 ha        1 0DJ      0.139000
     29 H9         -0.0440    3.3580   -2.9270 ha        1 0DJ      0.137000
     30 H10         0.5290   -0.7030   -2.8400 ha        1 0DJ      0.161000
     31 H11         0.8560    2.5920   -6.1740 hn        1 0DJ      0.227000
     32 H12         0.3910    3.3530   -4.8660 hn        1 0DJ      0.227000
@<TRIPOS>BOND
     1    1    6 1   
     2    1   21 1   
     3    2    3 1   
     4    3   22 1   
     5    4    5 1   
     6    4    7 1   
     7    5    9 1   
     8    7    8 1   
     9    7   10 1   
    10    8    9 1   
    11    8   11 1   
    12    9   23 1   
    13   10   24 1   
    14   10   25 1   
    15   10   26 1   
    16   12   17 1   
    17   13   14 1   
    18   13   27 1   
    19   14   28 1   
    20   15   16 1   
    21   15   29 1   
    22   16   17 1   
    23   17   30 1   
    24   18   19 1   
    25   20   31 1   
    26   20   32 1   
@<TRIPOS>SUBSTRUCTURE
     1 0DJ         1 TEMP              0 ****  ****    0 ROOT
