@<TRIPOS>MOLECULE
0DJ
   33    35     1     0     0
SMALL
bcc


@<TRIPOS>ATOM
      1 C1          0.0950    0.7180    0.0680 ca        1 0DJ      0.426200
      2 C2          1.4430    0.3090    0.0150 cp        1 0DJ     -0.213300
      3 C3          2.0920   -0.1040    1.1990 ca        1 0DJ     -0.076000
      4 C4          1.3500   -0.0930    2.3670 ca        1 0DJ     -0.104700
      5 C5         -0.0550    0.3470    2.3140 ca        1 0DJ      0.513200
      6 N6         -0.6690    0.7500    1.1810 nb        1 0DJ     -0.652000
      7 N7          1.6330   -0.4860    3.6870 n         1 0DJ     -0.341000
      8 C8          0.4670   -0.2080    4.4820 c         1 0DJ      0.796500
      9 N9         -0.5690    0.2550    3.6150 n         1 0DJ     -0.531400
     10 C10         2.9400   -0.6060    4.2470 c3        1 0DJ      0.084300
     11 O11         0.3530   -0.3840    5.7020 o         1 0DJ     -0.579500
     12 C12         2.1610    0.3160   -1.2520 cp        1 0DJ      0.006000
     13 C13         3.5040    0.7160   -1.3170 ca        1 0DJ     -0.050000
     14 C14         4.1850    0.7220   -2.5370 ca        1 0DJ     -0.114000
     15 C15         3.5450    0.3320   -3.7070 ca        1 0DJ     -0.103000
     16 C16         2.2000   -0.0740   -3.6570 ca        1 0DJ     -0.201600
     17 C17         1.5120   -0.0810   -2.4300 ca        1 0DJ     -0.039000
     18 C18         1.4380   -0.4990   -4.8220 c         1 0DJ      0.577700
     19 O19         0.2590   -0.8070   -4.9180 o         1 0DJ     -0.416100
     20 N20         2.1910   -0.5970   -6.1440 n4        1 0DJ     -0.763400
     21 H1         -0.4270    1.0630   -0.8440 h4        1 0DJ      0.027100
     22 H2          3.1400   -0.4350    1.1870 ha        1 0DJ      0.150000
     23 H3         -1.4740    0.5200    3.9120 hn        1 0DJ      0.379500
     24 H4          2.8420   -0.9510    5.3130 h1        1 0DJ      0.061700
     25 H5          3.4910    0.3730    4.2250 h1        1 0DJ      0.061700
     26 H6          3.5190   -1.3670    3.6580 h1        1 0DJ      0.061700
     27 H7          4.0240    1.0380   -0.3980 ha        1 0DJ      0.170000
     28 H8          5.2390    1.0450   -2.5710 ha        1 0DJ      0.168000
     29 H9          4.1150    0.3580   -4.6470 ha        1 0DJ      0.123000
     30 H10         0.4570   -0.4070   -2.3950 ha        1 0DJ      0.176000
     31 H11         2.5450    0.3260   -6.4100 hn        1 0DJ      0.467467
     32 H12         1.5590   -0.9400   -6.8780 hn        1 0DJ      0.467467
     33 H203        2.9800   -1.2410   -6.0470 hn        1 0DJ      0.467467
@<TRIPOS>BOND
     1    1    2 ar  
     2    1    6 ar  
     3    1   21 1   
     4    2    3 ar  
     5    2   12 1   
     6    3    4 ar  
     7    3   22 1   
     8    4    5 ar  
     9    4    7 1   
    10    5    6 ar  
    11    5    9 1   
    12    7    8 1   
    13    7   10 1   
    14    8    9 1   
    15    8   11 2   
    16    9   23 1   
    17   10   24 1   
    18   10   25 1   
    19   10   26 1   
    20   12   13 ar  
    21   12   17 ar  
    22   13   14 ar  
    23   13   27 1   
    24   14   15 ar  
    25   14   28 1   
    26   15   16 ar  
    27   15   29 1   
    28   16   17 ar  
    29   16   18 1   
    30   17   30 1   
    31   18   19 2   
    32   18   20 1   
    33   20   31 1   
    34   20   32 1   
    35   20   33 1   
@<TRIPOS>SUBSTRUCTURE
     1 0DJ         1 TEMP              0 ****  ****    0 ROOT
