@<TRIPOS>MOLECULE
0DN
   30    31     1     0     0
SMALL
bcc


@<TRIPOS>ATOM
      1 O4         -0.2590   -0.5490   -0.3600 o         1 0DN     -0.666500
      2 C6          0.9770   -0.3560   -0.2860 c         1 0DN      0.811500
      3 N2          1.5540   -0.0860    0.9620 ns        1 0DN     -0.584500
      4 C7          2.9190    0.2020    1.1370 c         1 0DN      0.715700
      5 O3          3.3390    0.4280    2.2820 o         1 0DN     -0.603500
      6 C8          3.7390    0.2070   -0.0890 cc        1 0DN     -0.245400
      7 C10         5.1670    0.5470    0.0570 c3        1 0DN     -0.032900
      8 C9          3.1640   -0.0830   -1.2880 cd        1 0DN      0.038600
      9 N1          1.8240   -0.4390   -1.4240 n         1 0DN     -0.382000
     10 C4          1.2870   -0.6090   -2.7750 c3        1 0DN      0.313500
     11 C3          0.1330   -1.6190   -2.9150 c3        1 0DN     -0.137400
     12 C2         -1.1140   -0.7730   -3.1980 c3        1 0DN      0.122100
     13 O2         -1.7880   -1.2030   -4.3670 oh        1 0DN     -0.591800
     14 O1          0.8300    0.6420   -3.3070 os        1 0DN     -0.413600
     15 C1         -0.5940    0.6520   -3.4720 c3        1 0DN      0.106100
     16 C5         -1.2250    1.6670   -2.5070 c3        1 0DN      0.146900
     17 F1         -0.8910    2.9640   -2.8370 f         1 0DN     -0.237300
     18 H1          0.9410   -0.0690    1.7500 hn        1 0DN      0.352500
     19 H2          5.2750    1.6230    0.3480 hc        1 0DN      0.053367
     20 H3          5.7250    0.3750   -0.8960 hc        1 0DN      0.053367
     21 H4          5.6270   -0.0740    0.8660 hc        1 0DN      0.053367
     22 H5          3.7510   -0.0650   -2.2270 h4        1 0DN      0.167000
     23 H6          2.1620   -0.9000   -3.4320 h2        1 0DN      0.087700
     24 H7          0.3490   -2.2930   -3.7820 hc        1 0DN      0.081700
     25 H8         -0.0070   -2.2450   -2.0010 hc        1 0DN      0.081700
     26 H9         -1.8080   -0.7880   -2.3130 h1        1 0DN      0.076700
     27 H10        -2.2020   -2.0480   -4.1530 ho        1 0DN      0.409000
     28 H11        -0.7710    0.9600   -4.5390 h1        1 0DN      0.102700
     29 H12        -0.8790    1.4530   -1.4570 h1        1 0DN      0.059700
     30 H13        -2.3440    1.5590   -2.5590 h1        1 0DN      0.059700
@<TRIPOS>BOND
     1    1    2 2   
     2    2    3 1   
     3    2    9 1   
     4    3    4 1   
     5    3   18 1   
     6    4    5 2   
     7    4    6 1   
     8    6    7 1   
     9    6    8 2   
    10    7   19 1   
    11    7   20 1   
    12    7   21 1   
    13    8    9 1   
    14    8   22 1   
    15    9   10 1   
    16   10   11 1   
    17   10   14 1   
    18   10   23 1   
    19   11   12 1   
    20   11   24 1   
    21   11   25 1   
    22   12   13 1   
    23   12   15 1   
    24   12   26 1   
    25   13   27 1   
    26   14   15 1   
    27   15   16 1   
    28   15   28 1   
    29   16   17 1   
    30   16   29 1   
    31   16   30 1   
@<TRIPOS>SUBSTRUCTURE
     1 0DN         1 TEMP              0 ****  ****    0 ROOT
