@<TRIPOS>MOLECULE
0DN
   30    29     1     0     0
SMALL
bcc


@<TRIPOS>ATOM
      1 O4         -1.6680    0.0550    1.8790 o         1 0DN     -0.385000
      2 C6         -0.5480    0.5180    1.7930 c1        1 0DN      0.401000
      3 N2          0.1940    0.8650    3.0040 n2        1 0DN     -0.365000
      4 C7          1.4520    1.5110    2.9040 c2        1 0DN      0.354000
      5 O3          2.0520    1.8320    3.9110 o         1 0DN     -0.328000
      6 C8          2.0660    1.7200    1.5860 c2        1 0DN     -0.222000
      7 C10         3.4810    2.2460    1.4860 c3        1 0DN     -0.155000
      8 C9          1.3450    1.3130    0.3720 c1        1 0DN      0.035000
      9 N1          0.0580    0.7240    0.4770 n2        1 0DN     -0.277000
     10 C4         -0.6570    0.3360   -0.7150 c3        1 0DN      0.167000
     11 C3          0.0910   -0.3560   -1.4620 c3        1 0DN     -0.214000
     12 C2         -0.8340   -1.3550   -2.1380 c3        1 0DN      0.013000
     13 O2         -1.0130   -1.0220   -3.4440 oh        1 0DN     -0.317000
     14 O1         -1.9000   -0.5920   -0.3300 os        1 0DN     -0.277000
     15 C1         -2.1800   -1.2660   -1.3730 c3        1 0DN     -0.006000
     16 C5         -2.6770   -2.6780   -0.9870 c3        1 0DN     -0.013000
     17 F1         -3.6850   -2.5720   -0.1070 f         1 0DN     -0.168000
     18 H1         -0.1580    0.6770    3.8240 hn        1 0DN      0.267000
     19 H2          4.0850    1.6580    1.9860 hc        1 0DN      0.092667
     20 H3          3.7550    2.2700    0.5450 hc        1 0DN      0.092667
     21 H4          3.5210    3.1500    1.8610 hc        1 0DN      0.092667
     22 H5          1.7500    1.4500   -0.5060 ha        1 0DN      0.167000
     23 H6         -0.9670    1.1310   -1.1940 h2        1 0DN      0.127000
     24 H7          0.7650   -0.8250   -0.9270 hc        1 0DN      0.122000
     25 H8          0.5230    0.2140   -2.1320 hc        1 0DN      0.122000
     26 H9         -0.4650   -2.2580   -2.0670 h1        1 0DN      0.119000
     27 H10        -0.6010   -1.6170   -3.9610 ho        1 0DN      0.208000
     28 H11        -2.8510   -0.8010   -1.9120 h1        1 0DN      0.142000
     29 H12        -2.9910   -3.1440   -1.7900 h1        1 0DN      0.103500
     30 H13        -1.9410   -3.1830   -0.5820 h1        1 0DN      0.103500
@<TRIPOS>BOND
     1    1    2 1   
     2    2    9 1   
     3    3    4 1   
     4    3   18 1   
     5    4    5 1   
     6    4    6 1   
     7    6    7 1   
     8    6    8 1   
     9    7   19 1   
    10    7   20 1   
    11    7   21 1   
    12    8   22 1   
    13    9   10 1   
    14   10   11 1   
    15   10   14 1   
    16   10   23 1   
    17   11   12 1   
    18   11   24 1   
    19   11   25 1   
    20   12   13 1   
    21   12   15 1   
    22   12   26 1   
    23   13   27 1   
    24   14   15 1   
    25   15   16 1   
    26   15   28 1   
    27   16   17 1   
    28   16   29 1   
    29   16   30 1   
@<TRIPOS>SUBSTRUCTURE
     1 0DN         1 TEMP              0 ****  ****    0 ROOT
