@<TRIPOS>MOLECULE
0DN
   30    31     1     0     0
SMALL
bcc


@<TRIPOS>ATOM
      1 O4         -0.2560   -0.5840   -0.3730 o         1 0DN     -0.666500
      2 C6          0.9770   -0.3810   -0.2930 c         1 0DN      0.811500
      3 N2          1.5490   -0.1260    0.9620 n         1 0DN     -0.584500
      4 C7          2.9110    0.1710    1.1440 c         1 0DN      0.715700
      5 O3          3.3270    0.3830    2.2940 o         1 0DN     -0.603500
      6 C8          3.7330    0.2050   -0.0800 cc        1 0DN     -0.245400
      7 C10         5.1580    0.5560    0.0750 c3        1 0DN     -0.032900
      8 C9          3.1640   -0.0700   -1.2850 cd        1 0DN      0.038600
      9 N1          1.8270   -0.4360   -1.4290 n         1 0DN     -0.382000
     10 C4          1.2950   -0.5880   -2.7840 c3        1 0DN      0.313500
     11 C3          0.1510   -1.6070   -2.9440 c3        1 0DN     -0.137400
     12 C2         -1.1040   -0.7670   -3.2150 c3        1 0DN      0.122100
     13 O2         -1.7720   -1.1840   -4.3930 oh        1 0DN     -0.591800
     14 O1          0.8270    0.6680   -3.2960 os        1 0DN     -0.413600
     15 C1         -0.5970    0.6670   -3.4630 c3        1 0DN      0.106100
     16 C5         -1.2390    1.6590   -2.4830 c3        1 0DN      0.146900
     17 F1         -0.9160    2.9650   -2.7890 f         1 0DN     -0.237300
     18 H1          0.9340   -0.1290    1.7480 hn        1 0DN      0.352500
     19 H2          5.7180    0.4130   -0.8810 hc        1 0DN      0.053367
     20 H3          5.2550    1.6250    0.3930 hc        1 0DN      0.053367
     21 H4          5.6240   -0.0810    0.8690 hc        1 0DN      0.053367
     22 H5          3.7520   -0.0310   -2.2220 h4        1 0DN      0.167000
     23 H6          2.1740   -0.8590   -3.4450 h2        1 0DN      0.087700
     24 H7          0.0150   -2.2490   -2.0410 hc        1 0DN      0.081700
     25 H8          0.3750   -2.2640   -3.8220 hc        1 0DN      0.081700
     26 H9         -1.7990   -0.8040   -2.3330 h1        1 0DN      0.076700
     27 H10        -2.1780   -2.0370   -4.1950 ho        1 0DN      0.409000
     28 H11        -0.7750    0.9910   -4.5260 h1        1 0DN      0.102700
     29 H12        -2.3570    1.5410   -2.5400 h1        1 0DN      0.059700
     30 H13        -0.8930    1.4300   -1.4360 h1        1 0DN      0.059700
@<TRIPOS>BOND
     1    1    2 2   
     2    2    3 1   
     3    2    9 1   
     4    3    4 1   
     5    3   18 1   
     6    4    5 2   
     7    4    6 1   
     8    6    7 1   
     9    6    8 2   
    10    7   19 1   
    11    7   20 1   
    12    7   21 1   
    13    8    9 1   
    14    8   22 1   
    15    9   10 1   
    16   10   11 1   
    17   10   14 1   
    18   10   23 1   
    19   11   12 1   
    20   11   24 1   
    21   11   25 1   
    22   12   13 1   
    23   12   15 1   
    24   12   26 1   
    25   13   27 1   
    26   14   15 1   
    27   15   16 1   
    28   15   28 1   
    29   16   17 1   
    30   16   29 1   
    31   16   30 1   
@<TRIPOS>SUBSTRUCTURE
     1 0DN         1 TEMP              0 ****  ****    0 ROOT
