@<TRIPOS>MOLECULE
0DN
   30    31     1     0     0
SMALL
bcc


@<TRIPOS>ATOM
      1 O4         -0.2500   -0.4890   -1.7230 o         1 0DN     -0.666500
      2 C6          0.7290   -0.2450   -0.9810 c         1 0DN      0.811500
      3 N2          1.9230   -0.9560   -1.1670 n         1 0DN     -0.584500
      4 C7          3.0540   -0.7950   -0.3470 c         1 0DN      0.715700
      5 O3          4.0680   -1.4680   -0.5910 o         1 0DN     -0.603500
      6 C8          2.9220    0.1820    0.7490 cc        1 0DN     -0.245400
      7 C10         4.0780    0.3420    1.6530 c3        1 0DN     -0.032900
      8 C9          1.7630    0.8800    0.8970 cd        1 0DN      0.038600
      9 N1          0.6840    0.7570    0.0250 n         1 0DN     -0.382000
     10 C4         -0.5540    1.4640    0.3530 c3        1 0DN      0.313500
     11 C3         -1.4170    1.8970   -0.8470 c3        1 0DN     -0.137400
     12 C2         -2.6550    0.9930   -0.8020 c3        1 0DN      0.122100
     13 O2         -3.8560    1.7440   -0.8160 oh        1 0DN     -0.591800
     14 O1         -1.3840    0.6750    1.2170 os        1 0DN     -0.413600
     15 C1         -2.5880    0.2660    0.5560 c3        1 0DN      0.106100
     16 C5         -2.5910   -1.2580    0.3690 c3        1 0DN      0.146900
     17 F1         -2.6870   -1.9220    1.5740 f         1 0DN     -0.237300
     18 H1          1.9390   -1.6290   -1.9040 hn        1 0DN      0.352500
     19 H2          5.0110    0.4990    1.0550 hc        1 0DN      0.053367
     20 H3          3.9380    1.2100    2.3420 hc        1 0DN      0.053367
     21 H4          4.2150   -0.5860    2.2650 hc        1 0DN      0.053367
     22 H5          1.6290    1.6050    1.7240 h4        1 0DN      0.167000
     23 H6         -0.2550    2.3590    0.9800 h2        1 0DN      0.087700
     24 H7         -1.7130    2.9670   -0.7100 hc        1 0DN      0.081700
     25 H8         -0.8830    1.7960   -1.8220 hc        1 0DN      0.081700
     26 H9         -2.6380    0.2600   -1.6550 h1        1 0DN      0.076700
     27 H10        -3.9460    2.1090   -1.7040 ho        1 0DN      0.409000
     28 H11        -3.4270    0.5820    1.2360 h1        1 0DN      0.102700
     29 H12        -3.4760   -1.5360   -0.2680 h1        1 0DN      0.059700
     30 H13        -1.6430   -1.5750   -0.1510 h1        1 0DN      0.059700
@<TRIPOS>BOND
     1    1    2 2   
     2    2    3 1   
     3    2    9 1   
     4    3    4 1   
     5    3   18 1   
     6    4    5 2   
     7    4    6 1   
     8    6    7 1   
     9    6    8 2   
    10    7   19 1   
    11    7   20 1   
    12    7   21 1   
    13    8    9 1   
    14    8   22 1   
    15    9   10 1   
    16   10   11 1   
    17   10   14 1   
    18   10   23 1   
    19   11   12 1   
    20   11   24 1   
    21   11   25 1   
    22   12   13 1   
    23   12   15 1   
    24   12   26 1   
    25   13   27 1   
    26   14   15 1   
    27   15   16 1   
    28   15   28 1   
    29   16   17 1   
    30   16   29 1   
    31   16   30 1   
@<TRIPOS>SUBSTRUCTURE
     1 0DN         1 TEMP              0 ****  ****    0 ROOT
