@<TRIPOS>MOLECULE
0DN
   30    31     1     0     0
SMALL
bcc


@<TRIPOS>ATOM
      1 O4         -0.2650   -0.5590   -0.3720 o         1 0DN     -0.666500
      2 C6          0.9690   -0.3640   -0.2890 c         1 0DN      0.811500
      3 N2          1.5380   -0.0990    0.9650 n         1 0DN     -0.584500
      4 C7          2.9010    0.1920    1.1490 c         1 0DN      0.715700
      5 O3          3.3130    0.4130    2.2980 o         1 0DN     -0.603500
      6 C8          3.7280    0.2060   -0.0720 cc        1 0DN     -0.245400
      7 C10         5.1550    0.5490    0.0850 c3        1 0DN     -0.032900
      8 C9          3.1620   -0.0790   -1.2760 cd        1 0DN      0.038600
      9 N1          1.8240   -0.4380   -1.4220 n         1 0DN     -0.382000
     10 C4          1.2960   -0.6030   -2.7770 c3        1 0DN      0.313500
     11 C3          0.1460   -1.6160   -2.9300 c3        1 0DN     -0.137400
     12 C2         -1.1020   -0.7710   -3.2160 c3        1 0DN      0.122100
     13 O2         -1.7680   -1.1970   -4.3910 oh        1 0DN     -0.591800
     14 O1          0.8380    0.6500   -3.3050 os        1 0DN     -0.413600
     15 C1         -0.5840    0.6570   -3.4790 c3        1 0DN      0.106100
     16 C5         -1.2240    1.6650   -2.5130 c3        1 0DN      0.146900
     17 F1         -0.8910    2.9650   -2.8340 f         1 0DN     -0.237300
     18 H1          0.9200   -0.0880    1.7480 hn        1 0DN      0.352500
     19 H2          5.2580    1.6250    0.3770 hc        1 0DN      0.053367
     20 H3          5.7210    0.3790   -0.8630 hc        1 0DN      0.053367
     21 H4          5.6100   -0.0710    0.8980 hc        1 0DN      0.053367
     22 H5          3.7540   -0.0550   -2.2110 h4        1 0DN      0.167000
     23 H6          2.1760   -0.8870   -3.4300 h2        1 0DN      0.087700
     24 H7          0.3690   -2.2840   -3.7990 hc        1 0DN      0.081700
     25 H8          0.0020   -2.2470   -2.0200 hc        1 0DN      0.081700
     26 H9         -1.8020   -0.7930   -2.3360 h1        1 0DN      0.076700
     27 H10        -2.1800   -2.0450   -4.1850 ho        1 0DN      0.409000
     28 H11        -0.7560    0.9700   -4.5460 h1        1 0DN      0.102700
     29 H12        -2.3420    1.5540   -2.5730 h1        1 0DN      0.059700
     30 H13        -0.8840    1.4460   -1.4620 h1        1 0DN      0.059700
@<TRIPOS>BOND
     1    1    2 2   
     2    2    3 1   
     3    2    9 1   
     4    3    4 1   
     5    3   18 1   
     6    4    5 2   
     7    4    6 1   
     8    6    7 1   
     9    6    8 2   
    10    7   19 1   
    11    7   20 1   
    12    7   21 1   
    13    8    9 1   
    14    8   22 1   
    15    9   10 1   
    16   10   11 1   
    17   10   14 1   
    18   10   23 1   
    19   11   12 1   
    20   11   24 1   
    21   11   25 1   
    22   12   13 1   
    23   12   15 1   
    24   12   26 1   
    25   13   27 1   
    26   14   15 1   
    27   15   16 1   
    28   15   28 1   
    29   16   17 1   
    30   16   29 1   
    31   16   30 1   
@<TRIPOS>SUBSTRUCTURE
     1 0DN         1 TEMP              0 ****  ****    0 ROOT
