@<TRIPOS>MOLECULE
0DO
   92    95     1     0     0
SMALL
bcc


@<TRIPOS>ATOM
      1 C1          4.0340    0.2450    1.0630 c         1 0DO      0.665100
      2 C2          5.2200   -0.6480    1.4220 c3        1 0DO      0.055400
      3 C1'         6.6330   -2.3190    0.5560 ca        1 0DO      0.081100
      4 C2'         6.2680   -3.6670    0.7200 ca        1 0DO     -0.075800
      5 C3'         7.2820   -4.6140    0.9020 ca        1 0DO     -0.130000
      6 C4'         8.6190   -4.2270    0.9220 ca        1 0DO     -0.124000
      7 C5'         8.9670   -2.8880    0.7570 ca        1 0DO     -0.130000
      8 C6'         7.9800   -1.9130    0.5730 ca        1 0DO     -0.075800
      9 CM2         4.8510   -4.0960    0.6830 c3        1 0DO     -0.056800
     10 CM6         8.3590   -0.4920    0.4030 c3        1 0DO     -0.056800
     11 O1          3.8310    1.2690    1.7470 o         1 0DO     -0.608100
     12 O1'         5.6360   -1.3880    0.2660 os        1 0DO     -0.352900
     13 N           3.1960   -0.1450    0.0470 n         1 0DO     -0.549900
     14 CA          2.0560    0.6300   -0.3800 c3        1 0DO      0.078700
     15 C           0.7550   -0.2210   -0.2760 c3        1 0DO      0.119100
     16 OXT         0.8010   -1.3450   -1.1350 oh        1 0DO     -0.602800
     17 CB          2.2140    1.1810   -1.8110 c3        1 0DO     -0.058100
     18 CG          3.3200    2.1670   -1.9370 ca        1 0DO     -0.083300
     19 CD1         4.4350    1.8830   -2.7330 ca        1 0DO     -0.119000
     20 CD2         3.2430    3.4030   -1.2820 ca        1 0DO     -0.119000
     21 CE1         5.4570    2.8210   -2.8740 ca        1 0DO     -0.127500
     22 CE2         4.2660    4.3380   -1.4230 ca        1 0DO     -0.127500
     23 CZ          5.3740    4.0500   -2.2200 ca        1 0DO     -0.129000
     24 CM         -0.4810    0.6560   -0.5550 c3        1 0DO      0.140800
     25 N1         -1.6930    0.1660    0.0850 n3        1 0DO     -0.706600
     26 C21        -2.7960    1.1280    0.0160 c3        1 0DO      0.128500
     27 C3         -4.0520    0.6160    0.7410 c3        1 0DO     -0.057400
     28 C4         -4.4920   -0.7270    0.1830 c3        1 0DO     -0.275900
     29 C5         -3.3340   -1.7000    0.2960 c3        1 0DO     -0.051400
     30 C6         -2.0940   -1.1490   -0.3990 c3        1 0DO      0.168800
     31 C7         -2.4520    2.4920    0.6710 c         1 0DO      0.653100
     32 O          -1.6090    2.6070    1.5790 o         1 0DO     -0.580100
     33 N11        -7.2510   -4.5570   -1.7970 nb        1 0DO     -0.619000
     34 C22        -6.4560   -4.8140   -0.7410 ca        1 0DO      0.378200
     35 C31        -6.0080   -3.8200    0.1490 ca        1 0DO     -0.140300
     36 C41        -6.3980   -2.4920   -0.0610 ca        1 0DO     -0.332500
     37 C51        -7.2340   -2.2210   -1.1520 ca        1 0DO     -0.140300
     38 C61        -7.6310   -3.2790   -1.9890 ca        1 0DO      0.378200
     39 S          -5.9220   -1.2630    0.9930 sy        1 0DO      1.366300
     40 O1S        -5.6030   -1.8060    2.2410 o         1 0DO     -0.642800
     41 O2S        -6.8640   -0.2240    0.9480 o         1 0DO     -0.642800
     42 N2         -3.1430    3.5740    0.1630 n         1 0DO     -0.569900
     43 C1'1       -3.0820    4.9180    0.7380 c3        1 0DO      0.122400
     44 C2'1       -1.6600    5.4980    0.6580 c3        1 0DO     -0.109100
     45 C3'1       -4.0190    5.8600   -0.0400 c3        1 0DO     -0.109100
     46 C4'1       -3.5190    4.9370    2.2130 c3        1 0DO     -0.109100
     47 H21         6.0660    0.0000    1.7730 h1        1 0DO      0.070700
     48 H22         4.9040   -1.3510    2.2370 h1        1 0DO      0.070700
     49 H3'         7.0120   -5.6730    1.0300 ha        1 0DO      0.135000
     50 H4'         9.4060   -4.9820    1.0670 ha        1 0DO      0.134000
     51 H5'        10.0250   -2.5890    0.7680 ha        1 0DO      0.135000
     52 HM21        4.6320   -4.6030   -0.2900 hc        1 0DO      0.050700
     53 HM22        4.6370   -4.8160    1.5110 hc        1 0DO      0.050700
     54 HM23        4.1630   -3.2190    0.7820 hc        1 0DO      0.050700
     55 HM61        8.4630   -0.0010    1.4030 hc        1 0DO      0.050700
     56 HM62        9.3350   -0.4040   -0.1340 hc        1 0DO      0.050700
     57 HM63        7.5790    0.0590   -0.1810 hc        1 0DO      0.050700
     58 H           3.4330   -0.9420   -0.4970 hn        1 0DO      0.328500
     59 HA          1.9460    1.5070    0.3310 h1        1 0DO      0.106700
     60 HC          0.6920   -0.6710    0.7580 h1        1 0DO      0.109700
     61 HOR         0.8110   -1.0210   -2.0440 ho        1 0DO      0.395000
     62 HB2         2.3760    0.3330   -2.5290 hc        1 0DO      0.049700
     63 HB3         1.2520    1.6870   -2.0950 hc        1 0DO      0.049700
     64 HD1         4.5100    0.9140   -3.2490 ha        1 0DO      0.132500
     65 HD2         2.3740    3.6300   -0.6450 ha        1 0DO      0.132500
     66 HE1         6.3300    2.5890   -3.5010 ha        1 0DO      0.131500
     67 HE2         4.2000    5.3030   -0.8990 ha        1 0DO      0.131500
     68 HZ          6.1810    4.7890   -2.3300 ha        1 0DO      0.130000
     69 HM2        -0.2740    1.6850   -0.1430 h1        1 0DO      0.046700
     70 HM3        -0.6150    0.7400   -1.6750 h1        1 0DO      0.046700
     71 H2         -3.0710    1.3090   -1.0710 h1        1 0DO      0.027700
     72 H31        -3.8310    0.5170    1.8380 hc        1 0DO      0.077700
     73 H32        -4.8760    1.3670    0.6090 hc        1 0DO      0.077700
     74 H42        -4.7110   -0.5830   -0.9130 h1        1 0DO      0.105700
     75 H51        -3.1130   -1.8940    1.3800 hc        1 0DO      0.065200
     76 H52        -3.6040   -2.6760   -0.1880 hc        1 0DO      0.065200
     77 H61        -2.2840   -1.1360   -1.5140 h1        1 0DO      0.047200
     78 H62        -1.2320   -1.8520   -0.2090 h1        1 0DO      0.047200
     79 H23        -6.1660   -5.8710   -0.6000 h4        1 0DO      0.034600
     80 H3         -5.3720   -4.0850    1.0100 ha        1 0DO      0.167000
     81 H5         -7.5910   -1.1960   -1.3410 ha        1 0DO      0.167000
     82 H6         -8.2910   -3.0980   -2.8570 h4        1 0DO      0.034600
     83 HN         -3.9040    3.4030   -0.4510 hn        1 0DO      0.304500
     84 H2'1       -1.3150    5.5560   -0.4010 hc        1 0DO      0.046700
     85 H2'2       -1.6640    6.5270    1.0900 hc        1 0DO      0.046700
     86 H2'3       -0.9480    4.8640    1.2410 hc        1 0DO      0.046700
     87 H3'1       -5.0790    5.5170    0.0280 hc        1 0DO      0.046700
     88 H3'2       -3.9480    6.8810    0.4040 hc        1 0DO      0.046700
     89 H3'3       -3.7230    5.9190   -1.1140 hc        1 0DO      0.046700
     90 H4'1       -2.8480    4.2830    2.8230 hc        1 0DO      0.046700
     91 H4'2       -3.4540    5.9810    2.6010 hc        1 0DO      0.046700
     92 H4'3       -4.5710    4.5810    2.3200 hc        1 0DO      0.046700
@<TRIPOS>BOND
     1    1    2 1   
     2    1   11 2   
     3    1   13 1   
     4    2   12 1   
     5    2   47 1   
     6    2   48 1   
     7    3    4 ar  
     8    3    8 ar  
     9    3   12 1   
    10    4    5 ar  
    11    4    9 1   
    12    5    6 ar  
    13    5   49 1   
    14    6    7 ar  
    15    6   50 1   
    16    7    8 ar  
    17    7   51 1   
    18    8   10 1   
    19    9   52 1   
    20    9   53 1   
    21    9   54 1   
    22   10   55 1   
    23   10   56 1   
    24   10   57 1   
    25   13   14 1   
    26   13   58 1   
    27   14   15 1   
    28   14   17 1   
    29   14   59 1   
    30   15   16 1   
    31   15   24 1   
    32   15   60 1   
    33   16   61 1   
    34   17   18 1   
    35   17   62 1   
    36   17   63 1   
    37   18   19 ar  
    38   18   20 ar  
    39   19   21 ar  
    40   19   64 1   
    41   20   22 ar  
    42   20   65 1   
    43   21   23 ar  
    44   21   66 1   
    45   22   23 ar  
    46   22   67 1   
    47   23   68 1   
    48   24   25 1   
    49   24   69 1   
    50   24   70 1   
    51   25   26 1   
    52   25   30 1   
    53   26   27 1   
    54   26   31 1   
    55   26   71 1   
    56   27   28 1   
    57   27   72 1   
    58   27   73 1   
    59   28   29 1   
    60   28   39 1   
    61   28   74 1   
    62   29   30 1   
    63   29   75 1   
    64   29   76 1   
    65   30   77 1   
    66   30   78 1   
    67   31   32 2   
    68   31   42 1   
    69   33   34 ar  
    70   33   38 ar  
    71   34   35 ar  
    72   34   79 1   
    73   35   36 ar  
    74   35   80 1   
    75   36   37 ar  
    76   36   39 1   
    77   37   38 ar  
    78   37   81 1   
    79   38   82 1   
    80   39   40 2   
    81   39   41 2   
    82   42   43 1   
    83   42   83 1   
    84   43   44 1   
    85   43   45 1   
    86   43   46 1   
    87   44   84 1   
    88   44   85 1   
    89   44   86 1   
    90   45   87 1   
    91   45   88 1   
    92   45   89 1   
    93   46   90 1   
    94   46   91 1   
    95   46   92 1   
@<TRIPOS>SUBSTRUCTURE
     1 0DO         1 TEMP              0 ****  ****    0 ROOT
