@<TRIPOS>MOLECULE
0DO
   92    86     1     0     0
SMALL
bcc


@<TRIPOS>ATOM
      1 C1          3.7740    0.5400    0.0870 c1        1 0DO      0.285000
      2 C2          5.1600    1.1710    0.0530 c2        1 0DO     -0.043000
      3 C1'         6.7430    2.2460    1.5630 c1        1 0DO      0.036000
      4 C2'         8.0710    1.9030    1.3260 c1        1 0DO     -0.088000
      5 C3'         9.0720    2.8610    1.4740 c1        1 0DO     -0.119000
      6 C4'         8.7400    4.1690    1.8620 c1        1 0DO     -0.112833
      7 C5'         7.4180    4.5090    2.0960 c1        1 0DO     -0.112833
      8 C6'         6.4160    3.5540    1.9490 c1        1 0DO     -0.081000
      9 CM2         8.4550    0.4110    1.0330 c3        1 0DO     -0.185000
     10 CM6         4.9920    3.9320    2.1760 c3        1 0DO     -0.189000
     11 O1          3.2370    0.3380    1.1300 o         1 0DO     -0.404000
     12 O1'         5.6860    1.2470    1.3930 os        1 0DO     -0.214000
     13 N           3.0680    0.2310   -1.1830 n3        1 0DO     -0.358000
     14 CA          1.7110    0.6840   -1.3840 c3        1 0DO     -0.008000
     15 C           0.9630   -0.3240   -2.1970 c3        1 0DO      0.021000
     16 OXT         0.2240    0.3280   -3.1720 oh        1 0DO     -0.324000
     17 CB          1.7280    2.0110   -2.1170 c3        1 0DO     -0.141000
     18 CG          1.0890    3.0710   -1.2520 c2        1 0DO     -0.074000
     19 CD1         1.8860    3.9610   -0.5530 c2        1 0DO     -0.135000
     20 CD2        -0.3020    3.2650   -1.2990 c1        1 0DO     -0.128000
     21 CE1         1.3040    5.0540    0.1070 c1        1 0DO     -0.129000
     22 CE2        -0.8800    4.3520   -0.6410 c1        1 0DO     -0.112833
     23 CZ         -0.0810    5.2440    0.0590 c1        1 0DO     -0.112833
     24 CM         -0.0050   -1.1440   -1.2640 c3        1 0DO     -0.089000
     25 N1         -1.2810   -0.4100   -1.1060 n3        1 0DO     -0.259000
     26 C21        -1.9270   -0.7900    0.1870 c3        1 0DO     -0.042000
     27 C3         -3.3100   -0.1020    0.2910 c3        1 0DO     -0.118000
     28 C4         -4.2190   -0.3460   -0.9390 c3        1 0DO     -0.761000
     29 C5         -3.4690    0.0190   -2.1890 c3        1 0DO     -0.121000
     30 C6         -2.1260   -0.6230   -2.2940 c3        1 0DO     -0.083000
     31 C7         -2.0140   -2.3330    0.3780 c2        1 0DO      0.258000
     32 O          -2.0740   -3.0420   -0.5660 o         1 0DO     -0.376000
     33 N11        -9.3580   -2.2890   -1.0890 n1        1 0DO     -0.095000
     34 C22        -8.6240   -3.3080   -0.5210 c1        1 0DO     -0.112833
     35 C31        -7.2320   -3.2130   -0.4550 c1        1 0DO     -0.112833
     36 C41        -6.5930   -2.0990   -0.9580 c1        1 0DO     -0.773000
     37 C51        -7.3320   -1.0770   -1.5270 c1        1 0DO     -0.075000
     38 C61        -8.7180   -1.1730   -1.5930 c1        1 0DO     -0.087000
     39 S          -4.7650   -2.0320   -0.9970 s6        1 0DO      2.812000
     40 O1S        -4.2310   -2.7240   -2.1730 o         1 0DO     -0.918000
     41 O2S        -4.1840   -2.8120    0.0770 o         1 0DO     -0.918000
     42 N2         -2.0960   -2.9120    1.7480 n         1 0DO     -0.357000
     43 C1'1       -2.5750   -4.2870    1.9320 c3        1 0DO      0.083000
     44 C2'1       -3.9900   -4.3680    1.5370 c3        1 0DO     -0.226667
     45 C3'1       -1.7320   -5.2530    1.0500 c3        1 0DO     -0.226667
     46 C4'1       -2.4390   -4.6750    3.3660 c3        1 0DO     -0.226667
     47 H21         5.1000    2.0620   -0.3220 h4        1 0DO      0.129000
     48 H22         5.7440    0.6320   -0.4910 h4        1 0DO      0.129000
     49 H3'         9.9760    2.6300    1.3140 ha        1 0DO      0.137000
     50 H4'         9.4560    4.8540    1.9680 ha        1 0DO      0.145167
     51 H5'         7.1850    5.4300    2.3690 ha        1 0DO      0.145167
     52 HM21        8.3710    0.2270    0.0290 hc        1 0DO      0.089667
     53 HM22        7.8360   -0.2000    1.5390 hc        1 0DO      0.089667
     54 HM23        9.3560    0.2540    1.3120 hc        1 0DO      0.089667
     55 HM61        4.9540    4.7200    2.7310 hc        1 0DO      0.093333
     56 HM62        4.5370    3.2160    2.6100 hc        1 0DO      0.093333
     57 HM63        4.5580    4.1220    1.3040 hc        1 0DO      0.093333
     58 H           3.4980   -0.2350   -1.8450 hn        1 0DO      0.237000
     59 HA          1.2730    0.7960   -0.5160 h1        1 0DO      0.134000
     60 HC          1.5990   -0.9350   -2.6240 h1        1 0DO      0.111000
     61 HOR        -0.1130    1.0970   -2.8330 ho        1 0DO      0.211000
     62 HB2         1.2310    1.9280   -2.9500 hc        1 0DO      0.102500
     63 HB3         2.6490    2.2620   -2.3110 hc        1 0DO      0.102500
     64 HD1         2.8910    3.8250   -0.5200 ha        1 0DO      0.128000
     65 HD2        -0.8660    2.6360   -1.7920 ha        1 0DO      0.151000
     66 HE1         1.8750    5.6920    0.6090 ha        1 0DO      0.129000
     67 HE2        -1.8450    4.4850   -0.6740 ha        1 0DO      0.145167
     68 HZ         -0.4990    6.0300    0.5330 ha        1 0DO      0.145167
     69 HM2         0.4060   -1.2620   -0.4000 h1        1 0DO      0.100500
     70 HM3        -0.1870   -2.0590   -1.6820 h1        1 0DO      0.100500
     71 H2         -1.3500   -0.5370    0.9550 h1        1 0DO      0.149000
     72 H31        -3.1800    0.8200    0.3920 hc        1 0DO      0.105500
     73 H32        -3.7600   -0.4370    1.0740 hc        1 0DO      0.105500
     74 H42        -5.0870    0.1320   -0.8680 h1        1 0DO      0.146000
     75 H51        -3.3530    0.9800   -2.2100 hc        1 0DO      0.093500
     76 H52        -4.0070   -0.2500   -2.9690 hc        1 0DO      0.093500
     77 H61        -2.2470   -1.5780   -2.4210 h1        1 0DO      0.105500
     78 H62        -1.6560   -0.2500   -3.0920 h1        1 0DO      0.105500
     79 H23        -9.0850   -4.1110   -0.1590 ha        1 0DO      0.145167
     80 H3         -6.7150   -3.9300   -0.0550 ha        1 0DO      0.145167
     81 H5         -6.8560   -0.2470   -1.9020 ha        1 0DO      0.167000
     82 H6         -9.2430   -0.4460   -1.9980 ha        1 0DO      0.170000
     83 HN         -1.9130   -2.3820    2.4870 hn        1 0DO      0.221000
     84 H2'1       -4.4160   -5.1100    2.0070 hc        1 0DO      0.085667
     85 H2'2       -4.4450   -3.5280    1.7700 hc        1 0DO      0.085667
     86 H2'3       -4.0520   -4.5160    0.5640 hc        1 0DO      0.085667
     87 H3'1       -2.1640   -6.0830    0.9970 hc        1 0DO      0.085667
     88 H3'2       -0.8020   -5.3760    1.4690 hc        1 0DO      0.085667
     89 H3'3       -1.6370   -4.8720    0.1400 hc        1 0DO      0.085667
     90 H4'1       -2.9320   -4.0220    3.9350 hc        1 0DO      0.085667
     91 H4'2       -1.4550   -4.6760    3.6260 hc        1 0DO      0.085667
     92 H4'3       -2.8050   -5.5530    3.4950 hc        1 0DO      0.085667
@<TRIPOS>BOND
     1    1   11 1   
     2    1   13 1   
     3    2   12 1   
     4    2   47 1   
     5    2   48 1   
     6    3    8 1   
     7    3   12 1   
     8    4    5 1   
     9    4    9 1   
    10    5   49 1   
    11    6    7 1   
    12    6   50 1   
    13    7   51 1   
    14    8   10 1   
    15    9   52 1   
    16    9   53 1   
    17    9   54 1   
    18   10   55 1   
    19   10   56 1   
    20   10   57 1   
    21   13   14 1   
    22   13   58 1   
    23   14   15 1   
    24   14   17 1   
    25   14   59 1   
    26   15   16 1   
    27   15   24 1   
    28   15   60 1   
    29   16   61 1   
    30   17   18 1   
    31   17   62 1   
    32   17   63 1   
    33   18   19 1   
    34   18   20 1   
    35   19   21 1   
    36   19   64 1   
    37   20   65 1   
    38   21   66 1   
    39   22   23 1   
    40   22   67 1   
    41   23   68 1   
    42   24   25 1   
    43   24   69 1   
    44   24   70 1   
    45   25   26 1   
    46   25   30 1   
    47   26   27 1   
    48   26   31 1   
    49   26   71 1   
    50   27   28 1   
    51   27   72 1   
    52   27   73 1   
    53   28   29 1   
    54   28   39 1   
    55   28   74 1   
    56   29   30 1   
    57   29   75 1   
    58   29   76 1   
    59   30   77 1   
    60   30   78 1   
    61   31   32 1   
    62   31   42 1   
    63   33   38 1   
    64   34   35 1   
    65   34   79 1   
    66   35   80 1   
    67   36   37 1   
    68   36   39 1   
    69   37   81 1   
    70   38   82 1   
    71   39   40 1   
    72   39   41 1   
    73   42   43 1   
    74   42   83 1   
    75   43   44 1   
    76   43   45 1   
    77   43   46 1   
    78   44   84 1   
    79   44   85 1   
    80   44   86 1   
    81   45   87 1   
    82   45   88 1   
    83   45   89 1   
    84   46   90 1   
    85   46   91 1   
    86   46   92 1   
@<TRIPOS>SUBSTRUCTURE
     1 0DO         1 TEMP              0 ****  ****    0 ROOT
