@<TRIPOS>MOLECULE
0DQ
   19    20     1     0     0
SMALL
bcc


@<TRIPOS>ATOM
      1 N25         0.0500   -0.3600   -0.0680 nv        1 0DQ     -0.796200
      2 C26         1.3820   -0.0760   -0.0430 cc        1 0DQ      0.128200
      3 C27         2.2000    0.0620    1.1090 cd        1 0DQ      0.208800
      4 N28         3.5660    0.2100    0.7880 nd        1 0DQ     -0.238000
      5 N29         3.8030    0.2160   -0.4270 nc        1 0DQ     -0.137100
      6 S30         2.4280    0.0230   -1.4010 ss        1 0DQ      0.035200
      7 C31         1.7270    0.0450    2.4840 ca        1 0DQ     -0.097500
      8 C32         2.3630   -0.7590    3.4390 ca        1 0DQ     -0.119500
      9 C33         1.8970   -0.7830    4.7530 ca        1 0DQ     -0.128500
     10 C34         0.8000   -0.0060    5.1250 ca        1 0DQ     -0.127000
     11 C35         0.1720    0.8050    4.1800 ca        1 0DQ     -0.128500
     12 C36         0.6330    0.8360    2.8650 ca        1 0DQ     -0.119500
     13 H25        -0.4330   -0.3000    0.8010 hn        1 0DQ      0.424800
     14 H26         3.2330   -1.3690    3.1510 ha        1 0DQ      0.136000
     15 H27         2.4000   -1.4170    5.4990 ha        1 0DQ      0.133500
     16 H28         0.4340   -0.0280    6.1610 ha        1 0DQ      0.133000
     17 H29        -0.6850    1.4290    4.4730 ha        1 0DQ      0.133500
     18 H30         0.1540    1.5040    2.1350 ha        1 0DQ      0.136000
     19 H2         -0.4600   -0.0750   -0.8720 hn        1 0DQ      0.424800
@<TRIPOS>BOND
     1    1    2 1   
     2    1   13 1   
     3    1   19 1   
     4    2    3 2   
     5    2    6 1   
     6    3    4 1   
     7    3    7 1   
     8    4    5 2   
     9    5    6 1   
    10    7    8 ar  
    11    7   12 ar  
    12    8    9 ar  
    13    8   14 1   
    14    9   10 ar  
    15    9   15 1   
    16   10   11 ar  
    17   10   16 1   
    18   11   12 ar  
    19   11   17 1   
    20   12   18 1   
@<TRIPOS>SUBSTRUCTURE
     1 0DQ         1 TEMP              0 ****  ****    0 ROOT
