@<TRIPOS>MOLECULE
0DQ
   19    16     1     0     0
SMALL
bcc


@<TRIPOS>ATOM
      1 N25        -0.3470    1.6920   -2.1590 nh        1 0DQ     -0.785600
      2 C26         0.3070    0.4420   -2.3070 c2        1 0DQ      0.087500
      3 C27         0.5810   -0.4770   -1.2750 c1        1 0DQ     -0.155900
      4 N28         1.4030   -1.6290   -1.8640 n1        1 0DQ      0.019000
      5 N29         1.6100   -1.3690   -3.2700 n2        1 0DQ     -0.142500
      6 S30         0.9500   -0.0950   -3.5980 ss        1 0DQ      0.080900
      7 C31         0.1400   -0.3480    0.1660 c1        1 0DQ      0.001000
      8 C32        -1.0690   -0.8920    0.5720 c1        1 0DQ     -0.075500
      9 C33        -1.4570   -0.8070    1.9000 c1        1 0DQ     -0.065250
     10 C34        -0.6350   -0.1780    2.8230 c1        1 0DQ     -0.065250
     11 C35         0.5740    0.3650    2.4170 c1        1 0DQ     -0.065250
     12 C36         0.9610    0.2800    1.0890 c1        1 0DQ     -0.065250
     13 H25        -1.1280    1.7460   -1.6870 hn        1 0DQ      0.417800
     14 H26        -1.6480   -1.3340   -0.0780 ha        1 0DQ      0.081500
     15 H27        -2.3080   -1.1890    2.1860 ha        1 0DQ      0.079250
     16 H28        -0.9080   -0.1190    3.7580 ha        1 0DQ      0.079250
     17 H29         1.1520    0.8080    3.0670 ha        1 0DQ      0.079250
     18 H30         1.8120    0.6630    0.8030 ha        1 0DQ      0.079250
     19 H2          0.0080    2.4420   -2.5430 hn        1 0DQ      0.417800
@<TRIPOS>BOND
     1    1    2 1   
     2    1   13 1   
     3    1   19 1   
     4    2    3 2   
     5    2    6 1   
     6    3    4 2   
     7    4    5 2   
     8    5    6 1   
     9    7    8 3   
    10    8   14 1   
    11    9   10 3   
    12    9   15 1   
    13   10   16 1   
    14   11   12 3   
    15   11   17 1   
    16   12   18 1   
@<TRIPOS>SUBSTRUCTURE
     1 0DQ         1 TEMP              0 ****  ****    0 ROOT
