@<TRIPOS>MOLECULE
0DQ
   19    20     1     0     0
SMALL
bcc


@<TRIPOS>ATOM
      1 N25         1.0630    2.0990   -0.5250 nh        1 0DQ     -0.785200
      2 C26         1.3910    0.8130   -0.1970 cc        1 0DQ      0.114200
      3 C27         0.4960   -0.2340    0.1410 cd        1 0DQ      0.216800
      4 N28         1.1680   -1.4160    0.5210 nd        1 0DQ     -0.240000
      5 N29         2.4020   -1.3300    0.4880 nc        1 0DQ     -0.136100
      6 S30         2.9770    0.1890    0.0030 ss        1 0DQ      0.041200
      7 C31        -0.9540   -0.1480    0.1030 ca        1 0DQ     -0.106500
      8 C32        -1.7020   -1.1590   -0.5200 ca        1 0DQ     -0.117500
      9 C33        -3.0910   -1.0660   -0.5750 ca        1 0DQ     -0.131500
     10 C34        -3.7450    0.0290   -0.0090 ca        1 0DQ     -0.126000
     11 C35        -3.0070    1.0280    0.6230 ca        1 0DQ     -0.131500
     12 C36        -1.6170    0.9410    0.6860 ca        1 0DQ     -0.117500
     13 H25         0.1010    2.2520   -0.7450 hn        1 0DQ      0.417800
     14 H26        -1.1900   -2.0280   -0.9600 ha        1 0DQ      0.142500
     15 H27        -3.6720   -1.8610   -1.0640 ha        1 0DQ      0.134000
     16 H28        -4.8420    0.1000   -0.0560 ha        1 0DQ      0.133000
     17 H29        -3.5210    1.8840    1.0830 ha        1 0DQ      0.134000
     18 H30        -1.0460    1.7140    1.2220 ha        1 0DQ      0.142500
     19 H2          1.7090    2.5790   -1.1110 hn        1 0DQ      0.417800
@<TRIPOS>BOND
     1    1    2 1   
     2    1   13 1   
     3    1   19 1   
     4    2    3 2   
     5    2    6 1   
     6    3    4 1   
     7    3    7 1   
     8    4    5 2   
     9    5    6 1   
    10    7    8 ar  
    11    7   12 ar  
    12    8    9 ar  
    13    8   14 1   
    14    9   10 ar  
    15    9   15 1   
    16   10   11 ar  
    17   10   16 1   
    18   11   12 ar  
    19   11   17 1   
    20   12   18 1   
@<TRIPOS>SUBSTRUCTURE
     1 0DQ         1 TEMP              0 ****  ****    0 ROOT
