@<TRIPOS>MOLECULE
0DQ
   20    21     1     0     0
SMALL
bcc


@<TRIPOS>ATOM
      1 N25         0.0100   -0.0690   -0.0260 n4        1 0DQ     -0.645000
      2 C26         1.4320    0.0640   -0.0390 cc        1 0DQ     -0.259800
      3 C27         2.2330    0.1030    1.1340 cd        1 0DQ      0.454800
      4 N28         3.6070    0.1820    0.8090 nd        1 0DQ     -0.233000
      5 N29         3.8190    0.2120   -0.4180 nc        1 0DQ     -0.072100
      6 S30         2.4650    0.1530   -1.3830 ss        1 0DQ      0.288200
      7 C31         1.7420    0.0500    2.4970 ca        1 0DQ     -0.210500
      8 C32         2.3590   -0.7950    3.4310 ca        1 0DQ     -0.103000
      9 C33         1.8770   -0.8510    4.7390 ca        1 0DQ     -0.116000
     10 C34         0.7970   -0.0590    5.1250 ca        1 0DQ     -0.076000
     11 C35         0.1970    0.8040    4.2020 ca        1 0DQ     -0.116000
     12 C36         0.6660    0.8640    2.8940 ca        1 0DQ     -0.103000
     13 H25        -0.3060   -0.2490    0.9440 hn        1 0DQ      0.472467
     14 H26         3.2250   -1.4110    3.1380 ha        1 0DQ      0.142500
     15 H27         2.3630   -1.5180    5.4710 ha        1 0DQ      0.162500
     16 H28         0.4230   -0.1000    6.1620 ha        1 0DQ      0.164000
     17 H29        -0.6360    1.4520    4.5180 ha        1 0DQ      0.162500
     18 H30         0.2380    1.6040    2.2010 ha        1 0DQ      0.142500
     19 H2         -0.4290    0.7980   -0.3620 hn        1 0DQ      0.472467
     20 H253       -0.2770   -0.8540   -0.6260 hn        1 0DQ      0.472467
@<TRIPOS>BOND
     1    1    2 1   
     2    1   13 1   
     3    1   19 1   
     4    1   20 1   
     5    2    3 2   
     6    2    6 1   
     7    3    4 1   
     8    3    7 1   
     9    4    5 2   
    10    5    6 1   
    11    7    8 ar  
    12    7   12 ar  
    13    8    9 ar  
    14    8   14 1   
    15    9   10 ar  
    16    9   15 1   
    17   10   11 ar  
    18   10   16 1   
    19   11   12 ar  
    20   11   17 1   
    21   12   18 1   
@<TRIPOS>SUBSTRUCTURE
     1 0DQ         1 TEMP              0 ****  ****    0 ROOT
