@<TRIPOS>MOLECULE
0DQ
   19    20     1     0     0
SMALL
bcc


@<TRIPOS>ATOM
      1 N25         0.0510   -0.3720   -0.0670 nh        1 0DQ     -0.796200
      2 C26         1.3810   -0.0780   -0.0430 cc        1 0DQ      0.128200
      3 C27         2.1990    0.0660    1.1090 cd        1 0DQ      0.208800
      4 N28         3.5630    0.2240    0.7860 nd        1 0DQ     -0.238000
      5 N29         3.7990    0.2310   -0.4290 nc        1 0DQ     -0.137100
      6 S30         2.4260    0.0270   -1.4020 ss        1 0DQ      0.035200
      7 C31         1.7270    0.0480    2.4830 ca        1 0DQ     -0.097500
      8 C32         2.3690   -0.7520    3.4390 ca        1 0DQ     -0.119500
      9 C33         1.9050   -0.7770    4.7530 ca        1 0DQ     -0.128500
     10 C34         0.8020   -0.0080    5.1250 ca        1 0DQ     -0.127000
     11 C35         0.1680    0.7970    4.1800 ca        1 0DQ     -0.128500
     12 C36         0.6280    0.8310    2.8650 ca        1 0DQ     -0.119500
     13 H25        -0.4620   -0.0900   -0.8700 hn        1 0DQ      0.424800
     14 H26         3.2430   -1.3550    3.1510 ha        1 0DQ      0.136000
     15 H27         2.4130   -1.4070    5.4990 ha        1 0DQ      0.133500
     16 H28         0.4370   -0.0320    6.1620 ha        1 0DQ      0.133000
     17 H29        -0.6930    1.4150    4.4730 ha        1 0DQ      0.133500
     18 H30         0.1440    1.4950    2.1350 ha        1 0DQ      0.136000
     19 H2         -0.4310   -0.3140    0.8030 hn        1 0DQ      0.424800
@<TRIPOS>BOND
     1    1    2 1   
     2    1   13 1   
     3    1   19 1   
     4    2    3 2   
     5    2    6 1   
     6    3    4 1   
     7    3    7 1   
     8    4    5 2   
     9    5    6 1   
    10    7    8 ar  
    11    7   12 ar  
    12    8    9 ar  
    13    8   14 1   
    14    9   10 ar  
    15    9   15 1   
    16   10   11 ar  
    17   10   16 1   
    18   11   12 ar  
    19   11   17 1   
    20   12   18 1   
@<TRIPOS>SUBSTRUCTURE
     1 0DQ         1 TEMP              0 ****  ****    0 ROOT
