@<TRIPOS>MOLECULE
0DS
   68    68     1     0     0
SMALL
bcc


@<TRIPOS>ATOM
      1 C11        -3.8530    0.2830    1.2140 c3        1 0DS     -0.149400
      2 C21        -5.2260    0.5330    0.6330 c         1 0DS      0.590100
      3 O21        -5.5410    0.2150   -0.5250 o         1 0DS     -0.565100
      4 N3         -6.1460    1.2670    1.4460 n         1 0DS     -0.352400
      5 O3         -7.4300    1.1150    1.1150 oh        1 0DS     -0.436100
      6 C1         -1.5330   -0.3830    0.7020 c         1 0DS      0.663100
      7 O1         -1.1770   -0.1950    1.8830 o         1 0DS     -0.617100
      8 C2         -2.7830    0.2870    0.1300 c3        1 0DS     -0.122700
      9 C3         -2.4450    1.7100   -0.3000 c3        1 0DS     -0.077400
     10 C4         -1.9350    1.7900   -1.7330 c3        1 0DS     -0.067700
     11 C5         -3.0810    1.7130   -2.7220 c3        1 0DS     -0.096600
     12 CM4        -1.1570    3.0740   -1.9360 c3        1 0DS     -0.096600
     13 N          -0.8300   -1.2320   -0.1290 n         1 0DS     -0.559900
     14 CA          0.4040   -1.8600    0.2710 c3        1 0DS      0.044700
     15 C           1.5760   -1.2660   -0.5560 c         1 0DS      0.639100
     16 O           1.5800   -1.3590   -1.8030 o         1 0DS     -0.636100
     17 CB          0.3980   -3.3820    0.0430 c3        1 0DS     -0.090400
     18 CG          1.5130   -4.0730    0.8150 c3        1 0DS     -0.069700
     19 CD1         1.1530   -4.2390    2.2770 c3        1 0DS     -0.092600
     20 CD2         1.8050   -5.4250    0.1950 c3        1 0DS     -0.092600
     21 N1          2.6030   -0.6590    0.1250 n         1 0DS     -0.548900
     22 CA1         3.6680    0.0400   -0.5530 c3        1 0DS      0.039700
     23 C6          4.8110   -0.9230   -0.9660 c         1 0DS      0.641100
     24 O2          5.9480   -0.8370   -0.4590 o         1 0DS     -0.621100
     25 CB1         4.2800    1.1660    0.2970 c3        1 0DS     -0.044100
     26 CG1         3.2660    2.1760    0.6970 ca        1 0DS     -0.091300
     27 CD11        2.7970    2.2240    2.0150 ca        1 0DS     -0.126500
     28 CD21        2.7790    3.0980   -0.2380 ca        1 0DS     -0.126500
     29 CE1         1.8540    3.1800    2.3920 ca        1 0DS     -0.125000
     30 CE2         1.8350    4.0500    0.1390 ca        1 0DS     -0.125000
     31 CZ          1.3720    4.0940    1.4550 ca        1 0DS     -0.129000
     32 N2          4.5270   -1.8560   -1.9220 n         1 0DS     -0.665000
     33 H12        -3.5860    1.0410    1.9980 hc        1 0DS      0.086200
     34 H13        -3.8820   -0.7230    1.7140 hc        1 0DS      0.086200
     35 HN         -6.0550    1.0520    2.4330 hn        1 0DS      0.299500
     36 HO         -7.5490    1.6010    0.2750 ho        1 0DS      0.436000
     37 H22        -3.1760   -0.2870   -0.7570 hc        1 0DS      0.092700
     38 H31        -3.3700    2.3410   -0.2100 hc        1 0DS      0.058700
     39 H32        -1.6800    2.1370    0.4020 hc        1 0DS      0.058700
     40 H4         -1.2400    0.9240   -1.9200 hc        1 0DS      0.044700
     41 H51        -2.6860    1.5990   -3.7600 hc        1 0DS      0.038700
     42 H52        -3.7470    0.8450   -2.4930 hc        1 0DS      0.038700
     43 H53        -3.6970    2.6430   -2.6790 hc        1 0DS      0.038700
     44 HM41       -0.2640    3.1070   -1.2650 hc        1 0DS      0.038700
     45 HM42       -0.8090    3.1470   -2.9950 hc        1 0DS      0.038700
     46 HM43       -1.7990    3.9600   -1.7140 hc        1 0DS      0.038700
     47 H          -1.0690   -1.2940   -1.0920 hn        1 0DS      0.328500
     48 HA          0.5520   -1.6610    1.3760 h1        1 0DS      0.100700
     49 HB2        -0.5890   -3.8070    0.3650 hc        1 0DS      0.063200
     50 HB3         0.5140   -3.5850   -1.0560 hc        1 0DS      0.063200
     51 HG          2.4460   -3.4450    0.7450 hc        1 0DS      0.050700
     52 HD11        1.9990   -4.7170    2.8280 hc        1 0DS      0.037533
     53 HD12        0.9380   -3.2510    2.7490 hc        1 0DS      0.037533
     54 HD13        0.2500   -4.8870    2.3880 hc        1 0DS      0.037533
     55 HD21        2.1420   -5.3070   -0.8630 hc        1 0DS      0.037533
     56 HD22        2.6090   -5.9460    0.7680 hc        1 0DS      0.037533
     57 HD23        0.8900   -6.0660    0.2060 hc        1 0DS      0.037533
     58 H1          2.5290   -0.5230    1.1070 hn        1 0DS      0.327500
     59 HA1         3.2470    0.4960   -1.5040 h1        1 0DS      0.083700
     60 HB21        4.7840    0.7240    1.1980 hc        1 0DS      0.078200
     61 HB31        5.0850    1.6480   -0.3210 hc        1 0DS      0.078200
     62 HD1         3.1780    1.5090    2.7590 ha        1 0DS      0.132000
     63 HD2         3.1480    3.0680   -1.2740 ha        1 0DS      0.132000
     64 HE1         1.4900    3.2110    3.4290 ha        1 0DS      0.134000
     65 HE2         1.4560    4.7700   -0.6020 ha        1 0DS      0.134000
     66 HZ          0.6290    4.8480    1.7520 ha        1 0DS      0.133000
     67 HN1         3.6220   -1.9190   -2.3210 hn        1 0DS      0.323500
     68 HN2         5.2320   -2.4830   -2.2190 hn        1 0DS      0.323500
@<TRIPOS>BOND
     1    1    2 1   
     2    1    8 1   
     3    1   33 1   
     4    1   34 1   
     5    2    3 2   
     6    2    4 1   
     7    4    5 1   
     8    4   35 1   
     9    5   36 1   
    10    6    7 2   
    11    6    8 1   
    12    6   13 1   
    13    8    9 1   
    14    8   37 1   
    15    9   10 1   
    16    9   38 1   
    17    9   39 1   
    18   10   11 1   
    19   10   12 1   
    20   10   40 1   
    21   11   41 1   
    22   11   42 1   
    23   11   43 1   
    24   12   44 1   
    25   12   45 1   
    26   12   46 1   
    27   13   14 1   
    28   13   47 1   
    29   14   15 1   
    30   14   17 1   
    31   14   48 1   
    32   15   16 2   
    33   15   21 1   
    34   17   18 1   
    35   17   49 1   
    36   17   50 1   
    37   18   19 1   
    38   18   20 1   
    39   18   51 1   
    40   19   52 1   
    41   19   53 1   
    42   19   54 1   
    43   20   55 1   
    44   20   56 1   
    45   20   57 1   
    46   21   22 1   
    47   21   58 1   
    48   22   23 1   
    49   22   25 1   
    50   22   59 1   
    51   23   24 2   
    52   23   32 1   
    53   25   26 1   
    54   25   60 1   
    55   25   61 1   
    56   26   27 ar  
    57   26   28 ar  
    58   27   29 ar  
    59   27   62 1   
    60   28   30 ar  
    61   28   63 1   
    62   29   31 ar  
    63   29   64 1   
    64   30   31 ar  
    65   30   65 1   
    66   31   66 1   
    67   32   67 1   
    68   32   68 1   
@<TRIPOS>SUBSTRUCTURE
     1 0DS         1 TEMP              0 ****  ****    0 ROOT
