@<TRIPOS>MOLECULE
0DS
   68    65     1     0     0
SMALL
bcc


@<TRIPOS>ATOM
      1 C11         2.3800    1.7820   -3.1990 c3        1 0DS     -0.187000
      2 C21         3.9370    1.7710   -3.2180 c2        1 0DS      0.239000
      3 O21         4.5480    1.8280   -2.1950 o         1 0DS     -0.344000
      4 N3          4.6180    1.7700   -4.4460 n         1 0DS     -0.192000
      5 O3          5.9920    1.8230   -4.4720 oh        1 0DS     -0.237000
      6 C1          1.0350    1.0680   -1.2340 c1        1 0DS      0.302000
      7 O1          0.0500    0.6450   -1.8790 o         1 0DS     -0.394000
      8 C2          1.8710    2.1790   -1.7930 c2        1 0DS     -0.108000
      9 C3          1.0200    3.4660   -1.9000 c3        1 0DS     -0.153000
     10 C4          1.9770    4.7020   -2.0760 c3        1 0DS     -0.107000
     11 C5          1.8010    5.3100   -3.4680 c3        1 0DS     -0.211000
     12 CM4         1.6460    5.7420   -1.0220 c3        1 0DS     -0.211000
     13 N           1.2880    0.5730    0.0800 n3        1 0DS     -0.363000
     14 CA          0.8050   -0.6760    0.4550 c3        1 0DS      0.012000
     15 C          -0.6860   -0.5560    0.8910 c2        1 0DS      0.295000
     16 O          -1.3240    0.4420    0.6080 o         1 0DS     -0.402000
     17 CB          1.6490   -1.2160    1.6270 c3        1 0DS     -0.159000
     18 CG          2.8150   -2.0320    1.0860 c3        1 0DS     -0.114000
     19 CD1         2.4330   -3.5740    1.1050 c3        1 0DS     -0.210000
     20 CD2         4.0460   -1.8070    1.9660 c3        1 0DS     -0.210000
     21 N1         -1.3440   -1.6830    1.5440 n         1 0DS     -0.363000
     22 CA1        -2.7680   -1.8010    1.5060 c3        1 0DS      0.024000
     23 C6         -3.3740   -0.4900    0.9730 c2        1 0DS      0.281000
     24 O2         -3.3400    0.5110    1.6540 o         1 0DS     -0.388000
     25 CB1        -3.2940   -2.0680    2.9110 c3        1 0DS     -0.144000
     26 CG1        -4.5880   -2.9020    2.8300 c2        1 0DS     -0.075000
     27 CD11       -5.8240   -2.2690    2.8980 c2        1 0DS     -0.129000
     28 CD21       -4.5230   -4.2800    2.7110 c1        1 0DS     -0.122000
     29 CE1        -6.9810   -3.0120    2.8470 c1        1 0DS     -0.128000
     30 CE2        -5.6900   -5.0290    2.6590 c1        1 0DS     -0.130500
     31 CZ         -6.9170   -4.3960    2.7270 c1        1 0DS     -0.130500
     32 N2         -4.0180   -0.4580   -0.3330 n         1 0DS     -0.424000
     33 H12         2.0480    2.4410   -3.8690 hc        1 0DS      0.127000
     34 H13         2.0320    0.8500   -3.4370 hc        1 0DS      0.127000
     35 HN          4.1820    1.7490   -5.1740 hn        1 0DS      0.216000
     36 HO          6.2850    1.7930   -5.3450 ho        1 0DS      0.235000
     37 H22         2.6780    2.3530   -1.1690 ha        1 0DS      0.126000
     38 H31         0.4810    3.5790   -1.0740 hc        1 0DS      0.103000
     39 H32         0.4370    3.4020   -2.6510 hc        1 0DS      0.103000
     40 H4          2.8980    4.4130   -1.9690 hc        1 0DS      0.076000
     41 H51         2.4660    4.9190   -4.0830 hc        1 0DS      0.077333
     42 H52         1.9400    6.3150   -3.4170 hc        1 0DS      0.077333
     43 H53         0.9030    5.1210   -3.7960 hc        1 0DS      0.077333
     44 HM41        2.1490    6.5530   -1.1990 hc        1 0DS      0.077333
     45 HM42        0.7050    5.9370   -1.0460 hc        1 0DS      0.077333
     46 HM43        1.8820    5.3990   -0.1450 hc        1 0DS      0.077333
     47 H           1.8090    1.0260    0.6300 hn        1 0DS      0.255000
     48 HA          0.8750   -1.3340   -0.3590 h1        1 0DS      0.126000
     49 HB2         1.1160   -1.7600    2.1740 hc        1 0DS      0.107000
     50 HB3         2.0160   -0.4160    2.1840 hc        1 0DS      0.107000
     51 HG          3.0130   -1.7500    0.1620 hc        1 0DS      0.096000
     52 HD11        2.2610   -3.8570    2.0320 hc        1 0DS      0.075167
     53 HD12        1.6530   -3.7130    0.5810 hc        1 0DS      0.075167
     54 HD13        3.1930   -4.1130    0.7250 hc        1 0DS      0.075167
     55 HD21        4.7680   -2.3160    1.6310 hc        1 0DS      0.075167
     56 HD22        3.8510   -2.0830    2.8650 hc        1 0DS      0.075167
     57 HD23        4.2750   -0.8960    1.9600 hc        1 0DS      0.075167
     58 H1         -0.8420   -2.3210    1.9700 hn        1 0DS      0.262000
     59 HA1        -3.0220   -2.5470    0.9140 h1        1 0DS      0.131000
     60 HB21       -2.6080   -2.5690    3.4340 hc        1 0DS      0.114500
     61 HB31       -3.4830   -1.2140    3.3550 hc        1 0DS      0.114500
     62 HD1        -5.8740   -1.2610    2.9850 ha        1 0DS      0.134000
     63 HD2        -3.6840   -4.7130    2.6650 ha        1 0DS      0.138000
     64 HE1        -7.8430   -2.5670    2.8940 ha        1 0DS      0.132000
     65 HE2        -5.6460   -5.9850    2.5760 ha        1 0DS      0.130000
     66 HZ         -7.7430   -4.9240    2.6910 ha        1 0DS      0.130000
     67 HN1        -3.8500   -1.1500   -0.9630 hn        1 0DS      0.237500
     68 HN2        -4.5640    0.2780   -0.5730 hn        1 0DS      0.237500
@<TRIPOS>BOND
     1    1    2 1   
     2    1    8 1   
     3    1   33 1   
     4    1   34 1   
     5    2    3 1   
     6    2    4 1   
     7    4    5 1   
     8    4   35 1   
     9    5   36 1   
    10    6    7 1   
    11    6   13 1   
    12    8    9 1   
    13    8   37 1   
    14    9   10 1   
    15    9   38 1   
    16    9   39 1   
    17   10   11 1   
    18   10   12 1   
    19   10   40 1   
    20   11   41 1   
    21   11   42 1   
    22   11   43 1   
    23   12   44 1   
    24   12   45 1   
    25   12   46 1   
    26   13   14 1   
    27   13   47 1   
    28   14   15 1   
    29   14   17 1   
    30   14   48 1   
    31   15   16 1   
    32   15   21 1   
    33   17   18 1   
    34   17   49 1   
    35   17   50 1   
    36   18   19 1   
    37   18   20 1   
    38   18   51 1   
    39   19   52 1   
    40   19   53 1   
    41   19   54 1   
    42   20   55 1   
    43   20   56 1   
    44   20   57 1   
    45   21   22 1   
    46   21   58 1   
    47   22   23 1   
    48   22   25 1   
    49   22   59 1   
    50   23   24 1   
    51   23   32 1   
    52   25   26 1   
    53   25   60 1   
    54   25   61 1   
    55   26   27 1   
    56   26   28 1   
    57   27   29 1   
    58   27   62 1   
    59   28   63 1   
    60   29   64 1   
    61   30   31 1   
    62   30   65 1   
    63   31   66 1   
    64   32   67 1   
    65   32   68 1   
@<TRIPOS>SUBSTRUCTURE
     1 0DS         1 TEMP              0 ****  ****    0 ROOT
