@<TRIPOS>MOLECULE
0DT
   34    35     1     0     0
SMALL
bcc


@<TRIPOS>ATOM
      1 OP3        -1.5100   -2.2140    4.0080 o         1 0DT     -0.923167
      2 P          -0.3670   -2.8400    3.2460 p5        1 0DT      1.323900
      3 OP1         0.5330   -3.5800    4.2060 o         1 0DT     -0.923167
      4 OP2        -0.9150   -3.8070    2.2220 o         1 0DT     -0.923167
      5 O5'         0.4600   -1.7090    2.5120 os        1 0DT     -0.577200
      6 C5'        -0.2360   -0.7790    1.7130 c3        1 0DT      0.211400
      7 C4'         0.1760    0.6410    2.1060 c3        1 0DT      0.062100
      8 O4'        -0.6860    1.4890    1.6770 os        1 0DT     -0.437600
      9 C3'         1.5290    1.0340    1.3960 c3        1 0DT      0.120100
     10 O3'         2.3760    1.6080    2.2850 oh        1 0DT     -0.660800
     11 C2'         1.1520    2.0180    0.3260 c3        1 0DT     -0.121400
     12 C1'        -0.1770    1.9500    0.2470 c3        1 0DT      0.306500
     13 N1         -0.5570    1.0080   -0.7300 n         1 0DT     -0.369000
     14 C2         -1.7910    0.2390   -0.5630 c         1 0DT      0.796500
     15 O2         -2.4750    0.3990    0.4290 o         1 0DT     -0.710500
     16 N3         -2.2310   -0.6800   -1.6130 n         1 0DT     -0.598500
     17 C4         -1.4310   -0.8730   -2.7700 c         1 0DT      0.718700
     18 O4         -1.8200   -1.5970   -3.6650 o         1 0DT     -0.683500
     19 C5         -0.1660   -0.1400   -2.9170 cc        1 0DT     -0.299400
     20 C5M         0.6480   -0.2790   -4.1880 c3        1 0DT     -0.029900
     21 C6          0.2630    0.7960   -1.8690 cd        1 0DT      0.072600
     22 H5'        -0.0190   -0.9330    0.7690 h1        1 0DT      0.012700
     23 H5''       -1.2000   -0.8890    1.8480 h1        1 0DT      0.012700
     24 H4'         0.2690    0.7120    3.0770 h1        1 0DT      0.036700
     25 H3'         1.9430    0.2430    0.9970 h1        1 0DT      0.150700
     26 HO3'        3.2160    1.4650    2.0290 ho        1 0DT      0.483000
     27 H2'         1.4330    2.9220    0.5800 hc        1 0DT      0.051200
     28 H2''        1.5560    1.7630   -0.5260 hc        1 0DT      0.051200
     29 H1'        -0.5450    2.8310    0.0270 h2        1 0DT      0.081700
     30 H3         -3.0020   -1.1580   -1.5070 hn        1 0DT      0.321500
     31 H71         0.1470    0.1010   -4.9400 hc        1 0DT      0.053700
     32 H72         0.8260   -1.2270   -4.3600 hc        1 0DT      0.053700
     33 H73         1.4970    0.2000   -4.0870 hc        1 0DT      0.053700
     34 H6          1.1030    1.2850   -1.9630 h4        1 0DT      0.280000
@<TRIPOS>BOND
     1    1    2 1   
     2    2    3 1   
     3    2    4 1   
     4    2    5 1   
     5    5    6 1   
     6    6    7 1   
     7    6   22 1   
     8    6   23 1   
     9    7    8 1   
    10    7    9 1   
    11    7   24 1   
    12    8   12 1   
    13    9   10 1   
    14    9   11 1   
    15    9   25 1   
    16   10   26 1   
    17   11   12 1   
    18   11   27 1   
    19   11   28 1   
    20   12   13 1   
    21   12   29 1   
    22   13   14 1   
    23   13   21 1   
    24   14   15 2   
    25   14   16 1   
    26   16   17 1   
    27   16   30 1   
    28   17   18 2   
    29   17   19 1   
    30   19   20 1   
    31   19   21 2   
    32   20   31 1   
    33   20   32 1   
    34   20   33 1   
    35   21   34 1   
@<TRIPOS>SUBSTRUCTURE
     1 0DT         1 TEMP              0 ****  ****    0 ROOT
