@<TRIPOS>MOLECULE
0DU
   53    55     1     0     0
SMALL
bcc


@<TRIPOS>ATOM
      1 C10         2.3140   -0.5050    0.4440 ca        1 0DU     -0.119800
      2 C13        -0.1470   -1.7400    1.0570 ca        1 0DU     -0.016300
      3 C15        -2.6210   -2.2190    0.5200 c3        1 0DU     -0.060300
      4 C20        -5.1600    1.2410   -1.1040 ca        1 0DU      0.050400
      5 C22        -5.8630    2.4510   -1.1060 ca        1 0DU     -0.142500
      6 C24        -3.9300    3.5740   -0.1870 ca        1 0DU     -0.142500
      7 C02         5.8580    1.7260   -0.4470 cc        1 0DU      0.051400
      8 C03         5.6590    0.5170   -1.0650 cd        1 0DU     -0.226000
      9 C04         4.5070   -0.2760   -0.7650 cd        1 0DU     -0.094200
     10 C05         4.4090   -1.6070   -1.5140 c3        1 0DU      0.688100
     11 F06         4.0230   -2.6860   -0.7620 f         1 0DU     -0.234633
     12 F07         3.5570   -1.5960   -2.5910 f         1 0DU     -0.234633
     13 F08         5.6020   -2.0290   -2.0640 f         1 0DU     -0.234633
     14 C09         3.5750    0.1600    0.1330 cc        1 0DU     -0.020400
     15 C11         1.9910   -0.8260    1.7710 ca        1 0DU     -0.091000
     16 C12         0.7820   -1.4440    2.0680 ca        1 0DU     -0.140000
     17 C14        -1.4040   -2.4400    1.4240 c3        1 0DU     -0.045100
     18 N16        -3.0550   -0.8350    0.4750 n         1 0DU     -0.490900
     19 O18        -2.4400   -0.4200   -1.7240 o         1 0DU     -0.626100
     20 C19        -3.8360    1.1870   -0.6470 ca        1 0DU     -0.108600
     21 C23        -5.2440    3.6110   -0.6480 ca        1 0DU     -0.117000
     22 C25        -3.2290    2.3630   -0.1850 ca        1 0DU      0.050400
     23 CL2        -1.6320    2.3420    0.3870 cl        1 0DU     -0.057400
     24 C27        -3.7510   -3.1680    1.0880 c         1 0DU      0.909600
     25 O28        -4.6990   -2.6450    1.7350 o         1 0DU     -0.822800
     26 O29        -3.6010   -4.3960    0.8590 o         1 0DU     -0.822800
     27 C30         0.1700   -1.3960   -0.2630 ca        1 0DU     -0.140000
     28 C31         1.3850   -0.7890   -0.5670 ca        1 0DU     -0.091000
     29 C32         3.8260    1.4270    0.8690 c         1 0DU      0.685700
     30 O33         3.1040    1.8560    1.7880 o         1 0DU     -0.616500
     31 N34         4.9630    2.1900    0.5110 n         1 0DU     -0.347000
     32 C35         5.2020    3.4620    1.1430 c3        1 0DU      0.063300
     33 H15        -2.3790   -2.5670   -0.5250 h1        1 0DU      0.072700
     34 H24        -3.4460    4.4920    0.1780 ha        1 0DU      0.141000
     35 H03         6.3830    0.1500   -1.8060 ha        1 0DU      0.159000
     36 H11         2.6930   -0.5700    2.5780 ha        1 0DU      0.129500
     37 H12         0.5430   -1.6960    3.1120 ha        1 0DU      0.152500
     38 H14        -1.2100   -3.5510    1.4050 hc        1 0DU      0.069200
     39 H14A       -1.6850   -2.1710    2.4780 hc        1 0DU      0.069200
     40 HN16       -3.7600   -0.6290    1.1570 hn        1 0DU      0.327500
     41 H23        -5.7960    4.5620   -0.6480 ha        1 0DU      0.128000
     42 H30        -0.5620   -1.5810   -1.0700 ha        1 0DU      0.152500
     43 H31         1.6150   -0.5280   -1.6110 ha        1 0DU      0.129500
     44 H35         5.3110    4.2640    0.3650 h1        1 0DU      0.055367
     45 H35A        4.3410    3.7190    1.8180 h1        1 0DU      0.055367
     46 H35B        6.1430    3.4160    1.7540 h1        1 0DU      0.055367
     47 C17        -3.0690   -0.1110   -0.6880 c         1 0DU      0.661700
     48 CL1        -5.9370   -0.1610   -1.6570 cl        1 0DU     -0.057400
     49 C01         7.0480    2.5570   -0.8020 c3        1 0DU     -0.064900
     50 H22        -6.9030    2.4830   -1.4640 ha        1 0DU      0.141000
     51 H01         7.6570    2.7920    0.1070 hc        1 0DU      0.055033
     52 H01A        7.6940    2.0060   -1.5290 hc        1 0DU      0.055033
     53 H01B        6.7260    3.5200   -1.2730 hc        1 0DU      0.055033
@<TRIPOS>BOND
     1    1   14 1   
     2    1   15 ar  
     3    1   28 ar  
     4    2   16 ar  
     5    2   17 1   
     6    2   27 ar  
     7    3   17 1   
     8    3   18 1   
     9    3   24 1   
    10    3   33 1   
    11    4    5 ar  
    12    4   20 ar  
    13    4   48 1   
    14    5   21 ar  
    15    5   50 1   
    16    6   21 ar  
    17    6   22 ar  
    18    6   34 1   
    19    7    8 2   
    20    7   31 1   
    21    7   49 1   
    22    8    9 1   
    23    8   35 1   
    24    9   10 1   
    25    9   14 2   
    26   10   11 1   
    27   10   12 1   
    28   10   13 1   
    29   14   29 1   
    30   15   16 ar  
    31   15   36 1   
    32   16   37 1   
    33   17   38 1   
    34   17   39 1   
    35   18   40 1   
    36   18   47 1   
    37   19   47 2   
    38   20   22 ar  
    39   20   47 1   
    40   21   41 1   
    41   22   23 1   
    42   24   25 1   
    43   24   26 1   
    44   27   28 ar  
    45   27   42 1   
    46   28   43 1   
    47   29   30 2   
    48   29   31 1   
    49   31   32 1   
    50   32   44 1   
    51   32   45 1   
    52   32   46 1   
    53   49   51 1   
    54   49   52 1   
    55   49   53 1   
@<TRIPOS>SUBSTRUCTURE
     1 0DU         1 TEMP              0 ****  ****    0 ROOT
