@<TRIPOS>MOLECULE
0DU
   54    53     1     0     0
SMALL
bcc


@<TRIPOS>ATOM
      1 C10        -0.0760    0.2940   -0.6970 c1        1 0DU     -0.145000
      2 C13         1.1480   -0.9690    2.3580 c3        1 0DU     -0.053000
      3 C15         1.2330   -0.3380    6.4230 c1        1 0DU     -0.224500
      4 C20         4.7520    3.4070    0.8810 c2        1 0DU     -0.128000
      5 C22         4.5150    3.6460   -0.5060 c1        1 0DU     -0.050000
      6 C24         2.1300    4.1070    0.1250 c2        1 0DU     -0.088000
      7 C02        -1.9820    0.8170   -3.6720 c2        1 0DU      0.154000
      8 C03        -1.3640   -0.1640   -2.9380 cu        1 0DU     -0.278000
      9 C04        -0.0800   -0.8360   -2.9970 cx        1 0DU     -0.037000
     10 C05         0.1370   -2.2380   -2.3990 c3        1 0DU      0.451000
     11 F06         1.4020   -2.4370   -1.9050 f         1 0DU     -0.158000
     12 F07        -0.7020   -2.6220   -1.3880 f         1 0DU     -0.158000
     13 F08        -0.0080   -3.2230   -3.3490 f         1 0DU     -0.158000
     14 C09        -0.2290    0.4010   -2.0910 cx        1 0DU     -0.021000
     15 C11         3.6670   -0.5790    1.7120 c1        1 0DU     -0.209000
     16 C12         2.5180   -0.7440    2.0040 c1        1 0DU     -0.177000
     17 C14         0.9240   -1.4100    5.9920 c1        1 0DU     -0.224500
     18 N16         3.9680    2.0820    3.7920 nt        1 0DU     -0.415000
     19 O18         4.3540    4.3180    4.0260 o         1 0DU     -0.382000
     20 C19         3.7730    3.5360    1.8320 c2        1 0DU     -0.001000
     21 C23         3.1690    4.0010   -0.9170 c3        1 0DU     -0.217000
     22 C25         2.4290    3.8800    1.4290 c2        1 0DU     -0.111000
     23 Cl2         1.2220    3.9790    2.6250 cl        1 0DU     -0.002000
     24 C27         4.8150    4.4100    6.5320 c1        1 0DU      0.453000
     25 O28         5.0830    5.5660    6.5760 o         1 0DU     -0.228000
     26 O29         4.5530    3.2460    6.5460 o         1 0DU     -0.228000
     27 C30         0.2180    0.1540    1.9110 c3        1 0DU     -0.054000
     28 C31         0.0630    0.2250    0.4900 c1        1 0DU     -0.090000
     29 C32        -0.1900    1.8520   -2.5870 c2        1 0DU      0.354000
     30 O33         0.6150    2.7500   -2.3390 o         1 0DU     -0.310000
     31 N34        -1.3960    2.0550   -3.3390 n         1 0DU     -0.296000
     32 C35        -1.9110    3.3340   -3.7040 c3        1 0DU     -0.077000
     33 H15         1.5080    0.6130    6.8070 ha        1 0DU      0.225500
     34 H03         0.5190   -0.7520   -3.9320 hc        1 0DU      0.152000
     35 H11         4.6830   -0.4460    1.4370 ha        1 0DU      0.231000
     36 H12         1.0670   -1.0690    3.4800 hc        1 0DU      0.109500
     37 H14         0.8050   -1.9420    1.9060 hc        1 0DU      0.109500
     38 H14A        0.6520   -2.3660    5.6210 ha        1 0DU      0.225500
     39 HN16        3.7480    1.3120    3.2100 hn        1 0DU      0.242500
     40 H23         2.8340    3.2320   -1.6880 hc        1 0DU      0.191000
     41 H30        -0.7930   -0.0160    2.3810 hc        1 0DU      0.112000
     42 H31         0.6050    1.1420    2.2920 hc        1 0DU      0.112000
     43 H35        -2.0620    3.3880   -4.8160 h1        1 0DU      0.095667
     44 H35A       -1.1800    4.1270   -3.3910 h1        1 0DU      0.095667
     45 H35B       -2.8970    3.5170   -3.1970 h1        1 0DU      0.095667
     46 C17         4.0540    3.3500    3.2950 c2        1 0DU      0.348000
     47 Cl1         6.3310    2.9610    1.3170 cl        1 0DU      0.017000
     48 H22         3.2400    4.9750   -1.4930 hc        1 0DU      0.191000
     49 H162        4.1590    1.9250    4.7540 hn        1 0DU      0.242500
     50 C01        -3.0910    0.6650   -4.6300 c3        1 0DU     -0.185000
     51 H24         1.1070    4.3470   -0.2100 ha        1 0DU      0.158000
     52 H01        -3.1850   -0.4100   -4.9230 hc        1 0DU      0.112667
     53 H01A       -2.9250    1.2840   -5.5480 hc        1 0DU      0.112667
     54 H01B       -4.0520    0.9900   -4.1530 hc        1 0DU      0.112667
@<TRIPOS>BOND
     1    1   14 1   
     2    1   28 1   
     3    2   16 1   
     4    2   27 1   
     5    2   36 1   
     6    2   37 1   
     7    3   17 1   
     8    3   33 1   
     9    4    5 1   
    10    4   20 1   
    11    4   47 1   
    12    5   21 1   
    13    6   21 1   
    14    6   22 1   
    15    6   51 1   
    16    7    8 1   
    17    7   31 1   
    18    7   50 1   
    19    8    9 1   
    20    8   14 1   
    21    9   10 1   
    22    9   14 1   
    23    9   34 1   
    24   10   11 1   
    25   10   12 1   
    26   10   13 1   
    27   14   29 1   
    28   15   16 1   
    29   15   35 1   
    30   17   38 1   
    31   18   39 1   
    32   18   46 1   
    33   18   49 1   
    34   19   46 1   
    35   20   22 1   
    36   20   46 1   
    37   21   40 1   
    38   21   48 1   
    39   22   23 1   
    40   24   25 1   
    41   24   26 1   
    42   27   28 1   
    43   27   41 1   
    44   27   42 1   
    45   29   30 1   
    46   29   31 1   
    47   31   32 1   
    48   32   43 1   
    49   32   44 1   
    50   32   45 1   
    51   50   52 1   
    52   50   53 1   
    53   50   54 1   
@<TRIPOS>SUBSTRUCTURE
     1 0DU         1 TEMP              0 ****  ****    0 ROOT
