@<TRIPOS>MOLECULE
0DU
   54    52     1     0     0
SMALL
bcc


@<TRIPOS>ATOM
      1 C10        -0.4090   -0.2530   -0.9570 c1        1 0DU     -0.131100
      2 C13         1.4290   -1.0400    1.9450 c3        1 0DU     -0.007300
      3 C15         2.2330    0.6120    5.6590 c1        1 0DU     -0.174500
      4 C20         5.6120    4.4150    2.3170 ca        1 0DU      0.068900
      5 C22         5.7390    5.4250    1.2510 ca        1 0DU     -0.131500
      6 C24         4.1000    4.7020   -0.1770 ca        1 0DU     -0.131500
      7 C02        -2.6140    0.5740   -3.6050 c2        1 0DU      0.160400
      8 C03        -2.2910   -0.4390   -2.7640 cu        1 0DU     -0.258400
      9 C04        -1.5520   -1.6850   -2.7390 cx        1 0DU      0.007500
     10 C05        -1.8690   -2.8140   -1.7400 c3        1 0DU      0.665900
     11 F06        -0.7600   -3.5070   -1.3230 f         1 0DU     -0.227633
     12 F07        -2.5190   -2.4590   -0.5900 f         1 0DU     -0.227633
     13 F08        -2.6740   -3.7780   -2.3020 f         1 0DU     -0.227633
     14 C09        -0.8490   -0.3940   -2.2850 cx        1 0DU     -0.086700
     15 C11         3.7400   -0.9240    0.6950 c1        1 0DU     -0.155500
     16 C12         2.6860   -0.9680    1.2620 c1        1 0DU     -0.145100
     17 C14         1.9770   -0.5520    5.5430 c1        1 0DU     -0.174500
     18 N16         3.5970    1.6160    2.8150 n         1 0DU     -0.657000
     19 O18         3.5160    3.2940    4.3450 o         1 0DU     -0.638100
     20 C19         4.3710    3.8430    2.1700 ca        1 0DU     -0.169600
     21 C23         5.5480    4.8570    0.0090 ca        1 0DU     -0.141000
     22 C25         3.5600    4.1500    0.9590 ca        1 0DU      0.068900
     23 CL2         1.9190    3.7260    1.0040 cl        1 0DU     -0.043400
     24 C27         2.9990    4.7620    6.3880 c1        1 0DU      0.906000
     25 O28         2.4980    3.7750    6.8280 o         1 0DU     -0.453500
     26 O29         3.4860    5.7690    5.9850 o         1 0DU     -0.453500
     27 C30         0.4500    0.0460    1.5100 c3        1 0DU     -0.005300
     28 C31        -0.0120   -0.1200    0.1660 c1        1 0DU     -0.051100
     29 C32        -0.2840    0.6820   -3.2140 c         1 0DU      0.679500
     30 O33         0.8730    0.9950   -3.4590 o         1 0DU     -0.507500
     31 N34        -1.4490    1.4260   -3.7500 n         1 0DU     -0.255600
     32 C35        -1.4790    2.6090   -4.3180 c1        1 0DU     -0.025500
     33 H15         2.4620    1.6510    5.7630 ha        1 0DU      0.176000
     34 H03        -1.2720   -2.1390   -3.7170 hc        1 0DU      0.121700
     35 H11         4.6700   -0.8980    0.1860 ha        1 0DU      0.168500
     36 H12         1.6030   -0.9310    3.0560 hc        1 0DU      0.074700
     37 H14         0.9690   -2.0530    1.7730 hc        1 0DU      0.074700
     38 H14A        1.7520   -1.5850    5.4610 ha        1 0DU      0.176000
     39 HN16        3.2080    0.9750    3.4660 hn        1 0DU      0.324500
     40 H23         6.2260    4.1550   -0.4880 ha        1 0DU      0.153000
     41 H30        -0.4360    0.0260    2.2070 hc        1 0DU      0.075700
     42 H31         0.9390    1.0570    1.6120 hc        1 0DU      0.075700
     43 H35        -0.4950    3.1110   -4.4360 ha        1 0DU      0.017500
     44 H35A       -1.5460    4.3100   -2.5210 ha        1 0DU      0.004000
     45 H35B       -2.1750    4.3260   -2.7730 ha        1 0DU      0.004000
     46 C17         3.7980    2.9150    3.1870 c         1 0DU      0.694700
     47 CL1         6.7320    4.1070    3.5100 cl        1 0DU     -0.043400
     48 H22         5.2850    6.3990    1.5070 ha        1 0DU      0.159500
     49 H162        3.7760    1.3040    1.8930 hn        1 0DU      0.324500
     50 C01        -3.8870    0.8570   -4.2850 c3        1 0DU     -0.056900
     51 H24         3.5610    4.8860   -1.1090 ha        1 0DU      0.159500
     52 H01        -3.7350    1.4650   -5.2130 hc        1 0DU      0.079700
     53 H01A       -4.5490    1.4410   -3.5930 hc        1 0DU      0.079700
     54 H01B       -4.3970   -0.1050   -4.5400 hc        1 0DU      0.079700
@<TRIPOS>BOND
     1    1   14 1   
     2    1   28 3   
     3    2   16 1   
     4    2   27 1   
     5    2   36 1   
     6    2   37 1   
     7    3   17 3   
     8    3   33 1   
     9    4    5 ar  
    10    4   20 ar  
    11    4   47 1   
    12    5   21 ar  
    13    5   48 1   
    14    6   21 ar  
    15    6   22 ar  
    16    6   51 1   
    17    7    8 2   
    18    7   31 1   
    19    7   50 1   
    20    8    9 1   
    21    8   14 1   
    22    9   10 1   
    23    9   14 1   
    24    9   34 1   
    25   10   11 1   
    26   10   12 1   
    27   10   13 1   
    28   14   29 1   
    29   15   16 3   
    30   15   35 1   
    31   17   38 1   
    32   18   39 1   
    33   18   46 1   
    34   18   49 1   
    35   19   46 2   
    36   20   22 ar  
    37   20   46 1   
    38   21   40 1   
    39   22   23 1   
    40   24   25 2   
    41   24   26 2   
    42   27   28 1   
    43   27   41 1   
    44   27   42 1   
    45   29   30 2   
    46   29   31 1   
    47   31   32 3   
    48   32   43 1   
    49   44   45 1   
    50   50   52 1   
    51   50   53 1   
    52   50   54 1   
@<TRIPOS>SUBSTRUCTURE
     1 0DU         1 TEMP              0 ****  ****    0 ROOT
