@<TRIPOS>MOLECULE
0DU
   53    48     1     0     0
SMALL
bcc


@<TRIPOS>ATOM
      1 C10        -1.1130   -1.3440   -1.4980 c1        1 0DU     -0.063000
      2 C13         0.1610   -1.2580    0.9630 c1        1 0DU     -0.063000
      3 C15         1.4940   -0.5500    2.9200 c3        1 0DU     -0.059000
      4 C17         2.7880    0.9030    4.4250 c1        1 0DU      0.336000
      5 C20         4.0690    2.7140    5.6070 c1        1 0DU     -0.028000
      6 C22         4.1310    3.9380    6.2540 c1        1 0DU     -0.128500
      7 C24         1.7790    4.2480    5.8920 c1        1 0DU     -0.139000
      8 C01        -2.9810   -1.4160   -7.1380 c3        1 0DU     -0.186000
      9 C02        -2.6700   -1.3050   -5.6630 c2        1 0DU      0.048000
     10 C03        -3.0510   -2.4270   -4.7240 c1        1 0DU     -0.223000
     11 C04        -2.6120   -2.3890   -3.3220 c1        1 0DU     -0.092000
     12 C05        -3.1220   -3.4250   -2.3410 c3        1 0DU      0.471000
     13 F06        -3.9010   -2.8300   -1.4270 f         1 0DU     -0.162333
     14 F07        -3.8310   -4.3500   -2.9970 f         1 0DU     -0.162333
     15 F08        -2.0830   -4.0090   -1.7300 f         1 0DU     -0.162333
     16 C09        -1.7990   -1.2610   -2.8430 c1        1 0DU     -0.008000
     17 C11         0.2700   -1.4060   -1.4300 c2        1 0DU     -0.120500
     18 C12         0.9070   -1.3620   -0.2000 c2        1 0DU     -0.120500
     19 C14         0.5050   -0.0940    1.8680 c2        1 0DU     -0.124000
     20 N16         1.5390    0.4030    3.9730 n3        1 0DU     -0.322000
     21 O18         3.7880    0.2180    4.3240 o         1 0DU     -0.392000
     22 C19         2.8620    2.2570    5.1030 c1        1 0DU     -0.085000
     23 CL1         5.5050    1.7390    5.4470 cl        1 0DU      0.007000
     24 C23         2.9860    4.7050    6.3960 c1        1 0DU     -0.128500
     25 C25         1.7170    3.0240    5.2450 c2        1 0DU     -0.027000
     26 CL2         0.2150    2.4870    4.5410 cl        1 0DU      0.012000
     27 C27         2.8660   -0.6790    2.3000 c2        1 0DU      0.338000
     28 O28         3.2390    0.1420    1.4230 o         1 0DU     -0.560000
     29 O29         3.6450   -1.5900    2.6800 o         1 0DU     -0.560000
     30 C30        -1.2220   -1.1960    0.8960 c1        1 0DU     -0.111500
     31 C31        -1.8590   -1.2390   -0.3350 c1        1 0DU     -0.111500
     32 C32        -1.5190   -0.0920   -3.7610 c2        1 0DU      0.323000
     33 O33        -0.9730    0.9020   -3.3270 o         1 0DU     -0.342000
     34 N34        -1.9820   -0.1250   -5.1490 n         1 0DU     -0.242000
     35 C35        -1.7050    0.9690   -6.0150 c3        1 0DU     -0.091000
     36 H15         1.2150   -1.4160    3.2770 h1        1 0DU      0.095000
     37 H22         4.9790    4.2580    6.6100 ha        1 0DU      0.135500
     38 H24         0.9710    4.7900    5.9920 ha        1 0DU      0.142000
     39 H01        -2.1560   -1.2970   -7.6550 hc        1 0DU      0.093333
     40 H01A       -3.3600   -2.2990   -7.3270 hc        1 0DU      0.093333
     41 H01B       -3.6260   -0.7230   -7.3890 hc        1 0DU      0.093333
     42 H03        -3.6310   -3.1490   -5.0340 ha        1 0DU      0.158000
     43 H11         0.7960   -1.4790   -2.2490 ha        1 0DU      0.163500
     44 H12         1.8810   -1.4060   -0.1520 ha        1 0DU      0.163500
     45 H14         0.9020    0.6260    1.3380 ha        1 0DU      0.096000
     46 H14A       -0.3070    0.2320    2.3040 ha        1 0DU      0.096000
     47 HN16        0.7720    0.6550    4.3900 hn        1 0DU      0.258000
     48 H23         3.0300    5.5670    6.8520 ha        1 0DU      0.135500
     49 H30        -1.7480   -1.1240    1.7150 ha        1 0DU      0.137500
     50 H31        -2.8330   -1.1960   -0.3820 ha        1 0DU      0.137500
     51 H35        -2.5320    1.2420   -6.4710 h1        1 0DU      0.093667
     52 H35A       -1.3580    1.7200   -5.4920 h1        1 0DU      0.093667
     53 H35B       -1.0370    0.6980   -6.6820 h1        1 0DU      0.093667
@<TRIPOS>BOND
     1    1   17 1   
     2    1   31 1   
     3    2   18 1   
     4    2   30 1   
     5    3   19 1   
     6    3   20 1   
     7    3   27 1   
     8    3   36 1   
     9    4   20 1   
    10    4   21 1   
    11    5   22 1   
    12    5   23 1   
    13    6   24 1   
    14    6   37 1   
    15    7   25 1   
    16    7   38 1   
    17    8    9 1   
    18    8   39 1   
    19    8   40 1   
    20    8   41 1   
    21    9   10 1   
    22    9   34 1   
    23   10   42 1   
    24   11   12 1   
    25   11   16 1   
    26   12   13 1   
    27   12   14 1   
    28   12   15 1   
    29   16   32 1   
    30   17   18 1   
    31   17   43 1   
    32   18   44 1   
    33   19   45 1   
    34   19   46 1   
    35   20   47 1   
    36   22   25 1   
    37   24   48 1   
    38   25   26 1   
    39   27   28 1   
    40   27   29 1   
    41   30   49 1   
    42   31   50 1   
    43   32   33 1   
    44   32   34 1   
    45   34   35 1   
    46   35   51 1   
    47   35   52 1   
    48   35   53 1   
@<TRIPOS>SUBSTRUCTURE
     1 0DU         1 TEMP              0 ****  ****    0 ROOT
