@<TRIPOS>MOLECULE
0DU
   54    51     1     0     0
SMALL
bcc


@<TRIPOS>ATOM
      1 C10         0.3510   -0.6900   -0.3490 c2        1 0DU     -0.017000
      2 C13         3.0690   -3.0240    0.3180 c2        1 0DU     -0.169000
      3 C15         0.7210    2.3730    4.7820 c1        1 0DU     -0.227500
      4 C20         3.9330    5.2170    1.8600 c2        1 0DU     -0.133000
      5 C22         3.3080    5.6340    0.6460 c1        1 0DU     -0.046000
      6 C24         3.0270    3.1920    0.1170 c2        1 0DU     -0.103000
      7 C02        -2.3130    0.8850   -3.3490 c2        1 0DU      0.089000
      8 C03        -2.6440   -0.2570   -2.6820 c2        1 0DU     -0.213000
      9 C04        -1.7780   -0.8260   -1.6860 c2        1 0DU     -0.051000
     10 C05        -2.2740   -2.1200   -1.0260 c3        1 0DU      0.468000
     11 F06        -1.3500   -3.1310   -0.9610 f         1 0DU     -0.156333
     12 F07        -2.7180   -1.9610    0.2630 f         1 0DU     -0.156333
     13 F08        -3.3410   -2.7050   -1.6670 f         1 0DU     -0.156333
     14 C09        -0.6010   -0.2250   -1.3670 c2        1 0DU     -0.043000
     15 C11         1.6130   -1.2180   -0.8620 c2        1 0DU     -0.079000
     16 C12         2.3380   -2.1210   -0.2580 c1        1 0DU     -0.135000
     17 C14        -0.4240    2.2160    4.4740 c1        1 0DU     -0.227500
     18 N16         6.0190    3.4870    3.6500 n         1 0DU     -0.408000
     19 O18         3.9210    3.1350    4.4660 o         1 0DU     -0.393000
     20 C19         4.0840    3.8970    2.1980 c2        1 0DU     -0.005000
     21 C23         2.8180    4.6060   -0.2560 c3        1 0DU     -0.218000
     22 C25         3.6420    2.8690    1.2830 c2        1 0DU     -0.108000
     23 CL2         3.9130    1.2440    1.6980 cl        1 0DU      0.011000
     24 C27         4.5080    2.3710    6.7760 c1        1 0DU      0.447000
     25 O28         3.3700    2.1560    7.0430 o         1 0DU     -0.225500
     26 O29         5.6610    2.5700    6.5470 o         1 0DU     -0.225500
     27 C30        -0.1530   -0.4770    2.2030 c2        1 0DU     -0.148000
     28 C31         0.0870   -0.5810    0.9340 c1        1 0DU     -0.113000
     29 C32        -0.1980    1.0040   -2.0950 c2        1 0DU      0.290000
     30 O33         0.8750    1.5980   -1.9010 o         1 0DU     -0.313000
     31 N34        -1.0850    1.5570   -3.0940 n         1 0DU     -0.167000
     32 C35        -0.8090    2.6590   -3.7940 c1        1 0DU     -0.060000
     33 H15         1.7430    2.5160    5.0540 ha        1 0DU      0.228000
     34 H03        -3.5970   -0.7640   -2.9030 ha        1 0DU      0.177000
     35 H11         1.9430   -0.7870   -1.8260 ha        1 0DU      0.148000
     36 H12         3.8620   -2.7690    1.0360 ha        1 0DU      0.135500
     37 H14         2.9370   -4.0990    0.1200 ha        1 0DU      0.135500
     38 H14A       -1.4430    2.0840    4.2120 ha        1 0DU      0.228000
     39 HN16        6.6020    3.8110    2.9220 hn        1 0DU      0.241500
     40 H23         3.2790    4.8030   -1.2730 hc        1 0DU      0.183500
     41 H30        -0.6390   -1.2850    2.7720 ha        1 0DU      0.154000
     42 H31         0.1110    0.4220    2.7870 ha        1 0DU      0.154000
     43 H35         0.1670    3.1400   -3.5570 ha        1 0DU      0.074000
     44 H35A        2.4760    3.3160   -2.7100 ha        1 0DU      0.001500
     45 H35B        2.4910    2.9220   -3.2610 ha        1 0DU      0.001500
     46 C17         4.6610    3.4790    3.5180 c2        1 0DU      0.354000
     47 CL1         4.4780    6.4460    2.8970 cl        1 0DU      0.020000
     48 H22         1.7080    4.7980   -0.3950 hc        1 0DU      0.183500
     49 H162        6.4240    3.2440    4.5240 hn        1 0DU      0.241500
     50 C01        -3.2270    1.4730   -4.3730 c3        1 0DU     -0.178000
     51 H24         2.6600    2.4230   -0.5870 ha        1 0DU      0.180000
     52 H01        -2.7090    1.5410   -5.3630 hc        1 0DU      0.109667
     53 H01A       -4.1410    0.8390   -4.4780 hc        1 0DU      0.109667
     54 H01B       -3.5280    2.5090   -4.0740 hc        1 0DU      0.109667
@<TRIPOS>BOND
     1    1   14 1   
     2    1   15 1   
     3    1   28 1   
     4    2   16 1   
     5    2   36 1   
     6    2   37 1   
     7    3   17 1   
     8    3   33 1   
     9    4    5 1   
    10    4   20 1   
    11    4   47 1   
    12    5   21 1   
    13    6   21 1   
    14    6   22 1   
    15    6   51 1   
    16    7    8 1   
    17    7   31 1   
    18    7   50 1   
    19    8    9 1   
    20    8   34 1   
    21    9   10 1   
    22    9   14 1   
    23   10   11 1   
    24   10   12 1   
    25   10   13 1   
    26   14   29 1   
    27   15   16 1   
    28   15   35 1   
    29   17   38 1   
    30   18   39 1   
    31   18   46 1   
    32   18   49 1   
    33   19   46 1   
    34   20   22 1   
    35   20   46 1   
    36   21   40 1   
    37   21   48 1   
    38   22   23 1   
    39   24   25 1   
    40   24   26 1   
    41   27   28 1   
    42   27   41 1   
    43   27   42 1   
    44   29   30 1   
    45   29   31 1   
    46   31   32 1   
    47   32   43 1   
    48   44   45 1   
    49   50   52 1   
    50   50   53 1   
    51   50   54 1   
@<TRIPOS>SUBSTRUCTURE
     1 0DU         1 TEMP              0 ****  ****    0 ROOT
