@<TRIPOS>MOLECULE
0DX
  126   126     1     0     0
SMALL
bcc


@<TRIPOS>ATOM
      1 CAA        -6.4080    5.0390   -9.7890 c3        1 0DX     -0.119000
      2 CAB         6.7530   -5.7490    7.8270 c3        1 0DX     -0.119000
      3 OAE        -1.4320   -3.7680    1.6060 o         1 0DX     -0.356000
      4 OAF         1.1100    3.6620   -1.4850 o         1 0DX     -0.340000
      5 OAG        -4.0440   -1.2240   -1.1520 o         1 0DX     -0.369000
      6 OAH         3.5870    1.2780    1.5040 o         1 0DX     -0.356000
      7 CAI         0.6920   -1.8560    1.6480 c1        1 0DX     -0.125000
      8 CAJ        -1.0940    1.8290   -1.4420 c1        1 0DX     -0.114000
      9 CAK        -4.3690    2.3100   -4.1910 c3        1 0DX     -0.196000
     10 CAL         4.2110   -1.5600    4.2800 c3        1 0DX     -0.174000
     11 CAM        -4.6730   -3.8900    1.1350 c3        1 0DX     -0.176500
     12 CAN         4.3490    3.4500   -1.2160 c3        1 0DX     -0.176500
     13 CAO        -3.6190    2.3680   -2.8450 c3        1 0DX     -0.040000
     14 CAP         2.9200   -1.9120    3.5090 c3        1 0DX     -0.027000
     15 CAQ        -4.7050    3.7330   -4.6500 c3        1 0DX     -0.063000
     16 CAR         4.5400   -2.7110    5.3130 c3        1 0DX     -0.071000
     17 CAS        -5.2410   -5.3280    1.2060 c3        1 0DX     -0.064000
     18 CAT         5.2290    4.7250   -1.3230 c3        1 0DX     -0.064000
     19 CAU        -4.6870    4.3930   -8.3340 c3        1 0DX     -0.068500
     20 CAV        -6.9270    4.5200   -7.5720 c3        1 0DX     -0.068500
     21 CAW         6.9720   -3.7150    6.6550 c3        1 0DX     -0.101500
     22 CAX         4.9620   -4.2070    7.8240 c3        1 0DX     -0.101500
     23 CAY        -8.8270   -6.0610    1.8910 c3        1 0DX     -0.030750
     24 CAZ        -7.6440   -6.1180    3.9390 c3        1 0DX     -0.030750
     25 CBA         9.0080    4.7230   -1.3180 c3        1 0DX     -0.030750
     26 CBB         8.3360    5.0230   -3.4740 c3        1 0DX     -0.030750
     27 CBC        -4.2010    4.2560   -6.8960 c3        1 0DX     -0.070000
     28 CBD        -6.4370    4.3800   -6.1270 c3        1 0DX     -0.070000
     29 CBE         6.5090   -2.2660    6.4730 c3        1 0DX     -0.074500
     30 CBF         4.5030   -2.7600    7.6430 c3        1 0DX     -0.074500
     31 CBG        -7.5180   -5.9090    1.1410 c3        1 0DX     -0.104750
     32 CBH        -6.3410   -5.9690    3.1920 c3        1 0DX     -0.104750
     33 CBI         7.5970    4.9480   -0.8300 c3        1 0DX     -0.104750
     34 CBJ         6.9190    5.2560   -3.0030 c3        1 0DX     -0.104750
     35 CBK        -3.6820   -3.7820   -0.0640 c3        1 0DX     -0.031500
     36 CBL         3.4260    3.5660    0.0140 c3        1 0DX     -0.031500
     37 NBM        -3.0480    1.0240   -2.5330 n3        1 0DX     -0.295000
     38 NBN         2.9150   -1.2190    2.2230 n3        1 0DX     -0.316000
     39 CBO        -2.0910    0.8630   -1.3920 c2        1 0DX      0.162000
     40 CBP         1.6900   -0.8670    1.6150 c2        1 0DX      0.186000
     41 CBQ        -1.5780   -2.7880    0.9190 c1        1 0DX      0.362500
     42 CBR         1.2560    2.6760   -0.8020 c1        1 0DX      0.351000
     43 CBS        -2.9960   -1.4070   -0.5820 c1        1 0DX      0.375000
     44 CBT         2.6090    1.3750    0.7800 c1        1 0DX      0.362500
     45 CBU        -0.4810   -1.6970    0.8850 c1        1 0DX     -0.065000
     46 CBV         0.1490    1.6230   -0.7330 c1        1 0DX     -0.074000
     47 CBW        -1.8880   -0.3320   -0.6390 c2        1 0DX     -0.196000
     48 CBX         1.5160    0.2910    0.8150 c1        1 0DX     -0.214000
     49 CBY        -0.6710   -0.5150    0.1030 c1        1 0DX      0.001500
     50 CBZ         0.3310    0.4560    0.0530 c1        1 0DX      0.001500
     51 NCA        -5.9400    5.0770   -8.4240 n3        1 0DX     -0.258000
     52 NCB         6.3870   -4.3320    7.7980 n3        1 0DX     -0.256000
     53 OCC        -8.6600   -6.7140    3.1430 os        1 0DX     -0.276500
     54 OCD         9.0310    4.4750   -2.5780 os        1 0DX     -0.276500
     55 NCE        -5.1880    3.6990   -6.0410 n3        1 0DX     -0.254000
     56 NCF         5.0900   -2.1410    6.4980 n3        1 0DX     -0.245000
     57 NCG        -6.5070   -5.3150    1.9350 n3        1 0DX     -0.251000
     58 NCH         6.5350    4.3670   -1.7870 n3        1 0DX     -0.251000
     59 NCI        -2.7740   -2.6260    0.1420 n2        1 0DX     -0.314500
     60 NCJ         2.4430    2.5170   -0.0230 n2        1 0DX     -0.314500
     61 HAA        -5.7770    5.5160  -10.3620 h1        1 0DX      0.072000
     62 HAAA       -7.3010    5.4720   -9.8460 h1        1 0DX      0.072000
     63 HAAB       -6.4760    4.1160  -10.0820 h1        1 0DX      0.072000
     64 HAB         7.7430   -5.8350    7.8760 h1        1 0DX      0.071667
     65 HABA        6.3420   -6.1810    8.6210 h1        1 0DX      0.071667
     66 HABB        6.4300   -6.1820    7.0200 h1        1 0DX      0.071667
     67 HAI         0.8530   -2.6780    2.1040 ha        1 0DX      0.171000
     68 HAJ        -1.2550    2.6570   -1.8900 ha        1 0DX      0.172000
     69 HAK        -5.1950    1.7990   -4.0820 hc        1 0DX      0.099000
     70 HAKA       -3.8110    1.8830   -4.8500 hc        1 0DX      0.099000
     71 HAL         4.9480   -1.4660    3.6520 hc        1 0DX      0.101500
     72 HALA        4.0800   -0.6920    4.7740 hc        1 0DX      0.101500
     73 HAM        -5.4020   -3.2600    1.0110 hc        1 0DX      0.099750
     74 HAMA       -4.2080   -3.6860    1.9590 hc        1 0DX      0.099750
     75 HAN         4.9270    2.6620   -1.1190 hc        1 0DX      0.099750
     76 HANA        3.8050    3.3590   -2.0270 hc        1 0DX      0.099750
     77 HAO        -2.8970    3.0240   -2.9040 h1        1 0DX      0.099500
     78 HAOA       -4.2430    2.6320   -2.1350 h1        1 0DX      0.099500
     79 HAP         2.8820   -2.8910    3.3570 h1        1 0DX      0.084000
     80 HAPA        2.1430   -1.6340    4.0310 h1        1 0DX      0.084000
     81 HAQ        -5.4020    4.1060   -4.0710 h1        1 0DX      0.072500
     82 HAQA       -3.9000    4.2920   -4.5960 h1        1 0DX      0.072500
     83 HAR         3.7020   -3.2050    5.5400 h1        1 0DX      0.072500
     84 HARA        5.1860   -3.3300    4.9170 h1        1 0DX      0.072500
     85 HAS        -4.5960   -5.9150    1.6740 h1        1 0DX      0.073500
     86 HASA       -5.3900   -5.6660    0.2970 h1        1 0DX      0.073500
     87 HAT         5.2990    5.1360   -0.4630 h1        1 0DX      0.073500
     88 HATA        4.8080    5.3690   -1.9680 h1        1 0DX      0.073500
     89 HAU        -4.7880    3.4740   -8.7320 h1        1 0DX      0.076500
     90 HAUA       -4.0150    4.8910   -8.8500 h1        1 0DX      0.076500
     91 HAV        -7.7170    5.0990   -7.5830 h1        1 0DX      0.076500
     92 HAVA       -7.1830    3.6180   -7.9170 h1        1 0DX      0.076500
     93 HAW         7.9390   -3.7270    6.7510 h1        1 0DX      0.073250
     94 HAWA        6.7250   -4.2290    5.8560 h1        1 0DX      0.073250
     95 HAX         4.5710   -4.7690    7.0830 h1        1 0DX      0.073250
     96 HAXA        4.6340   -4.5350    8.6710 h1        1 0DX      0.073250
     97 HAY        -9.4550   -6.5880    1.3360 h1        1 0DX      0.091125
     98 HAYA       -9.2090   -5.1730    2.0460 h1        1 0DX      0.091125
     99 HAZ        -7.4910   -6.6830    4.7400 h1        1 0DX      0.091125
    100 HAZA       -7.9480   -5.2270    4.2300 h1        1 0DX      0.091125
    101 HBA         9.5470    5.5340   -1.1350 h1        1 0DX      0.091125
    102 HBAA        9.4070    3.9470   -0.8240 h1        1 0DX      0.091125
    103 HBB         8.7380    5.8800   -3.7110 h1        1 0DX      0.091125
    104 HBBA        8.3190    4.4430   -4.2690 h1        1 0DX      0.091125
    105 HBC        -3.9500    5.1540   -6.5550 h1        1 0DX      0.077500
    106 HBCA       -3.4000    3.6720   -6.8840 h1        1 0DX      0.077500
    107 HBD        -6.3410    5.2760   -5.7330 h1        1 0DX      0.077500
    108 HBDA       -7.1030    3.8790   -5.6160 h1        1 0DX      0.077500
    109 HBE         6.8450   -1.9290    5.6050 h1        1 0DX      0.099250
    110 HBEA        6.8900   -1.7150    7.2000 h1        1 0DX      0.099250
    111 HBF         4.7500   -2.2430    8.4490 h1        1 0DX      0.099250
    112 HBFA        3.5360   -2.7480    7.5450 h1        1 0DX      0.099250
    113 HBG        -7.6660   -5.3570    0.3620 h1        1 0DX      0.086500
    114 HBGA       -7.2200   -6.7750    0.8560 h1        1 0DX      0.086500
    115 HBH        -5.9570   -6.8610    3.0390 h1        1 0DX      0.086500
    116 HBHA       -5.7230   -5.4480    3.7370 h1        1 0DX      0.086500
    117 HBI         7.4940    4.5200    0.0580 h1        1 0DX      0.086500
    118 HBIA        7.4450    5.9090   -0.7350 h1        1 0DX      0.086500
    119 HBJ         6.3060    5.0610   -3.7440 h1        1 0DX      0.086500
    120 HBJA        6.8220    6.1990   -2.7500 h1        1 0DX      0.086500
    121 HBK        -3.1540   -4.6050   -0.1240 h1        1 0DX      0.113500
    122 HBKA       -4.1870   -3.6560   -0.8950 h1        1 0DX      0.113500
    123 HBL         2.9760    4.4340    0.0010 h1        1 0DX      0.113500
    124 HBLA        3.9610    3.4850    0.8350 h1        1 0DX      0.113500
    125 HNBM       -3.2930    0.3010   -3.0270 hn        1 0DX      0.257000
    126 HNBN        3.7000   -1.0710    1.7830 hn        1 0DX      0.272000
@<TRIPOS>BOND
     1    1   51 1   
     2    1   61 1   
     3    1   62 1   
     4    1   63 1   
     5    2   52 1   
     6    2   64 1   
     7    2   65 1   
     8    2   66 1   
     9    3   41 1   
    10    4   42 1   
    11    5   43 1   
    12    6   44 1   
    13    7   40 1   
    14    7   67 1   
    15    8   39 1   
    16    8   68 1   
    17    9   13 1   
    18    9   15 1   
    19    9   69 1   
    20    9   70 1   
    21   10   14 1   
    22   10   16 1   
    23   10   71 1   
    24   10   72 1   
    25   11   17 1   
    26   11   35 1   
    27   11   73 1   
    28   11   74 1   
    29   12   18 1   
    30   12   36 1   
    31   12   75 1   
    32   12   76 1   
    33   13   37 1   
    34   13   77 1   
    35   13   78 1   
    36   14   38 1   
    37   14   79 1   
    38   14   80 1   
    39   15   55 1   
    40   15   81 1   
    41   15   82 1   
    42   16   56 1   
    43   16   83 1   
    44   16   84 1   
    45   17   57 1   
    46   17   85 1   
    47   17   86 1   
    48   18   58 1   
    49   18   87 1   
    50   18   88 1   
    51   19   27 1   
    52   19   51 1   
    53   19   89 1   
    54   19   90 1   
    55   20   28 1   
    56   20   51 1   
    57   20   91 1   
    58   20   92 1   
    59   21   29 1   
    60   21   52 1   
    61   21   93 1   
    62   21   94 1   
    63   22   30 1   
    64   22   52 1   
    65   22   95 1   
    66   22   96 1   
    67   23   31 1   
    68   23   53 1   
    69   23   97 1   
    70   23   98 1   
    71   24   32 1   
    72   24   53 1   
    73   24   99 1   
    74   24  100 1   
    75   25   33 1   
    76   25   54 1   
    77   25  101 1   
    78   25  102 1   
    79   26   34 1   
    80   26   54 1   
    81   26  103 1   
    82   26  104 1   
    83   27   55 1   
    84   27  105 1   
    85   27  106 1   
    86   28   55 1   
    87   28  107 1   
    88   28  108 1   
    89   29   56 1   
    90   29  109 1   
    91   29  110 1   
    92   30   56 1   
    93   30  111 1   
    94   30  112 1   
    95   31   57 1   
    96   31  113 1   
    97   31  114 1   
    98   32   57 1   
    99   32  115 1   
   100   32  116 1   
   101   33   58 1   
   102   33  117 1   
   103   33  118 1   
   104   34   58 1   
   105   34  119 1   
   106   34  120 1   
   107   35   59 1   
   108   35  121 1   
   109   35  122 1   
   110   36   60 1   
   111   36  123 1   
   112   36  124 1   
   113   37   39 1   
   114   37  125 1   
   115   38   40 1   
   116   38  126 1   
   117   39   47 1   
   118   40   48 1   
   119   41   59 1   
   120   42   46 1   
   121   43   47 1   
   122   44   60 1   
   123   45   49 1   
   124   46   50 1   
   125   47   49 1   
   126   48   50 1   
@<TRIPOS>SUBSTRUCTURE
     1 0DX         1 TEMP              0 ****  ****    0 ROOT
