@<TRIPOS>MOLECULE
0DX
  126   123     1     0     0
SMALL
bcc


@<TRIPOS>ATOM
      1 CAA        -0.1800   -3.8200    2.8440 c3        1 0DX     -0.171000
      2 OAE         4.0550   -6.6570    9.4510 o         1 0DX     -0.358000
      3 OAF        11.1550   -2.6020    7.4590 o         1 0DX     -0.356000
      4 OAG         6.4320   -7.7570    5.7250 o         1 0DX     -0.353000
      5 OAH         8.8400   -1.8360   11.3080 o         1 0DX     -0.322000
      6 CAI         5.9200   -4.7170   10.2870 ca        1 0DX     -0.068000
      7 CAJ        10.2270   -5.3270    7.6020 c2        1 0DX     -0.092000
      8 CAK         5.6370   -3.2020    3.5970 c1        1 0DX     -0.093000
      9 CAL        13.5660   -7.2400   10.2540 c2        1 0DX     -0.386000
     10 CAM         3.4250  -10.1790    7.9660 c1        1 0DX     -0.188000
     11 CAN        14.0210   -3.5770    5.9770 c3        1 0DX     -0.207000
     12 CAO         8.7040   -4.3090    3.8860 c3        1 0DX     -0.119000
     13 CAP        12.9930   -7.2080    8.8790 c3        1 0DX     -0.029000
     14 CAQ         5.0950   -1.8580    3.5980 c3        1 0DX     -0.150000
     15 CAR        14.0430   -8.3800   10.8060 c2        1 0DX      0.016000
     16 CAS         2.3540   -9.2220    8.1180 c3        1 0DX      0.015000
     17 CAT        15.0840   -1.3120    5.8250 c2        1 0DX     -0.162000
     18 CAU         0.3400   -1.5490    3.6040 c1        1 0DX     -0.212000
     19 CAV         1.8860   -3.3510    4.0250 c3        1 0DX     -0.040000
     20 CAW        14.6970  -11.1400   13.2040 cu        1 0DX     -0.500000
     21 CAX        19.1070   -9.5920   13.2850 c1        1 0DX     -0.229500
     22 CAY         1.1500   -8.9600    4.5750 c1        1 0DX     -0.066000
     23 CAZ         1.2360   -6.2260    6.3540 c3        1 0DX     -0.004000
     24 CBA        18.7760   -1.4660    5.2120 c3        1 0DX      0.113000
     25 CBB        17.6970   -1.6150    3.1050 c3        1 0DX     -0.009000
     26 CBC         3.2800   -0.3100    3.2110 c3        1 0DX     -0.126000
     27 CBD         2.8930   -2.3060    4.5440 c3        1 0DX     -0.058000
     28 CBE        14.6330   -7.4410   12.9610 c3        1 0DX     -0.092000
     29 CBF        18.1540   -8.9590   12.9350 c1        1 0DX     -0.229500
     30 CBG         1.6360   -9.5230    5.8260 c3        1 0DX     -0.153000
     31 CBH         0.9390   -7.5410    7.0930 c3        1 0DX     -0.097000
     32 CBI        17.4810   -1.3230    5.8750 c2        1 0DX     -0.789000
     33 CBJ        16.3380   -1.3160    3.7470 c3        1 0DX     -0.192000
     34 CBK         4.3180  -10.9730    7.8930 c1        1 0DX     -0.194000
     35 CBL        14.0700   -2.1170    6.1750 c2        1 0DX     -0.131000
     36 NBM         8.6930   -5.1630    5.0190 n2        1 0DX     -0.129000
     37 NBN        13.7060   -6.4080    7.9080 n3        1 0DX     -0.347000
     38 CBO         7.9360   -5.4110    5.9280 c1        1 0DX      0.184000
     39 CBP         6.8560   -3.7550   10.6560 ca        1 0DX     -0.100000
     40 CBQ         5.0700   -6.4550    8.7540 c2        1 0DX      0.358000
     41 CBR        10.2810   -2.9840    8.2590 c2        1 0DX      0.359000
     42 CBS         6.3220   -7.0080    6.7150 c2        1 0DX      0.380000
     43 CBT         8.9510   -2.5020   10.2640 c2        1 0DX      0.354000
     44 CBU         6.0930   -5.4370    9.1040 ca        1 0DX     -0.121000
     45 CBV         9.5630   -4.2840    8.1270 c2        1 0DX     -0.154000
     46 CBW         7.2220   -5.8670    6.9740 c2        1 0DX     -0.264000
     47 CBX         8.0010   -3.5790    9.8780 ca        1 0DX     -0.087000
     48 CBY         7.2170   -5.2270    8.2730 ca        1 0DX      0.075000
     49 CBZ         8.2370   -4.3640    8.7320 ca        1 0DX     -0.027000
     50 NCA         0.6470   -2.8080    3.4800 n3        1 0DX     -0.127000
     51 NCB        16.0800  -11.5270   13.4650 n4        1 0DX     -0.094000
     52 OCC         0.5950   -6.1510    5.1010 oh        1 0DX     -0.381000
     53 OCD        18.7630   -1.0410    3.8280 os        1 0DX     -0.296000
     54 NCE         3.6560   -1.6780    3.4780 n3        1 0DX     -0.295000
     55 NCF        14.6630   -8.5250   12.0290 n3        1 0DX     -0.357000
     56 NCG         1.9530   -8.5660    6.8750 n3        1 0DX     -0.259000
     57 NCH        16.3170   -1.7660    5.1900 n4        1 0DX      0.228000
     58 NCI         5.2770   -7.2300    7.6170 n         1 0DX     -0.362000
     59 NCJ         9.9820   -2.1940    9.3700 n         1 0DX     -0.371000
     60 HAA        -0.2910   -4.7090    3.5230 h1        1 0DX      0.095333
     61 HAAA       -1.1940   -3.3970    2.6210 h1        1 0DX      0.095333
     62 HAAB        0.2950   -4.1550    1.8850 h1        1 0DX      0.095333
     63 HAB        15.1680  -13.2750   12.5200 hx        1 0DX      0.106500
     64 HABA       16.7870  -10.8440   13.2260 hn        1 0DX      0.209500
     65 HABB       15.6120  -11.9460   11.3240 hx        1 0DX      0.106500
     66 HAI         5.0320   -4.9100   10.9130 ha        1 0DX      0.170000
     67 HAJ         9.7870   -6.3330    7.5370 ha        1 0DX      0.152000
     68 HAK         8.9930   -4.9380    3.0000 h1        1 0DX      0.128333
     69 HAKA        4.9440   -4.0550    3.5380 ha        1 0DX      0.064000
     70 HAL        13.8300   -5.4720    8.2490 hn        1 0DX      0.135000
     71 HALA       13.5700   -6.2840   10.7950 ha        1 0DX      0.121000
     72 HAM         1.8020   -6.4490   10.2660 ha        1 0DX      0.002000
     73 HAMA        1.7920   -7.1120   10.4030 ha        1 0DX      0.002000
     74 HAN        13.0530   -3.9890    6.3620 hc        1 0DX      0.095667
     75 HANA       14.1040   -3.8400    4.8930 hc        1 0DX      0.095667
     76 HAO         9.4910   -3.5240    4.0530 h1        1 0DX      0.128333
     77 HAOA        7.7020   -3.8130    3.6920 h1        1 0DX      0.128333
     78 HAP        14.6150   -6.7940    7.7380 hn        1 0DX      0.135000
     79 HAPA       11.9420   -6.7930    8.9390 h1        1 0DX      0.076500
     80 HAQ         5.5270   -1.3470    4.5200 h1        1 0DX      0.137000
     81 HAQA        5.5860   -1.3450    2.7070 h1        1 0DX      0.137000
     82 HAR        12.9150   -8.2540    8.4640 h1        1 0DX      0.076500
     83 HARA       14.0020   -9.3300   10.2310 h4        1 0DX      0.120000
     84 HAS         2.7060   -8.4040    8.8260 h1        1 0DX      0.111000
     85 HASA        1.4810   -9.7520    8.6110 h1        1 0DX      0.111000
     86 HAT        14.8550   -4.0840    6.5260 hc        1 0DX      0.095667
     87 HATA       15.0860   -0.2250    6.0190 hx        1 0DX      0.172000
     88 HAU         2.1560   -0.2370    3.1910 h1        1 0DX      0.082333
     89 HAUA       -0.6330   -1.2350    3.1720 ha        1 0DX      0.042000
     90 HAV         2.3680   -3.9860    3.2280 h1        1 0DX      0.098500
     91 HAVA        1.6110   -4.0290    4.8880 h1        1 0DX      0.098500
     92 HAW        15.1570   -6.5470   12.5280 h1        1 0DX      0.062667
     93 HAWA       13.9140  -11.2920   13.9470 hx        1 0DX      0.121000
     94 HAX        16.3530  -12.0910   14.2540 hn        1 0DX      0.209500
     95 HAXA       19.9670  -10.1330   13.5900 ha        1 0DX      0.232500
     96 HAY         0.7800   -6.9850    4.6240 ho        1 0DX      0.247000
     97 HAYA        1.0450   -9.6850    3.7550 ha        1 0DX      0.057000
     98 HAZ         2.3400   -6.0670    6.2270 h1        1 0DX      0.080000
     99 HAZA        0.8060   -5.3720    6.9470 h1        1 0DX      0.080000
    100 HBA        19.1500   -2.5310    5.2100 h1        1 0DX      0.058500
    101 HBAA       19.5430   -0.8010    5.6900 h1        1 0DX      0.058500
    102 HBB        17.8450   -2.7260    3.0170 h1        1 0DX      0.078500
    103 HBBA       17.7370   -1.1480    2.0860 h1        1 0DX      0.078500
    104 HBC         3.6730    0.4100    3.9810 h1        1 0DX      0.082333
    105 HBCA        3.6890   -0.0160    2.2090 h1        1 0DX      0.082333
    106 HBD         2.3360   -1.5380    5.1550 h1        1 0DX      0.089000
    107 HBDA        3.5830   -2.8650    5.2420 h1        1 0DX      0.089000
    108 HBE        13.5870   -7.1270   13.2340 h1        1 0DX      0.062667
    109 HBEA       15.1650   -7.7550   13.8970 h1        1 0DX      0.062667
    110 HBF        14.6080   -9.4700   12.4480 hn        1 0DX      0.285000
    111 HBFA       17.3050   -8.3940   12.6220 ha        1 0DX      0.232500
    112 HBG         0.8580  -10.2860    6.1670 h1        1 0DX      0.121500
    113 HBGA        2.5910  -10.1090    5.6290 h1        1 0DX      0.121500
    114 HBH        -0.0810   -7.9000    6.7680 h1        1 0DX      0.086000
    115 HBHA        0.8810   -7.2970    8.1940 h1        1 0DX      0.086000
    116 HBI        16.3170   -2.7960    5.1630 hn        1 0DX      0.178000
    117 HBIA       17.3490   -0.7170    6.7640 hx        1 0DX      0.152000
    118 HBJ        16.1630   -0.2060    3.7380 hx        1 0DX      0.107500
    119 HBJA       15.5180   -1.8320    3.1820 hx        1 0DX      0.107500
    120 HBK         4.6220   -7.9600    7.4100 hn        1 0DX      0.270000
    121 HBKA        5.1140  -11.6710    7.8300 ha        1 0DX      0.227000
    122 HBL        10.5380   -1.3840    9.5470 hn        1 0DX      0.256000
    123 HBLA       13.1800   -1.6710    6.6600 ha        1 0DX      0.167000
    124 HNBM       11.2540   -5.2230    7.2140 ha        1 0DX      0.152000
    125 HNBN        6.7090   -3.1360   11.5570 ha        1 0DX      0.170000
    126 CAB        15.3170  -12.1820   12.3690 cx        1 0DX     -0.106000
@<TRIPOS>BOND
     1    1   50 1   
     2    1   60 1   
     3    1   61 1   
     4    1   62 1   
     5    2   40 1   
     6    3   41 1   
     7    4   42 1   
     8    5   43 1   
     9    6   39 1   
    10    6   44 1   
    11    6   66 1   
    12    7   45 1   
    13    7   67 1   
    14    7  124 1   
    15    8   14 1   
    16    8   69 1   
    17    9   13 1   
    18    9   15 1   
    19    9   71 1   
    20   10   16 1   
    21   10   34 1   
    22   11   35 1   
    23   11   74 1   
    24   11   75 1   
    25   11   86 1   
    26   12   36 1   
    27   12   68 1   
    28   12   76 1   
    29   12   77 1   
    30   13   37 1   
    31   13   79 1   
    32   13   82 1   
    33   14   54 1   
    34   14   80 1   
    35   14   81 1   
    36   15   55 1   
    37   15   83 1   
    38   16   56 1   
    39   16   84 1   
    40   16   85 1   
    41   17   35 1   
    42   17   57 1   
    43   17   87 1   
    44   18   50 1   
    45   18   89 1   
    46   19   27 1   
    47   19   50 1   
    48   19   90 1   
    49   19   91 1   
    50   20   51 1   
    51   20   93 1   
    52   20  126 1   
    53   21   29 1   
    54   21   95 1   
    55   22   30 1   
    56   22   97 1   
    57   23   31 1   
    58   23   52 1   
    59   23   98 1   
    60   23   99 1   
    61   24   32 1   
    62   24   53 1   
    63   24  100 1   
    64   24  101 1   
    65   25   33 1   
    66   25   53 1   
    67   25  102 1   
    68   25  103 1   
    69   26   54 1   
    70   26   88 1   
    71   26  104 1   
    72   26  105 1   
    73   27   54 1   
    74   27  106 1   
    75   27  107 1   
    76   28   55 1   
    77   28   92 1   
    78   28  108 1   
    79   28  109 1   
    80   29  111 1   
    81   30   56 1   
    82   30  112 1   
    83   30  113 1   
    84   31   56 1   
    85   31  114 1   
    86   31  115 1   
    87   32   57 1   
    88   32  117 1   
    89   33   57 1   
    90   33  118 1   
    91   33  119 1   
    92   34  121 1   
    93   35  123 1   
    94   36   38 1   
    95   37   70 1   
    96   37   78 1   
    97   38   46 1   
    98   39   47 1   
    99   39  125 1   
   100   40   44 1   
   101   40   58 1   
   102   41   45 1   
   103   41   59 1   
   104   42   46 1   
   105   42   58 1   
   106   43   47 1   
   107   43   59 1   
   108   44   48 1   
   109   45   49 1   
   110   46   48 1   
   111   47   49 1   
   112   48   49 1   
   113   51   64 1   
   114   51   94 1   
   115   51  126 1   
   116   52   96 1   
   117   55  110 1   
   118   57  116 1   
   119   58  120 1   
   120   59  122 1   
   121   63  126 1   
   122   65  126 1   
   123   72   73 1   
@<TRIPOS>SUBSTRUCTURE
     1 0DX         1 TEMP              0 ****  ****    0 ROOT
