@<TRIPOS>MOLECULE
0DX
  126   133     1     0     0
SMALL
bcc


@<TRIPOS>ATOM
      1 CAA        12.3030   -4.0500    0.1650 c3        1 0DX      0.157100
      2 OAE        -0.1940    4.0270   -1.2360 o         1 0DX     -0.614500
      3 OAF         0.1950   -4.0330    1.2050 o         1 0DX     -0.614500
      4 OAG         3.7620    1.7890   -0.8690 o         1 0DX     -0.648500
      5 OAH        -3.7580   -1.7830    0.8840 o         1 0DX     -0.648500
      6 CAI        -1.6840    1.8490   -0.3280 ca        1 0DX     -0.122000
      7 CAJ         1.6850   -1.8530    0.3040 ca        1 0DX     -0.122000
      8 CAK         6.0250   -1.9960   -0.1810 c3        1 0DX     -0.097400
      9 CAL        -6.0250    1.9930    0.1430 c3        1 0DX     -0.097400
     10 CAM         2.9160    5.0010   -0.4320 c3        1 0DX     -0.099400
     11 CAN        -2.9170   -5.0020    0.4210 c3        1 0DX     -0.099400
     12 CAO         4.5130   -2.1050    0.0210 c3        1 0DX      0.208800
     13 CAP        -4.5120    2.1000   -0.0560 c3        1 0DX      0.208800
     14 CAQ         6.6710   -3.3020    0.2820 c3        1 0DX      0.173800
     15 CAR        -6.6570    3.3370   -0.2170 c3        1 0DX      0.173800
     16 CAS         3.6180    6.2140   -1.0400 c3        1 0DX      0.173300
     17 CAT        -3.6170   -6.2150    1.0320 c3        1 0DX      0.173300
     18 CAU        10.0770   -4.9120   -0.1800 c3        1 0DX      0.167800
     19 CAV        10.4080   -2.5610    0.2590 c3        1 0DX      0.167800
     20 CAW       -10.2780    2.9980    0.9160 c3        1 0DX      0.167800
     21 CAX       -10.1860    4.5240   -0.9520 c3        1 0DX      0.167800
     22 CAY         5.6360    9.1110    0.3200 c3        1 0DX      0.126400
     23 CAZ         3.8510    8.7140    1.8110 c3        1 0DX      0.126400
     24 CBA        -5.6400   -9.1120   -0.3230 c3        1 0DX      0.126400
     25 CBB        -3.8610   -8.7130   -1.8200 c3        1 0DX      0.126400
     26 CBC         8.5790   -4.7640    0.1440 c3        1 0DX      0.166800
     27 CBD         8.9080   -2.4070    0.5750 c3        1 0DX      0.166800
     28 CBE        -8.7390    2.9770    0.9780 c3        1 0DX      0.166800
     29 CBF        -8.6470    4.5120   -0.8890 c3        1 0DX      0.166800
     30 CBG         5.0560    8.1130   -0.6860 c3        1 0DX      0.131300
     31 CBH         3.2320    7.6990    0.8440 c3        1 0DX      0.131300
     32 CBI        -5.0550   -8.1140    0.6820 c3        1 0DX      0.131300
     33 CBJ        -3.2380   -7.6980   -0.8560 c3        1 0DX      0.131300
     34 CBK         2.5140    4.0550   -1.5640 c3        1 0DX      0.086000
     35 CBL        -2.5100   -4.0570    1.5520 c3        1 0DX      0.086000
     36 NBM         3.8160   -0.9010   -0.3490 nh        1 0DX     -0.758600
     37 NBN        -3.8160    0.8980    0.3240 nh        1 0DX     -0.758600
     38 CBO         2.4730   -0.7310   -0.1460 ca        1 0DX      0.262100
     39 CBP        -2.4720    0.7270    0.1230 ca        1 0DX      0.262100
     40 CBQ         0.4010    2.9640   -0.9690 c         1 0DX      0.713100
     41 CBR        -0.3990   -2.9680    0.9460 c         1 0DX      0.713100
     42 CBS         2.5170    1.7120   -0.7910 c         1 0DX      0.737100
     43 CBT        -2.5140   -1.7110    0.7870 c         1 0DX      0.737100
     44 CBU        -0.3280    1.7600   -0.4930 ca        1 0DX     -0.089100
     45 CBV         0.3290   -1.7630    0.4730 ca        1 0DX     -0.089100
     46 CBW         1.7940    0.4880   -0.3850 ca        1 0DX     -0.229100
     47 CBX        -1.7920   -0.4900    0.3700 ca        1 0DX     -0.229100
     48 CBY         0.3800    0.5540   -0.2230 ca        1 0DX      0.002000
     49 CBZ        -0.3790   -0.5560    0.2060 ca        1 0DX      0.002000
     50 NCA        10.9000   -3.9120    0.4840 n3        1 0DX     -0.732600
     51 NCB       -10.8060    4.2210    0.3290 n3        1 0DX     -0.732600
     52 OCC         4.6210    9.6960    1.1270 os        1 0DX     -0.416600
     53 OCD        -4.6270   -9.6960   -1.1340 os        1 0DX     -0.416600
     54 NCE         8.0790   -3.4120   -0.0740 n3        1 0DX     -0.729600
     55 NCF        -8.1110    3.2930   -0.2960 n3        1 0DX     -0.729600
     56 NCG         4.2150    7.1030   -0.0520 n3        1 0DX     -0.723600
     57 NCH        -4.2170   -7.1040    0.0450 n3        1 0DX     -0.723600
     58 NCI         1.7880    2.8730   -1.1210 n         1 0DX     -0.485400
     59 NCJ        -1.7860   -2.8750    1.1070 n         1 0DX     -0.485400
     60 HAA        12.5320   -3.8800   -0.9240 h1        1 0DX      0.032700
     61 HAAA       12.8850   -3.3080    0.7710 h1        1 0DX      0.032700
     62 HAAB       12.6360   -5.0840    0.4410 h1        1 0DX      0.032700
     63 HAB       -12.6640    3.4210   -0.4160 h1        1 0DX      0.032700
     64 HABA      -12.6620    4.0660    1.2890 h1        1 0DX      0.032700
     65 HABB      -12.5920    5.2190   -0.1220 h1        1 0DX      0.032700
     66 HAI        -2.1760    2.8140   -0.5520 ha        1 0DX      0.171000
     67 HAJ         2.1760   -2.8190    0.5230 ha        1 0DX      0.171000
     68 HAK         6.2590   -1.8080   -1.2610 hc        1 0DX      0.062200
     69 HAKA        6.4320   -1.1360    0.4120 hc        1 0DX      0.062200
     70 HAL        -6.4440    1.1800   -0.5040 hc        1 0DX      0.062200
     71 HALA       -6.2550    1.7340    1.2100 hc        1 0DX      0.062200
     72 HAM         3.5990    4.4740    0.2840 hc        1 0DX      0.060700
     73 HAMA        2.0020    5.3260    0.1310 hc        1 0DX      0.060700
     74 HAN        -2.0060   -5.3260   -0.1460 hc        1 0DX      0.060700
     75 HANA       -3.6030   -4.4740   -0.2910 hc        1 0DX      0.060700
     76 HAO         4.1210   -2.9610   -0.6050 h1        1 0DX      0.045950
     77 HAOA        4.3070   -2.3520    1.1040 h1        1 0DX      0.045950
     78 HAP        -4.3040    2.3390   -1.1410 h1        1 0DX      0.045950
     79 HAPA       -4.1210    2.9600    0.5640 h1        1 0DX      0.045950
     80 HAQ         6.5130   -3.4030    1.3970 h1        1 0DX      0.034450
     81 HAQA        6.1330   -4.1610   -0.2140 h1        1 0DX      0.034450
     82 HAR        -6.3020    4.1090    0.5300 h1        1 0DX      0.034450
     83 HARA       -6.2770    3.6510   -1.2320 h1        1 0DX      0.034450
     84 HAS         4.4550    5.8460   -1.7020 h1        1 0DX      0.034200
     85 HASA        2.8800    6.7610   -1.7000 h1        1 0DX      0.034200
     86 HAT        -2.8760   -6.7620    1.6870 h1        1 0DX      0.034200
     87 HATA       -4.4510   -5.8480    1.6970 h1        1 0DX      0.034200
     88 HAU        10.4080   -5.9250    0.1820 h1        1 0DX      0.037825
     89 HAUA       10.2090   -4.8840   -1.3010 h1        1 0DX      0.037825
     90 HAV        10.5890   -2.2230   -0.8040 h1        1 0DX      0.037825
     91 HAVA       10.9760   -1.8700    0.9420 h1        1 0DX      0.037825
     92 HAW       -10.6300    2.0820    0.3580 h1        1 0DX      0.037825
     93 HAWA      -10.6650    2.9290    1.9720 h1        1 0DX      0.037825
     94 HAX       -10.5080    5.5590   -1.2540 h1        1 0DX      0.037825
     95 HAXA      -10.5200    3.8070   -1.7580 h1        1 0DX      0.037825
     96 HAY         6.3980    8.6140    0.9780 h1        1 0DX      0.053325
     97 HAYA        6.0990    9.9780   -0.2200 h1        1 0DX      0.053325
     98 HAZ         3.0430    9.3000    2.3230 h1        1 0DX      0.053325
     99 HAZA        4.4940    8.1970    2.5700 h1        1 0DX      0.053325
    100 HBA        -6.1000   -9.9790    0.2180 h1        1 0DX      0.053325
    101 HBAA       -6.4040   -8.6140   -0.9770 h1        1 0DX      0.053325
    102 HBB        -4.5070   -8.1960   -2.5770 h1        1 0DX      0.053325
    103 HBBA       -3.0550   -9.2990   -2.3370 h1        1 0DX      0.053325
    104 HBC         8.0110   -5.4550   -0.5400 h1        1 0DX      0.037700
    105 HBCA        8.4030   -5.1060    1.2060 h1        1 0DX      0.037700
    106 HBD         8.7730   -2.4160    1.6960 h1        1 0DX      0.037700
    107 HBDA        8.5850   -1.3970    0.1950 h1        1 0DX      0.037700
    108 HBE        -8.4000    3.6790    1.7950 h1        1 0DX      0.037700
    109 HBEA       -8.4270    1.9340    1.2650 h1        1 0DX      0.037700
    110 HBF        -8.2620    4.5800   -1.9450 h1        1 0DX      0.037700
    111 HBFA       -8.3010    5.4320   -0.3330 h1        1 0DX      0.037700
    112 HBG         4.4890    8.6910   -1.4740 h1        1 0DX      0.041325
    113 HBGA        5.9080    7.5800   -1.1920 h1        1 0DX      0.041325
    114 HBH         2.7760    6.8680    1.4510 h1        1 0DX      0.041325
    115 HBHA        2.4030    8.2090    0.2720 h1        1 0DX      0.041325
    116 HBI        -5.9060   -7.5820    1.1920 h1        1 0DX      0.041325
    117 HBIA       -4.4850   -8.6920    1.4670 h1        1 0DX      0.041325
    118 HBJ        -2.4060   -8.2080   -0.2870 h1        1 0DX      0.041325
    119 HBJA       -2.7840   -6.8670   -1.4640 h1        1 0DX      0.041325
    120 HBK         1.8540    4.6100   -2.2920 h1        1 0DX      0.073700
    121 HBKA        3.4410    3.7130   -2.1070 h1        1 0DX      0.073700
    122 HBL        -3.4350   -3.7150    2.1000 h1        1 0DX      0.073700
    123 HBLA       -1.8470   -4.6120    2.2760 h1        1 0DX      0.073700
    124 HNBM        4.3730   -0.1140   -0.6090 hn        1 0DX      0.473800
    125 HNBN       -4.3760    0.1070    0.5680 hn        1 0DX      0.473800
    126 CAB       -12.2500    4.2210    0.2580 c3        1 0DX      0.157100
@<TRIPOS>BOND
     1    1   50 1   
     2    1   60 1   
     3    1   61 1   
     4    1   62 1   
     5    2   40 2   
     6    3   41 2   
     7    4   42 2   
     8    5   43 2   
     9    6   39 ar  
    10    6   44 ar  
    11    6   66 1   
    12    7   38 ar  
    13    7   45 ar  
    14    7   67 1   
    15    8   12 1   
    16    8   14 1   
    17    8   68 1   
    18    8   69 1   
    19    9   13 1   
    20    9   15 1   
    21    9   70 1   
    22    9   71 1   
    23   10   16 1   
    24   10   34 1   
    25   10   72 1   
    26   10   73 1   
    27   11   17 1   
    28   11   35 1   
    29   11   74 1   
    30   11   75 1   
    31   12   36 1   
    32   12   76 1   
    33   12   77 1   
    34   13   37 1   
    35   13   78 1   
    36   13   79 1   
    37   14   54 1   
    38   14   80 1   
    39   14   81 1   
    40   15   55 1   
    41   15   82 1   
    42   15   83 1   
    43   16   56 1   
    44   16   84 1   
    45   16   85 1   
    46   17   57 1   
    47   17   86 1   
    48   17   87 1   
    49   18   26 1   
    50   18   50 1   
    51   18   88 1   
    52   18   89 1   
    53   19   27 1   
    54   19   50 1   
    55   19   90 1   
    56   19   91 1   
    57   20   28 1   
    58   20   51 1   
    59   20   92 1   
    60   20   93 1   
    61   21   29 1   
    62   21   51 1   
    63   21   94 1   
    64   21   95 1   
    65   22   30 1   
    66   22   52 1   
    67   22   96 1   
    68   22   97 1   
    69   23   31 1   
    70   23   52 1   
    71   23   98 1   
    72   23   99 1   
    73   24   32 1   
    74   24   53 1   
    75   24  100 1   
    76   24  101 1   
    77   25   33 1   
    78   25   53 1   
    79   25  102 1   
    80   25  103 1   
    81   26   54 1   
    82   26  104 1   
    83   26  105 1   
    84   27   54 1   
    85   27  106 1   
    86   27  107 1   
    87   28   55 1   
    88   28  108 1   
    89   28  109 1   
    90   29   55 1   
    91   29  110 1   
    92   29  111 1   
    93   30   56 1   
    94   30  112 1   
    95   30  113 1   
    96   31   56 1   
    97   31  114 1   
    98   31  115 1   
    99   32   57 1   
   100   32  116 1   
   101   32  117 1   
   102   33   57 1   
   103   33  118 1   
   104   33  119 1   
   105   34   58 1   
   106   34  120 1   
   107   34  121 1   
   108   35   59 1   
   109   35  122 1   
   110   35  123 1   
   111   36   38 1   
   112   36  124 1   
   113   37   39 1   
   114   37  125 1   
   115   38   46 ar  
   116   39   47 ar  
   117   40   44 1   
   118   40   58 1   
   119   41   45 1   
   120   41   59 1   
   121   42   46 1   
   122   42   58 1   
   123   43   47 1   
   124   43   59 1   
   125   44   48 ar  
   126   45   49 ar  
   127   46   48 ar  
   128   47   49 ar  
   129   48   49 ar  
   130   51  126 1   
   131   63  126 1   
   132   64  126 1   
   133   65  126 1   
@<TRIPOS>SUBSTRUCTURE
     1 0DX         1 TEMP              0 ****  ****    0 ROOT
