@<TRIPOS>MOLECULE
0DX
  126   125     1     0     0
SMALL
bcc


@<TRIPOS>ATOM
      1 CAA         7.3650    0.5050    4.6830 c3        1 0DX     -0.132000
      2 OAE         5.9260   -9.4380    3.8490 o         1 0DX     -0.247000
      3 OAF         8.5600   -3.7950    9.4600 o         1 0DX     -0.328000
      4 OAG         5.0610   -5.1800    3.3340 o         1 0DX     -0.322000
      5 OAH         9.4530   -8.2470    9.8540 o         1 0DX     -0.342000
      6 CAI         7.1620   -9.1460    6.4130 ca        1 0DX     -0.058000
      7 CAJ         8.4570   -4.2260    6.6080 c2        1 0DX     -0.126000
      8 CAK         8.4560   -3.4900    3.2180 c2        1 0DX     -0.339000
      9 CAL        13.0600   -9.4850    9.9790 c2        1 0DX     -0.282000
     10 CAM         3.3610   -7.7380    6.1030 c3        1 0DX     -0.020000
     11 CAN        14.8980   -2.8490    9.7100 c3        1 0DX     -0.183000
     12 CAO         5.5850   -2.1320    6.7140 c3        1 0DX     -0.036000
     13 CAP        12.4730  -10.5530    9.1100 c3        1 0DX     -0.042000
     14 CAQ         8.7220   -4.6230    2.5450 c2        1 0DX     -0.048000
     15 CAR        14.0900   -8.7220    9.5670 c2        1 0DX     -0.049000
     16 CAS         1.8670   -7.8990    6.4030 c3        1 0DX     -0.049000
     17 CAT        14.1440   -0.5970    8.9180 c2        1 0DX     -0.080000
     18 CAU         6.4060   -1.5300    5.5500 c3        1 0DX     -0.116000
     19 CAV         5.2480   -2.0610    2.1400 c1        1 0DX     -0.226500
     20 CAW        14.7530   -6.0950   12.2090 c3        1 0DX     -0.168000
     21 CAX        16.6420   -6.1980   10.6950 c3        1 0DX     -0.168000
     22 CAY        -0.2320   -7.8340    9.5010 c1        1 0DX     -0.061000
     23 CAZ         2.7120   -9.1950    9.7330 c3        1 0DX     -0.005000
     24 CBA        11.2270   -1.9400    5.6970 c3        1 0DX     -0.020000
     25 CBB        11.3040   -0.1500    7.8920 c1        1 0DX     -0.096000
     26 CBC         8.1650   -6.1590    0.7630 c3        1 0DX     -0.105000
     27 CBD         5.4550   -0.9340    1.7970 c1        1 0DX     -0.226500
     28 CBE        14.1930   -7.3890   11.5990 c3        1 0DX     -0.074000
     29 CBF        16.0950   -7.4880   10.0750 c3        1 0DX     -0.074000
     30 CBG         0.2080   -7.6330    8.1270 c3        1 0DX     -0.143000
     31 CBH         1.9640   -9.3140    8.3930 c3        1 0DX     -0.095000
     32 CBI        12.1880   -0.7650    5.6920 c3        1 0DX     -0.167000
     33 CBJ        12.5360   -0.2850    7.1160 c3        1 0DX     -0.092000
     34 CBK         3.5330   -7.5940    4.6510 c2        1 0DX     -0.701000
     35 CBL        14.7360   -1.3910    9.8340 c2        1 0DX     -0.233000
     36 NBM         5.2930   -3.5220    6.6040 n2        1 0DX     -0.127000
     37 NBN        11.0490  -10.4880    8.8900 n3        1 0DX     -0.331000
     38 CBO         5.7390   -4.5000    6.0480 c1        1 0DX      0.183000
     39 CBP         7.9180   -8.8980    7.5550 ca        1 0DX     -0.097000
     40 CBQ         5.7950   -8.4090    4.5120 c2        1 0DX      0.313000
     41 CBR         8.5470   -4.9240    8.9410 c2        1 0DX      0.351000
     42 CBS         5.3080   -6.0020    4.2260 c2        1 0DX      0.273000
     43 CBT         8.9100   -7.3360    9.2030 c2        1 0DX      0.360000
     44 CBU         6.5700   -8.0830    5.7230 ca        1 0DX     -0.119000
     45 CBV         8.1680   -5.1670    7.5190 c2        1 0DX     -0.141000
     46 CBW         5.9700   -5.7070    5.4990 c2        1 0DX     -0.242000
     47 CBX         8.1540   -7.5790    7.9440 ca        1 0DX     -0.081000
     48 CBY         6.7470   -6.7450    6.1420 ca        1 0DX      0.099000
     49 CBZ         7.6530   -6.4950    7.1970 ca        1 0DX     -0.027000
     50 NCA         6.5220   -0.0930    5.6860 n3        1 0DX     -0.295000
     51 NCB        16.2480   -6.0180   12.1480 n4        1 0DX      0.223000
     52 OCC         1.8730   -9.4570   10.8350 oh        1 0DX     -0.362000
     53 OCD         9.8700   -1.5420    5.7400 oh        1 0DX     -0.361000
     54 NCE         7.7680   -5.4540    1.9500 n3        1 0DX     -0.302000
     55 NCF        14.6570   -7.6300   10.2450 n3        1 0DX     -0.244000
     56 NCG         1.5750   -8.0300    7.8280 n3        1 0DX     -0.264000
     57 NCH        13.6820   -1.0010    7.6620 n3        1 0DX     -0.297000
     58 NCI         4.7820   -7.4140    4.0330 n4        1 0DX      0.119000
     59 NCJ         8.9680   -6.0280    9.6870 n         1 0DX     -0.369000
     60 HAA         6.9930    0.3470    3.6320 h1        1 0DX      0.078333
     61 HAAA        7.4220    1.6070    4.8830 h1        1 0DX      0.078333
     62 HAAB        8.3970    0.0660    4.7600 h1        1 0DX      0.078333
     63 HAB        16.2840   -3.9080   12.4860 hx        1 0DX      0.130000
     64 HABA       16.6240   -6.8320   12.6430 hn        1 0DX      0.190000
     65 HABB       17.6800   -4.9210   13.2760 hx        1 0DX      0.130000
     66 HAI         7.0130  -10.1790    6.0540 ha        1 0DX      0.170000
     67 HAJ         8.2700   -4.3610    5.5290 ha        1 0DX      0.158000
     68 HAK         9.2410   -2.9420    3.7540 ha        1 0DX      0.124500
     69 HAKA        7.4530   -3.0450    3.2720 ha        1 0DX      0.124500
     70 HAL        10.5520  -10.5300    9.7610 hn        1 0DX      0.144000
     71 HALA       12.5880   -9.3680   10.9660 ha        1 0DX      0.129000
     72 HAM         3.9280   -8.6310    6.4900 hc        1 0DX      0.046000
     73 HAMA        3.7600   -6.8450    6.6600 hc        1 0DX      0.046000
     74 HAN        15.2670   -3.2880   10.6710 hc        1 0DX      0.078667
     75 HANA       13.9290   -3.3470    9.4500 hc        1 0DX      0.078667
     76 HAO         6.1370   -1.9790    7.6880 h1        1 0DX      0.135000
     77 HAOA        4.5810   -1.6210    6.7900 h1        1 0DX      0.135000
     78 HAP        10.8000   -9.6230    8.4460 hn        1 0DX      0.144000
     79 HAPA       12.9730  -10.5470    8.0990 h1        1 0DX      0.088500
     80 HAQ         7.4500   -1.9660    5.5660 h1        1 0DX      0.095500
     81 HAQA        9.7550   -5.0200    2.4880 h4        1 0DX      0.130000
     82 HAR        12.6980  -11.5500    9.5910 h1        1 0DX      0.088500
     83 HARA       14.5430   -8.8810    8.5670 h4        1 0DX      0.137000
     84 HAS         1.4740   -8.7840    5.8210 h1        1 0DX      0.069000
     85 HASA        1.3390   -6.9810    6.0160 h1        1 0DX      0.069000
     86 HAT        15.6390   -3.0990    8.9090 hc        1 0DX      0.078667
     87 HATA       14.0670    0.4930    9.0960 h4        1 0DX      0.132000
     88 HAU         7.3560   -6.8910    0.4980 h1        1 0DX      0.074000
     89 HAUA        5.9300   -1.8310    4.5670 h1        1 0DX      0.095500
     90 HAV         5.6120    0.3300    5.6810 hn        1 0DX      0.152000
     91 HAVA        5.0610   -3.0660    2.4400 ha        1 0DX      0.227500
     92 HAW        14.3440   -5.1960   11.6690 hx        1 0DX      0.126000
     93 HAWA       14.4490   -6.0320   13.2890 hx        1 0DX      0.126000
     94 HAX        16.2710   -5.2970   10.1350 hx        1 0DX      0.126000
     95 HAXA       17.7640   -6.2090   10.6450 hx        1 0DX      0.126000
     96 HAY         1.0900   -8.8840   10.7450 ho        1 0DX      0.237000
     97 HAYA       -1.2020   -7.3700    9.7360 ha        1 0DX      0.047000
     98 HAZ         3.1960   -8.1890    9.8490 h1        1 0DX      0.077000
     99 HAZA        3.5030   -9.9920    9.7820 h1        1 0DX      0.077000
    100 HBA        11.4410   -2.6240    6.5640 h1        1 0DX      0.077500
    101 HBAA       11.3170   -2.5250    4.7400 h1        1 0DX      0.077500
    102 HBB         9.7820   -0.8490    6.4190 ho        1 0DX      0.240000
    103 HBBA       11.3360   -0.3480    8.9720 ha        1 0DX      0.071000
    104 HBC         9.1140   -6.7260    0.9590 h1        1 0DX      0.074000
    105 HBCA        8.3350   -5.4830   -0.1200 h1        1 0DX      0.074000
    106 HBD         6.8610   -5.0330    1.8710 hn        1 0DX      0.193000
    107 HBDA        5.6400    0.0640    1.4890 ha        1 0DX      0.227500
    108 HBE        14.4410   -8.2560   12.2800 h1        1 0DX      0.088000
    109 HBEA       13.0710   -7.2870   11.5690 h1        1 0DX      0.088000
    110 HBF        16.6480   -8.3690   10.5180 h1        1 0DX      0.088000
    111 HBFA       16.3170   -7.4660    8.9710 h1        1 0DX      0.088000
    112 HBG        -0.5490   -8.1870    7.4760 h1        1 0DX      0.108000
    113 HBGA        0.1230   -6.5350    7.8510 h1        1 0DX      0.108000
    114 HBH         1.0650   -9.9770    8.5590 h1        1 0DX      0.080500
    115 HBHA        2.6450   -9.8470    7.6700 h1        1 0DX      0.080500
    116 HBI        13.6050   -1.9930    7.5560 hn        1 0DX      0.183000
    117 HBIA       13.1240   -1.0460    5.1430 hc        1 0DX      0.110500
    118 HBJ        11.7120    0.0930    5.1480 hc        1 0DX      0.110500
    119 HBJA       12.8540    0.8160    7.0210 h1        1 0DX      0.157000
    120 HBK         4.6530   -7.5460    3.0190 hn        1 0DX      0.239000
    121 HBKA        2.6720   -7.4870    3.9890 hx        1 0DX      0.151000
    122 HBL         9.3210   -5.8760   10.6080 hn        1 0DX      0.257000
    123 HBLA       15.1590   -0.9300   10.7400 ha        1 0DX      0.137000
    124 HNBM        8.9150   -3.2610    6.8890 ha        1 0DX      0.158000
    125 HNBN        8.3410   -9.7290    8.1460 ha        1 0DX      0.178000
    126 CAB        16.7420   -4.8570   12.7370 c2        1 0DX     -0.831000
@<TRIPOS>BOND
     1    1   50 1   
     2    1   60 1   
     3    1   61 1   
     4    1   62 1   
     5    2   40 1   
     6    3   41 1   
     7    4   42 1   
     8    5   43 1   
     9    6   39 1   
    10    6   44 1   
    11    6   66 1   
    12    7   45 1   
    13    7   67 1   
    14    7  124 1   
    15    8   14 1   
    16    8   68 1   
    17    8   69 1   
    18    9   13 1   
    19    9   15 1   
    20    9   71 1   
    21   10   16 1   
    22   10   34 1   
    23   10   72 1   
    24   10   73 1   
    25   11   35 1   
    26   11   74 1   
    27   11   75 1   
    28   11   86 1   
    29   12   18 1   
    30   12   36 1   
    31   12   76 1   
    32   12   77 1   
    33   13   37 1   
    34   13   79 1   
    35   13   82 1   
    36   14   54 1   
    37   14   81 1   
    38   15   55 1   
    39   15   83 1   
    40   16   56 1   
    41   16   84 1   
    42   16   85 1   
    43   17   35 1   
    44   17   57 1   
    45   17   87 1   
    46   18   50 1   
    47   18   80 1   
    48   18   89 1   
    49   19   27 1   
    50   19   91 1   
    51   20   28 1   
    52   20   51 1   
    53   20   92 1   
    54   20   93 1   
    55   21   29 1   
    56   21   51 1   
    57   21   94 1   
    58   21   95 1   
    59   22   30 1   
    60   22   97 1   
    61   23   31 1   
    62   23   52 1   
    63   23   98 1   
    64   23   99 1   
    65   24   32 1   
    66   24   53 1   
    67   24  100 1   
    68   24  101 1   
    69   25   33 1   
    70   25  103 1   
    71   26   54 1   
    72   26   88 1   
    73   26  104 1   
    74   26  105 1   
    75   27  107 1   
    76   28   55 1   
    77   28  108 1   
    78   28  109 1   
    79   29   55 1   
    80   29  110 1   
    81   29  111 1   
    82   30   56 1   
    83   30  112 1   
    84   30  113 1   
    85   31   56 1   
    86   31  114 1   
    87   31  115 1   
    88   32   33 1   
    89   32  117 1   
    90   32  118 1   
    91   33   57 1   
    92   33  119 1   
    93   34   58 1   
    94   34  121 1   
    95   35  123 1   
    96   36   38 1   
    97   37   70 1   
    98   37   78 1   
    99   38   46 1   
   100   39   47 1   
   101   39  125 1   
   102   40   44 1   
   103   40   58 1   
   104   41   45 1   
   105   41   59 1   
   106   42   46 1   
   107   42   58 1   
   108   43   47 1   
   109   43   59 1   
   110   44   48 1   
   111   45   49 1   
   112   46   48 1   
   113   47   49 1   
   114   48   49 1   
   115   50   90 1   
   116   51   64 1   
   117   51  126 1   
   118   52   96 1   
   119   53  102 1   
   120   54  106 1   
   121   57  116 1   
   122   58  120 1   
   123   59  122 1   
   124   63  126 1   
   125   65  126 1   
@<TRIPOS>SUBSTRUCTURE
     1 0DX         1 TEMP              0 ****  ****    0 ROOT
