@<TRIPOS>MOLECULE
0DY
   55    55     1     0     0
SMALL
bcc


@<TRIPOS>ATOM
      1 N           4.7320   -1.1000    1.7920 n         1 0DY     -0.350400
      2 OH          5.4630   -2.2150    1.7470 oh        1 0DY     -0.430100
      3 C1          3.8660   -0.9040    0.6730 c         1 0DY      0.603100
      4 O1          3.4720   -1.8840    0.0190 o         1 0DY     -0.573100
      5 CA          3.3720    0.5160    0.4470 c3        1 0DY     -0.213700
      6 CB          4.4350    1.2980   -0.3190 c3        1 0DY     -0.064400
      7 CG          4.3250    2.8010   -0.0990 c3        1 0DY     -0.071700
      8 CD1         4.8370    3.2070    1.2670 c3        1 0DY     -0.092600
      9 CD2         5.0960    3.5310   -1.1800 c3        1 0DY     -0.092600
     10 C           2.0320    0.5480   -0.2910 c         1 0DY      0.678100
     11 O           1.8310    1.3260   -1.2430 o         1 0DY     -0.590100
     12 N1          1.0520   -0.3080    0.1640 n         1 0DY     -0.557900
     13 CA1        -0.2900   -0.3050   -0.3540 c3        1 0DY      0.042700
     14 C2         -1.3100    0.0790    0.7540 c         1 0DY      0.634100
     15 O2         -1.1130   -0.2360    1.9450 o         1 0DY     -0.614100
     16 CB1        -0.7370   -1.6750   -0.8900 c3        1 0DY     -0.170400
     17 CG1        -0.0070   -2.0260   -2.1740 c         1 0DY      0.655100
     18 OD1        -0.5800   -1.9130   -3.2790 o         1 0DY     -0.621100
     19 ND2         1.2710   -2.5080   -2.0940 n         1 0DY     -0.657000
     20 N2         -2.4070    0.8110    0.3560 n         1 0DY     -0.546900
     21 CB2        -3.5020    1.0960    1.2470 c3        1 0DY      0.124300
     22 CG2        -4.7930    0.4260    0.8640 ca        1 0DY     -0.084300
     23 CD11       -5.3350   -0.5680    1.6810 ca        1 0DY     -0.155000
     24 CE1        -6.5450   -1.1640    1.3270 ca        1 0DY     -0.093000
     25 CD21       -5.4500    0.8190   -0.3010 ca        1 0DY     -0.189000
     26 CE2        -6.6710    0.2120   -0.6740 ca        1 0DY      0.144600
     27 CZ         -7.2140   -0.7860    0.1700 ca        1 0DY     -0.185000
     28 NE2        -7.2860    0.5320   -1.8880 nh        1 0DY     -0.821200
     29 HN          5.3630   -0.3200    1.9450 hn        1 0DY      0.306500
     30 HOH         4.8480   -2.9470    1.9560 ho        1 0DY      0.437000
     31 HA          3.1920    1.0120    1.4470 hc        1 0DY      0.103700
     32 HB1         5.4570    0.9560   -0.0080 hc        1 0DY      0.060700
     33 HB2         4.3200    1.0810   -1.4150 hc        1 0DY      0.060700
     34 HG          3.2370    3.0870   -0.1850 hc        1 0DY      0.072700
     35 HD11        5.9140    2.9350    1.3820 hc        1 0DY      0.036367
     36 HD12        4.7380    4.3120    1.3990 hc        1 0DY      0.036367
     37 HD13        4.2560    2.7080    2.0800 hc        1 0DY      0.036367
     38 HD21        4.6730    3.2950   -2.1860 hc        1 0DY      0.036367
     39 HD22        5.0330    4.6340   -1.0190 hc        1 0DY      0.036367
     40 HD23        6.1720    3.2320   -1.1670 hc        1 0DY      0.036367
     41 H           1.2150   -0.8620    0.9740 hn        1 0DY      0.329500
     42 HA1        -0.3340    0.4470   -1.2020 h1        1 0DY      0.114700
     43 HB21       -0.5880   -2.4720   -0.1160 hc        1 0DY      0.084200
     44 HB3        -1.8330   -1.6250   -1.1290 hc        1 0DY      0.084200
     45 HD24        1.7780   -2.4880   -1.2440 hn        1 0DY      0.320000
     46 HD25        1.7730   -2.6710   -2.9330 hn        1 0DY      0.320000
     47 HN1        -2.5940    0.8920   -0.6170 hn        1 0DY      0.315500
     48 HB11       -3.2090    0.7950    2.2950 h1        1 0DY      0.071700
     49 HB22       -3.6650    2.2150    1.2380 h1        1 0DY      0.071700
     50 HD14       -4.8110   -0.8790    2.5970 ha        1 0DY      0.140000
     51 HC11       -6.9760   -1.9450    1.9720 ha        1 0DY      0.133000
     52 HC21       -5.0100    1.6060   -0.9320 ha        1 0DY      0.130000
     53 HCZ1       -8.1650   -1.2740   -0.0920 ha        1 0DY      0.133000
     54 HE21       -7.0530    1.4300   -2.2480 hn        1 0DY      0.392300
     55 HE22       -8.2590    0.3280   -1.9270 hn        1 0DY      0.392300
@<TRIPOS>BOND
     1    1    2 1   
     2    1    3 1   
     3    1   29 1   
     4    2   30 1   
     5    3    4 2   
     6    3    5 1   
     7    5    6 1   
     8    5   10 1   
     9    5   31 1   
    10    6    7 1   
    11    6   32 1   
    12    6   33 1   
    13    7    8 1   
    14    7    9 1   
    15    7   34 1   
    16    8   35 1   
    17    8   36 1   
    18    8   37 1   
    19    9   38 1   
    20    9   39 1   
    21    9   40 1   
    22   10   11 2   
    23   10   12 1   
    24   12   13 1   
    25   12   41 1   
    26   13   14 1   
    27   13   16 1   
    28   13   42 1   
    29   14   15 2   
    30   14   20 1   
    31   16   17 1   
    32   16   43 1   
    33   16   44 1   
    34   17   18 2   
    35   17   19 1   
    36   19   45 1   
    37   19   46 1   
    38   20   21 1   
    39   20   47 1   
    40   21   22 1   
    41   21   48 1   
    42   21   49 1   
    43   22   23 ar  
    44   22   25 ar  
    45   23   24 ar  
    46   23   50 1   
    47   24   27 ar  
    48   24   51 1   
    49   25   26 ar  
    50   25   52 1   
    51   26   27 ar  
    52   26   28 1   
    53   27   53 1   
    54   28   54 1   
    55   28   55 1   
@<TRIPOS>SUBSTRUCTURE
     1 0DY         1 TEMP              0 ****  ****    0 ROOT
