@<TRIPOS>MOLECULE
0DY
   55    53     1     0     0
SMALL
bcc


@<TRIPOS>ATOM
      1 N          -3.0240   -1.0200   -4.2330 n         1 0DY     -0.188000
      2 OH         -4.2640   -1.3360   -4.8140 oh        1 0DY     -0.230000
      3 C1         -2.8410   -1.1510   -2.8080 c2        1 0DY      0.244000
      4 O1         -3.8060   -1.4270   -2.0850 o         1 0DY     -0.348000
      5 CA         -1.4970   -0.8420   -2.1880 c3        1 0DY     -0.146000
      6 CB         -0.8440   -2.1300   -1.7250 c3        1 0DY     -0.150000
      7 CG          0.0070   -2.7300   -2.8780 c3        1 0DY     -0.110000
      8 CD1         1.5260   -2.6060   -2.5250 c3        1 0DY     -0.210000
      9 CD2        -0.3560   -4.2110   -3.0610 c3        1 0DY     -0.210000
     10 C          -1.6920    0.0730   -1.0030 c2        1 0DY      0.318000
     11 O          -2.2740   -0.3280   -0.0190 o         1 0DY     -0.389000
     12 N1         -1.2750    1.4410   -1.0810 n         1 0DY     -0.366000
     13 CA1        -1.2150    2.2550    0.1230 c3        1 0DY      0.016000
     14 C2          0.2290    2.5270    0.4730 c2        1 0DY      0.274000
     15 O2          0.8890    3.2120   -0.2340 o         1 0DY     -0.360000
     16 CB1        -1.9300    3.5660   -0.1220 c3        1 0DY     -0.188000
     17 CG1        -3.1760    3.6590    0.7860 c2        1 0DY      0.301000
     18 OD1        -3.3650    2.8210    1.6520 o         1 0DY     -0.370000
     19 ND2        -4.0910    4.7630    0.6390 n         1 0DY     -0.435000
     20 N2          0.8240    1.9020    1.6290 n         1 0DY     -0.354000
     21 CB2         2.2870    1.5850    1.6320 c3        1 0DY      0.000000
     22 CG2         2.5900    0.5600    2.7510 c2        1 0DY     -0.074000
     23 CD11        1.8290   -0.5840    2.8530 c2        1 0DY     -0.148000
     24 CE1         2.1730   -1.5780    3.7800 c1        1 0DY     -0.095000
     25 CD21        3.7200    0.7320    3.5810 c1        1 0DY     -0.183000
     26 CE2         4.0620   -0.2510    4.4990 c1        1 0DY      0.027000
     27 CZ          3.2870   -1.4110    4.6000 c1        1 0DY     -0.177000
     28 NE2         5.1930   -0.0410    5.4120 n3        1 0DY     -0.328000
     29 HN         -2.3500   -0.7620   -4.7430 hn        1 0DY      0.242000
     30 HOH        -4.1540   -1.5010   -5.6520 ho        1 0DY      0.230000
     31 HA         -0.9190   -0.3990   -2.8560 hc        1 0DY      0.146000
     32 HB1        -1.5400   -2.7730   -1.4630 hc        1 0DY      0.105500
     33 HB2        -0.2700   -1.9450   -0.9600 hc        1 0DY      0.105500
     34 HG         -0.1770   -2.2400   -3.7150 hc        1 0DY      0.094000
     35 HD11        1.7630   -1.6540   -2.4250 hc        1 0DY      0.077000
     36 HD12        2.0690   -3.0080   -3.2530 hc        1 0DY      0.077000
     37 HD13        1.7070   -3.0820   -1.6760 hc        1 0DY      0.077000
     38 HD21       -1.2560   -4.2830   -3.4720 hc        1 0DY      0.077000
     39 HD22        0.3060   -4.6400   -3.6470 hc        1 0DY      0.077000
     40 HD23       -0.3580   -4.6580   -2.1860 hc        1 0DY      0.077000
     41 H          -1.1040    1.8180   -1.8930 hn        1 0DY      0.256000
     42 HA1        -1.6520    1.7740    0.8710 h1        1 0DY      0.143000
     43 HB21       -2.2060    3.6140   -1.0570 hc        1 0DY      0.134000
     44 HB3        -1.3210    4.3110    0.0780 hc        1 0DY      0.134000
     45 HD24       -4.9240    4.7280    1.0320 hn        1 0DY      0.226500
     46 HD25       -3.8320    5.5110    0.1870 hn        1 0DY      0.226500
     47 HN1         0.3260    1.7830    2.3940 hn        1 0DY      0.243000
     48 HB11        2.7970    2.4030    1.7910 h1        1 0DY      0.112500
     49 HB22        2.5410    1.2040    0.7600 h1        1 0DY      0.112500
     50 HD14        1.0540   -0.7010    2.2830 ha        1 0DY      0.139000
     51 HC11        1.6360   -2.3820    3.8500 ha        1 0DY      0.134000
     52 HC21        4.2530    1.5310    3.5100 ha        1 0DY      0.145000
     53 HCZ1        3.5190   -2.0870    5.2290 ha        1 0DY      0.133000
     54 HE21        5.3040   -0.6030    6.1580 hn        1 0DY      0.178000
     55 HE22        5.8220    0.5920    5.2200 hn        1 0DY      0.178000
@<TRIPOS>BOND
     1    1    2 1   
     2    1    3 1   
     3    1   29 1   
     4    2   30 1   
     5    3    4 1   
     6    3    5 1   
     7    5    6 1   
     8    5   10 1   
     9    5   31 1   
    10    6    7 1   
    11    6   32 1   
    12    6   33 1   
    13    7    8 1   
    14    7    9 1   
    15    7   34 1   
    16    8   35 1   
    17    8   36 1   
    18    8   37 1   
    19    9   38 1   
    20    9   39 1   
    21    9   40 1   
    22   10   11 1   
    23   10   12 1   
    24   12   13 1   
    25   12   41 1   
    26   13   14 1   
    27   13   16 1   
    28   13   42 1   
    29   14   15 1   
    30   14   20 1   
    31   16   17 1   
    32   16   43 1   
    33   16   44 1   
    34   17   18 1   
    35   17   19 1   
    36   19   45 1   
    37   19   46 1   
    38   20   21 1   
    39   20   47 1   
    40   21   22 1   
    41   21   48 1   
    42   21   49 1   
    43   22   23 1   
    44   22   25 1   
    45   23   24 1   
    46   23   50 1   
    47   24   51 1   
    48   25   52 1   
    49   26   27 1   
    50   26   28 1   
    51   27   53 1   
    52   28   54 1   
    53   28   55 1   
@<TRIPOS>SUBSTRUCTURE
     1 0DY         1 TEMP              0 ****  ****    0 ROOT
