@<TRIPOS>MOLECULE
0E0
   39    41     1     0     0
SMALL
bcc


@<TRIPOS>ATOM
      1 C1          0.0570    0.0180   -0.0280 cc        1 0E0      0.073400
      2 N2          1.4420   -0.0310   -0.0110 n         1 0E0     -0.450100
      3 C3          2.1740   -0.0550    1.1830 c         1 0E0      0.707100
      4 O4          3.4180   -0.0900    1.1100 o         1 0E0     -0.636500
      5 C5          1.4070   -0.0420    2.4410 ca        1 0E0     -0.158600
      6 C6         -0.0030    0.0040    2.4130 ca        1 0E0      0.030200
      7 C7         -0.6750    0.0470    1.1360 cd        1 0E0     -0.202400
      8 C8         -2.1630    0.1080    1.1050 c3        1 0E0      0.189600
      9 O9         -2.7120    0.3850   -0.1790 os        1 0E0     -0.414600
     10 C10        -2.0890   -0.3620   -1.2270 c3        1 0E0      0.147100
     11 C11        -2.9080   -0.1180   -2.5110 c3        1 0E0     -0.042000
     12 C12        -2.3080   -0.9190   -3.6540 c3        1 0E0     -0.089600
     13 C13        -4.3370   -0.6170   -2.2340 c3        1 0E0      0.135400
     14 O14        -5.0990   -0.4700   -3.4230 oh        1 0E0     -0.603800
     15 C15        -2.9550    1.3570   -2.8720 c3        1 0E0     -0.089600
     16 C16        -0.6280    0.0590   -1.3630 c3        1 0E0     -0.082200
     17 C17        -0.7000    0.0050    3.6380 ca        1 0E0     -0.152000
     18 C18        -0.0100   -0.0330    4.8390 ca        1 0E0     -0.090000
     19 C19         1.3910   -0.0750    4.8560 ca        1 0E0     -0.156000
     20 C20         2.0970   -0.0800    3.6630 ca        1 0E0     -0.061000
     21 H2         -2.5430    0.9570    1.7390 h1        1 0E0      0.056700
     22 H3         -2.5890   -0.8650    1.4770 h1        1 0E0      0.056700
     23 H4         -2.1340   -1.4600   -0.9680 h1        1 0E0      0.044700
     24 H5         -2.1730   -1.9870   -3.3580 hc        1 0E0      0.044200
     25 H6         -2.9940   -0.8760   -4.5350 hc        1 0E0      0.044200
     26 H7         -1.3170   -0.5000   -3.9530 hc        1 0E0      0.044200
     27 H8         -4.3140   -1.7010   -1.9400 h1        1 0E0      0.032700
     28 H9         -4.7880   -0.0130   -1.4010 h1        1 0E0      0.032700
     29 H10        -6.0170   -0.6300   -3.1770 ho        1 0E0      0.402000
     30 H11        -1.9650    1.7040   -3.2530 hc        1 0E0      0.044200
     31 H12        -3.7200    1.5200   -3.6700 hc        1 0E0      0.044200
     32 H13        -3.2300    1.9630   -1.9750 hc        1 0E0      0.044200
     33 H14        -0.5710    1.1090   -1.7600 hc        1 0E0      0.075200
     34 H15        -0.1210   -0.6210   -2.0980 hc        1 0E0      0.075200
     35 H16        -1.8000    0.0340    3.6390 ha        1 0E0      0.136000
     36 H17        -0.5640   -0.0310    5.7900 ha        1 0E0      0.135000
     37 H18         1.9270   -0.1030    5.8160 ha        1 0E0      0.139000
     38 H19         3.1990   -0.1140    3.6500 ha        1 0E0      0.159000
     39 H20         1.9390   -0.0400   -0.8740 hn        1 0E0      0.333500
@<TRIPOS>BOND
     1    1    2 1   
     2    1    7 2   
     3    1   16 1   
     4    2    3 1   
     5    2   39 1   
     6    3    4 2   
     7    3    5 1   
     8    5    6 ar  
     9    5   20 ar  
    10    6    7 1   
    11    6   17 ar  
    12    7    8 1   
    13    8    9 1   
    14    8   21 1   
    15    8   22 1   
    16    9   10 1   
    17   10   11 1   
    18   10   16 1   
    19   10   23 1   
    20   11   12 1   
    21   11   13 1   
    22   11   15 1   
    23   12   24 1   
    24   12   25 1   
    25   12   26 1   
    26   13   14 1   
    27   13   27 1   
    28   13   28 1   
    29   14   29 1   
    30   15   30 1   
    31   15   31 1   
    32   15   32 1   
    33   16   33 1   
    34   16   34 1   
    35   17   18 ar  
    36   17   35 1   
    37   18   19 ar  
    38   18   36 1   
    39   19   20 ar  
    40   19   37 1   
    41   20   38 1   
@<TRIPOS>SUBSTRUCTURE
     1 0E0         1 TEMP              0 ****  ****    0 ROOT
