@<TRIPOS>MOLECULE
0E0
   39    41     1     0     0
SMALL
bcc


@<TRIPOS>ATOM
      1 C1          0.0570    0.0250   -0.0260 cc        1 0E0      0.073400
      2 N2          1.4420   -0.0190   -0.0090 ns        1 0E0     -0.450100
      3 C3          2.1730   -0.0430    1.1860 c         1 0E0      0.707100
      4 O4          3.4170   -0.0720    1.1130 o         1 0E0     -0.636500
      5 C5          1.4050   -0.0360    2.4430 ca        1 0E0     -0.158600
      6 C6         -0.0050    0.0050    2.4140 ca        1 0E0      0.030200
      7 C7         -0.6770    0.0470    1.1370 cd        1 0E0     -0.202400
      8 C8         -2.1650    0.1020    1.1050 c3        1 0E0      0.189600
      9 O9         -2.7140    0.3810   -0.1780 os        1 0E0     -0.414600
     10 C10        -2.0870   -0.3620   -1.2280 c3        1 0E0      0.147100
     11 C11        -2.9070   -0.1180   -2.5110 c3        1 0E0     -0.042000
     12 C12        -2.3020   -0.9130   -3.6560 c3        1 0E0     -0.089600
     13 C13        -4.3340   -0.6230   -2.2370 c3        1 0E0      0.135400
     14 O14        -5.0950   -0.4770   -3.4260 oh        1 0E0     -0.603800
     15 C15        -2.9600    1.3580   -2.8690 c3        1 0E0     -0.089600
     16 C16        -0.6280    0.0660   -1.3630 c3        1 0E0     -0.082200
     17 C17        -0.7030   -0.0010    3.6390 ca        1 0E0     -0.152000
     18 C18        -0.0130   -0.0390    4.8410 ca        1 0E0     -0.090000
     19 C19         1.3880   -0.0750    4.8590 ca        1 0E0     -0.156000
     20 C20         2.0940   -0.0740    3.6650 ca        1 0E0     -0.061000
     21 H2         -2.5490    0.9480    1.7410 h1        1 0E0      0.056700
     22 H3         -2.5870   -0.8730    1.4750 h1        1 0E0      0.056700
     23 H4         -2.1270   -1.4600   -0.9710 h1        1 0E0      0.044700
     24 H5         -1.3130   -0.4890   -3.9540 hc        1 0E0      0.044200
     25 H6         -2.9880   -0.8710   -4.5380 hc        1 0E0      0.044200
     26 H7         -2.1630   -1.9810   -3.3630 hc        1 0E0      0.044200
     27 H8         -4.3060   -1.7080   -1.9460 h1        1 0E0      0.032700
     28 H9         -4.7880   -0.0240   -1.4030 h1        1 0E0      0.032700
     29 H10        -6.0130   -0.6420   -3.1820 ho        1 0E0      0.402000
     30 H11        -1.9710    1.7100   -3.2480 hc        1 0E0      0.044200
     31 H12        -3.2380    1.9600   -1.9710 hc        1 0E0      0.044200
     32 H13        -3.7250    1.5200   -3.6670 hc        1 0E0      0.044200
     33 H14        -0.1180   -0.6110   -2.0990 hc        1 0E0      0.075200
     34 H15        -0.5750    1.1170   -1.7570 hc        1 0E0      0.075200
     35 H16        -1.8030    0.0240    3.6390 ha        1 0E0      0.136000
     36 H17        -0.5680   -0.0420    5.7910 ha        1 0E0      0.135000
     37 H18         1.9230   -0.1030    5.8190 ha        1 0E0      0.139000
     38 H19         3.1960   -0.1030    3.6530 ha        1 0E0      0.159000
     39 H20         1.9400   -0.0230   -0.8710 hn        1 0E0      0.333500
@<TRIPOS>BOND
     1    1    2 1   
     2    1    7 2   
     3    1   16 1   
     4    2    3 1   
     5    2   39 1   
     6    3    4 2   
     7    3    5 1   
     8    5    6 ar  
     9    5   20 ar  
    10    6    7 1   
    11    6   17 ar  
    12    7    8 1   
    13    8    9 1   
    14    8   21 1   
    15    8   22 1   
    16    9   10 1   
    17   10   11 1   
    18   10   16 1   
    19   10   23 1   
    20   11   12 1   
    21   11   13 1   
    22   11   15 1   
    23   12   24 1   
    24   12   25 1   
    25   12   26 1   
    26   13   14 1   
    27   13   27 1   
    28   13   28 1   
    29   14   29 1   
    30   15   30 1   
    31   15   31 1   
    32   15   32 1   
    33   16   33 1   
    34   16   34 1   
    35   17   18 ar  
    36   17   35 1   
    37   18   19 ar  
    38   18   36 1   
    39   19   20 ar  
    40   19   37 1   
    41   20   38 1   
@<TRIPOS>SUBSTRUCTURE
     1 0E0         1 TEMP              0 ****  ****    0 ROOT
