@<TRIPOS>MOLECULE
0E1
   30    31     1     0     0
SMALL
bcc


@<TRIPOS>ATOM
      1 C1          0.0020    0.2410    0.0110 ca        1 0E1     -0.154300
      2 C2         -0.6660    0.5520   -1.1970 cg        1 0E1      0.249800
      3 N3         -1.2160    0.8060   -2.1900 n1        1 0E1     -0.354800
      4 C4          1.3730    0.4750    0.1650 ca        1 0E1     -0.020000
      5 C5          1.9990    0.1570    1.3720 ca        1 0E1     -0.273600
      6 C6          1.2240   -0.3970    2.4220 ca        1 0E1      0.491600
      7 N7         -0.1020   -0.6350    2.3010 nb        1 0E1     -0.746000
      8 C8         -0.6930   -0.3210    1.1200 ca        1 0E1      0.673600
      9 O9         -2.0350   -0.5480    0.9580 oh        1 0E1     -0.599300
     10 C10         3.4640    0.3820    1.5270 c3        1 0E1      0.182700
     11 O11         3.9170    0.3080    2.8720 os        1 0E1     -0.403600
     12 C12         3.4010   -0.8330    3.5640 c3        1 0E1      0.139100
     13 C13         4.1170   -0.9190    4.9180 c3        1 0E1     -0.056700
     14 C14         4.1510    0.4120    5.6360 c3        1 0E1     -0.090100
     15 C15         5.5230   -1.4480    4.7230 c3        1 0E1     -0.090100
     16 C16         1.8890   -0.7080    3.7320 c3        1 0E1     -0.168700
     17 H1          1.9530    0.9100   -0.6650 ha        1 0E1      0.155000
     18 H3          4.0250   -0.3730    0.9090 h1        1 0E1      0.060700
     19 H4          3.7500    1.4210    1.2040 h1        1 0E1      0.060700
     20 H5          3.6320   -1.7580    2.9620 h1        1 0E1      0.044700
     21 H6          3.5360   -1.6550    5.5430 hc        1 0E1      0.048700
     22 H7          4.6960    0.3100    6.6050 hc        1 0E1      0.040200
     23 H8          3.1160    0.7740    5.8480 hc        1 0E1      0.040200
     24 H9          4.6710    1.1770    5.0100 hc        1 0E1      0.040200
     25 H10         6.0520   -1.5070    5.7040 hc        1 0E1      0.040200
     26 H11         5.5000   -2.4690    4.2700 hc        1 0E1      0.040200
     27 H12         6.0970   -0.7710    4.0460 hc        1 0E1      0.040200
     28 H13         1.4870   -1.6590    4.1710 hc        1 0E1      0.082200
     29 H14         1.6530    0.1270    4.4470 hc        1 0E1      0.082200
     30 H2         -2.4040   -0.9270    1.7750 ho        1 0E1      0.448000
@<TRIPOS>BOND
     1    1    2 1   
     2    1    4 ar  
     3    1    8 ar  
     4    2    3 3   
     5    4    5 ar  
     6    4   17 1   
     7    5    6 ar  
     8    5   10 1   
     9    6    7 ar  
    10    6   16 1   
    11    7    8 ar  
    12    8    9 1   
    13    9   30 1   
    14   10   11 1   
    15   10   18 1   
    16   10   19 1   
    17   11   12 1   
    18   12   13 1   
    19   12   16 1   
    20   12   20 1   
    21   13   14 1   
    22   13   15 1   
    23   13   21 1   
    24   14   22 1   
    25   14   23 1   
    26   14   24 1   
    27   15   25 1   
    28   15   26 1   
    29   15   27 1   
    30   16   28 1   
    31   16   29 1   
@<TRIPOS>SUBSTRUCTURE
     1 0E1         1 TEMP              0 ****  ****    0 ROOT
