@<TRIPOS>MOLECULE
0E4
   66    63     1     0     0
SMALL
bcc


@<TRIPOS>ATOM
      1 C           3.0740   -4.1600    1.0220 c1        1 0E4      0.306000
      2 O           2.8740   -3.6890    2.1180 o         1 0E4     -0.373000
      3 CH3         3.2800   -5.6640    0.8650 c2        1 0E4     -0.240000
      4 N           3.0410   -3.3190   -0.1350 n3        1 0E4     -0.378000
      5 CA          2.5250   -2.0030   -0.0380 c3        1 0E4      0.017000
      6 C1          1.6220   -1.7220   -1.2320 c2        1 0E4      0.279000
      7 O1          2.1090   -1.5350   -2.3320 o         1 0E4     -0.385000
      8 CB          3.6750   -1.0050   -0.0300 c3        1 0E4     -0.126000
      9 CG          4.4800   -1.1620    1.2650 c2        1 0E4     -0.106000
     10 CD1         4.1870   -0.3610    2.3610 c1        1 0E4     -0.088000
     11 CD2         5.5980   -1.9870    1.2890 c2        1 0E4     -0.093000
     12 CE1         5.0090   -0.3850    3.4790 c1        1 0E4     -0.151000
     13 CE2         6.4220   -2.0100    2.4110 c1        1 0E4     -0.215000
     14 CZ          6.1280   -1.2110    3.5030 c1        1 0E4      0.074000
     15 OH          6.9100   -1.3070    4.6800 oh        1 0E4     -0.253000
     16 N1          0.1950   -1.7580   -1.0780 n         1 0E4     -0.347000
     17 CA1        -0.6330   -0.9890   -1.9420 c3        1 0E4      0.005000
     18 C2         -1.6530   -0.2370   -1.1230 c2        1 0E4      0.278000
     19 O2         -2.4480   -0.8470   -0.4390 o         1 0E4     -0.374000
     20 CB1        -1.3500   -1.9200   -2.9180 c3        1 0E4     -0.107000
     21 CG1        -2.7850   -2.1180   -2.4670 c3        1 0E4     -0.224500
     22 CG2        -1.3390   -1.3050   -4.3090 c3        1 0E4     -0.224500
     23 N2         -1.5870    1.2080   -1.0390 n         1 0E4     -0.335000
     24 CA2        -2.1330    1.8840    0.1040 c3        1 0E4     -0.016000
     25 C3         -2.9800    3.0710   -0.3600 c2        1 0E4      0.274000
     26 O3         -2.8670    3.4890   -1.4920 o         1 0E4     -0.401000
     27 CB2        -1.0220    2.3740    0.9690 c3        1 0E4     -0.218000
     28 N3         -3.8310    3.7710    0.5920 n         1 0E4     -0.333000
     29 CA3        -4.8450    4.6660    0.1220 c3        1 0E4     -0.044000
     30 C4         -4.3620    6.0910    0.2620 c2        1 0E4      0.174000
     31 O4         -4.3990    6.8450   -0.7020 o         1 0E4     -0.365000
     32 CB3        -6.0980    4.4770    0.9400 c3        1 0E4     -0.236000
     33 CG3        -7.2960    4.9020    0.1280 c2        1 0E4      0.333000
     34 OD1        -7.5840    4.2920   -0.9310 o         1 0E4     -0.573000
     35 OD2        -7.9660    5.9060    0.4760 o         1 0E4     -0.573000
     36 H1          2.9720   -6.1240    1.6780 ha        1 0E4      0.106000
     37 H2          4.2340   -5.8500    0.7260 ha        1 0E4      0.106000
     38 H3          2.7690   -5.9840    0.0940 ha        1 0E4      0.106000
     39 H           3.2750   -3.6570   -0.9490 hn        1 0E4      0.229000
     40 HA          2.0110   -1.9150    0.7870 h1        1 0E4      0.132000
     41 HB2         4.2610   -1.1740   -0.8030 hc        1 0E4      0.114500
     42 HB3         3.3190   -0.0980   -0.0840 hc        1 0E4      0.114500
     43 HD1         3.4410    0.2650    2.3200 ha        1 0E4      0.143000
     44 HD2         5.8050   -2.5500    0.5200 ha        1 0E4      0.131000
     45 HE1         4.8010    0.1810    4.2530 ha        1 0E4      0.152000
     46 HE2         7.2120   -2.5790    2.4230 ha        1 0E4      0.130000
     47 HH          7.6670   -0.8690    4.5660 ho        1 0E4      0.215000
     48 H4         -0.1770   -2.2260   -0.3880 hn        1 0E4      0.262000
     49 HA1        -0.0840   -0.3550   -2.4400 h1        1 0E4      0.137000
     50 HB         -0.8940   -2.7830   -2.9390 hc        1 0E4      0.089000
     51 HG11       -3.2660   -2.6650   -3.1310 hc        1 0E4      0.087000
     52 HG12       -2.7950   -2.5720   -1.6030 hc        1 0E4      0.087000
     53 HG13       -3.2220   -1.2510   -2.3830 hc        1 0E4      0.087000
     54 HG21       -0.9290   -1.9330   -4.9410 hc        1 0E4      0.087000
     55 HG22       -2.2600   -1.1140   -4.5900 hc        1 0E4      0.087000
     56 HG23       -0.8230   -0.4720   -4.2950 hc        1 0E4      0.087000
     57 H5         -1.1140    1.6770   -1.6610 hn        1 0E4      0.233000
     58 HA2        -2.6890    1.2680    0.6100 h1        1 0E4      0.136000
     59 HB1        -0.6830    3.2240    0.6150 hc        1 0E4      0.088667
     60 HB21       -0.2980    1.7110    0.9770 hc        1 0E4      0.088667
     61 HB31       -1.3520    2.5080    1.8810 hc        1 0E4      0.088667
     62 H6         -3.7650    3.5860    1.4800 hn        1 0E4      0.217000
     63 HA3        -5.0370    4.4770   -0.8160 h1        1 0E4      0.162000
     64 HB22       -6.1880    3.5360    1.1860 hc        1 0E4      0.080000
     65 HB32       -6.0440    5.0210    1.7490 hc        1 0E4      0.080000
     66 HXT        -4.1010    6.4330    1.1380 h4        1 0E4      0.173000
@<TRIPOS>BOND
     1    1    2 1   
     2    1    4 1   
     3    3   36 1   
     4    3   37 1   
     5    3   38 1   
     6    4    5 1   
     7    4   39 1   
     8    5    6 1   
     9    5    8 1   
    10    5   40 1   
    11    6    7 1   
    12    6   16 1   
    13    8    9 1   
    14    8   41 1   
    15    8   42 1   
    16    9   10 1   
    17    9   11 1   
    18   10   43 1   
    19   11   13 1   
    20   11   44 1   
    21   12   14 1   
    22   12   45 1   
    23   13   46 1   
    24   14   15 1   
    25   15   47 1   
    26   16   17 1   
    27   16   48 1   
    28   17   18 1   
    29   17   20 1   
    30   17   49 1   
    31   18   19 1   
    32   18   23 1   
    33   20   21 1   
    34   20   22 1   
    35   20   50 1   
    36   21   51 1   
    37   21   52 1   
    38   21   53 1   
    39   22   54 1   
    40   22   55 1   
    41   22   56 1   
    42   23   24 1   
    43   23   57 1   
    44   24   25 1   
    45   24   27 1   
    46   24   58 1   
    47   25   26 1   
    48   25   28 1   
    49   27   59 1   
    50   27   60 1   
    51   27   61 1   
    52   28   29 1   
    53   28   62 1   
    54   29   30 1   
    55   29   32 1   
    56   29   63 1   
    57   30   31 1   
    58   30   66 1   
    59   32   33 1   
    60   32   64 1   
    61   32   65 1   
    62   33   34 1   
    63   33   35 1   
@<TRIPOS>SUBSTRUCTURE
     1 0E4         1 TEMP              0 ****  ****    0 ROOT
