@<TRIPOS>MOLECULE
0E4
   66    66     1     0     0
SMALL
bcc


@<TRIPOS>ATOM
      1 C           5.4190    2.2930    0.7850 c         1 0E4      0.663100
      2 O           5.2820    1.7990    1.9190 o         1 0E4     -0.600100
      3 CH3         6.2400    3.5500    0.5930 c3        1 0E4     -0.181100
      4 N           4.9220    1.7020   -0.3780 n         1 0E4     -0.522900
      5 CA          3.8120    0.7810   -0.4320 c3        1 0E4      0.041700
      6 C1          2.4400    1.5170   -0.4090 c         1 0E4      0.617100
      7 O1          2.3330    2.6830    0.0190 o         1 0E4     -0.612100
      8 CB          3.7890   -0.3200    0.6410 c3        1 0E4     -0.043100
      9 CG          4.9000   -1.2920    0.4560 ca        1 0E4     -0.108300
     10 CD1         6.0430   -1.2190    1.2590 ca        1 0E4     -0.085500
     11 CD2         4.7990   -2.3040   -0.5080 ca        1 0E4     -0.085500
     12 CE1         7.0770   -2.1390    1.1060 ca        1 0E4     -0.188000
     13 CE2         5.8210   -3.2320   -0.6780 ca        1 0E4     -0.188000
     14 CZ          6.9630   -3.1430    0.1350 ca        1 0E4      0.116100
     15 OH          7.9460   -4.0850   -0.0780 oh        1 0E4     -0.503100
     16 N1          1.3780    0.8460   -0.9810 n         1 0E4     -0.532900
     17 CA1         0.0160    1.3070   -0.8450 c3        1 0E4      0.022700
     18 C2         -0.8140    0.3370    0.0430 c         1 0E4      0.636100
     19 O2         -0.4820   -0.8610    0.1640 o         1 0E4     -0.626100
     20 CB1        -0.7200    1.4330   -2.2010 c3        1 0E4     -0.068700
     21 CG1        -0.1550    2.5810   -3.0090 c3        1 0E4     -0.093600
     22 CG2        -0.6860    0.1460   -2.9940 c3        1 0E4     -0.093600
     23 N2         -1.8950    0.8750    0.6950 n         1 0E4     -0.538900
     24 CA2        -2.9140    0.0520    1.3120 c3        1 0E4      0.029700
     25 C3         -4.3270    0.5910    0.9560 c         1 0E4      0.636100
     26 O3         -4.4980    1.8120    0.7290 o         1 0E4     -0.660100
     27 CB2        -2.8140    0.0140    2.8370 c3        1 0E4     -0.100100
     28 N3         -5.3540   -0.3170    0.9930 n         1 0E4     -0.508900
     29 CA3        -6.6740    0.0480    0.5220 c3        1 0E4      0.004700
     30 C4         -7.5600    0.6910    1.5770 c         1 0E4      0.565900
     31 O4         -7.3330    0.7690    2.7840 o         1 0E4     -0.545100
     32 CB3        -7.4520   -1.1480   -0.0460 c3        1 0E4     -0.217400
     33 CG3        -6.6330   -1.9320   -1.0910 c         1 0E4      0.912600
     34 OD1        -5.6070   -2.5580   -0.6860 o         1 0E4     -0.834800
     35 OD2        -7.0370   -1.9220   -2.2830 o         1 0E4     -0.834800
     36 H1          6.7090    3.8250    1.5690 hc        1 0E4      0.065033
     37 H2          7.0420    3.3970   -0.1670 hc        1 0E4      0.065033
     38 H3          5.5750    4.3850    0.2640 hc        1 0E4      0.065033
     39 H           4.9470    2.3000   -1.1770 hn        1 0E4      0.294500
     40 HA          3.9060    0.2670   -1.4410 h1        1 0E4      0.070700
     41 HB2         3.8370    0.1410    1.6650 hc        1 0E4      0.084700
     42 HB3         2.8100   -0.8670    0.5640 hc        1 0E4      0.084700
     43 HD1         6.1220   -0.4170    2.0140 ha        1 0E4      0.146500
     44 HD2         3.8960   -2.3730   -1.1340 ha        1 0E4      0.146500
     45 HE1         7.9720   -2.0790    1.7400 ha        1 0E4      0.138000
     46 HE2         5.7480   -4.0310   -1.4290 ha        1 0E4      0.138000
     47 HH          8.6510   -3.9240    0.5660 ho        1 0E4      0.414000
     48 H4          1.4690   -0.1340   -1.1490 hn        1 0E4      0.322500
     49 HA1         0.0430    2.3330   -0.3640 h1        1 0E4      0.099700
     50 HB         -1.7960    1.6720   -1.9570 hc        1 0E4      0.069700
     51 HG11       -0.7530    2.7150   -3.9420 hc        1 0E4      0.040200
     52 HG12       -0.1920    3.5300   -2.4220 hc        1 0E4      0.040200
     53 HG13        0.9060    2.3840   -3.2960 hc        1 0E4      0.040200
     54 HG21       -0.9530   -0.7220   -2.3410 hc        1 0E4      0.040200
     55 HG22       -1.4210    0.1980   -3.8330 hc        1 0E4      0.040200
     56 HG23        0.3280   -0.0320   -3.4280 hc        1 0E4      0.040200
     57 H5         -2.1550    1.8210    0.5150 hn        1 0E4      0.328500
     58 HA2        -2.7950   -1.0050    0.9170 h1        1 0E4      0.105700
     59 HB1        -3.6100   -0.6610    3.2340 hc        1 0E4      0.048367
     60 HB21       -1.8170   -0.3790    3.1510 hc        1 0E4      0.048367
     61 HB31       -2.9550    1.0310    3.2730 hc        1 0E4      0.048367
     62 H6         -5.1330   -1.2960    0.8870 hn        1 0E4      0.364500
     63 HA3        -6.5610    0.8250   -0.3010 h1        1 0E4      0.078700
     64 HB22       -7.7270   -1.8510    0.7790 hc        1 0E4      0.042700
     65 HB32       -8.3870   -0.7640   -0.5220 hc        1 0E4      0.042700
     66 HXT        -8.5050    1.0990    1.1450 h4        1 0E4     -0.023800
@<TRIPOS>BOND
     1    1    2 2   
     2    1    3 1   
     3    1    4 1   
     4    3   36 1   
     5    3   37 1   
     6    3   38 1   
     7    4    5 1   
     8    4   39 1   
     9    5    6 1   
    10    5    8 1   
    11    5   40 1   
    12    6    7 2   
    13    6   16 1   
    14    8    9 1   
    15    8   41 1   
    16    8   42 1   
    17    9   10 ar  
    18    9   11 ar  
    19   10   12 ar  
    20   10   43 1   
    21   11   13 ar  
    22   11   44 1   
    23   12   14 ar  
    24   12   45 1   
    25   13   14 ar  
    26   13   46 1   
    27   14   15 1   
    28   15   47 1   
    29   16   17 1   
    30   16   48 1   
    31   17   18 1   
    32   17   20 1   
    33   17   49 1   
    34   18   19 2   
    35   18   23 1   
    36   20   21 1   
    37   20   22 1   
    38   20   50 1   
    39   21   51 1   
    40   21   52 1   
    41   21   53 1   
    42   22   54 1   
    43   22   55 1   
    44   22   56 1   
    45   23   24 1   
    46   23   57 1   
    47   24   25 1   
    48   24   27 1   
    49   24   58 1   
    50   25   26 2   
    51   25   28 1   
    52   27   59 1   
    53   27   60 1   
    54   27   61 1   
    55   28   29 1   
    56   28   62 1   
    57   29   30 1   
    58   29   32 1   
    59   29   63 1   
    60   30   31 2   
    61   30   66 1   
    62   32   33 1   
    63   32   64 1   
    64   32   65 1   
    65   33   34 1   
    66   33   35 1   
@<TRIPOS>SUBSTRUCTURE
     1 0E4         1 TEMP              0 ****  ****    0 ROOT
