@<TRIPOS>MOLECULE
0E5
   22    21     1     0     0
SMALL
bcc


@<TRIPOS>ATOM
      1 C1         -2.1130   -0.2160   -1.3030 c3        1 0E5     -0.082100
      2 C2         -0.6010   -0.2160   -1.3030 c3        1 0E5     -0.108400
      3 C3         -0.0960   -0.2160    0.1240 c3        1 0E5      0.174800
      4 C4          0.0890   -1.6420    0.5930 c3        1 0E5     -0.077100
      5 N1          1.9090    0.1480    1.3840 n3        1 0E5     -0.890800
      6 C19         1.2260    0.5120    0.1900 c3        1 0E5     -0.002500
      7 C20         0.9810    2.0040    0.1860 c         1 0E5      0.880600
      8 O6          1.4510    2.7160   -0.7400 o         1 0E5     -0.839800
      9 H1         -2.4390   -0.2840   -2.2200 hc        1 0E5      0.021033
     10 H2         -2.4390   -0.9770   -0.7850 hc        1 0E5      0.021033
     11 H3         -2.4390    0.6130   -0.9030 hc        1 0E5      0.021033
     12 H4         -0.2750   -1.0130   -1.7630 hc        1 0E5      0.057700
     13 H5         -0.2750    0.5810   -1.7630 hc        1 0E5      0.057700
     14 H6          0.3410   -1.6440    1.5360 hc        1 0E5      0.028033
     15 H7          0.7930   -2.0690    0.0680 hc        1 0E5      0.028033
     16 H8         -0.7460   -2.1340    0.4780 hc        1 0E5      0.028033
     17 H30         2.7110   -0.2310    1.1730 hn        1 0E5      0.334300
     18 H31         1.7710    0.2700   -0.5830 h1        1 0E5      0.053700
     19 OXT         0.3060    2.5340    1.1070 o         1 0E5     -0.839800
     20 H10         2.0480    0.8910    1.8940 hn        1 0E5      0.334300
     21 O3         -1.0310    0.4320    0.9510 oh        1 0E5     -0.644800
     22 H9         -1.1720   -0.0580    1.6780 ho        1 0E5      0.446000
@<TRIPOS>BOND
     1    1    2 1   
     2    1    9 1   
     3    1   10 1   
     4    1   11 1   
     5    2    3 1   
     6    2   12 1   
     7    2   13 1   
     8    3    4 1   
     9    3    6 1   
    10    3   21 1   
    11    4   14 1   
    12    4   15 1   
    13    4   16 1   
    14    5    6 1   
    15    5   17 1   
    16    5   20 1   
    17    6    7 1   
    18    6   18 1   
    19    7    8 1   
    20    7   19 1   
    21   21   22 1   
@<TRIPOS>SUBSTRUCTURE
     1 0E5         1 TEMP              0 ****  ****    0 ROOT
