@<TRIPOS>MOLECULE
0E5
   22    21     1     0     0
SMALL
bcc


@<TRIPOS>ATOM
      1 C1          2.7030   -1.3400    0.2310 c3        1 0E5     -0.082100
      2 C2          1.3640   -0.9990   -0.3690 c3        1 0E5     -0.108400
      3 C3          0.9000    0.4260   -0.0350 c3        1 0E5      0.174800
      4 C4          1.8740    1.4540   -0.5990 c3        1 0E5     -0.077100
      5 N1         -1.0550    1.9570   -0.3470 n3        1 0E5     -0.890800
      6 C19        -0.5220    0.6300   -0.6290 c3        1 0E5     -0.002500
      7 C20        -1.4620   -0.5070   -0.1130 c         1 0E5      0.880600
      8 O6         -1.7230   -0.5230    1.1280 o         1 0E5     -0.839800
      9 H1          3.5320   -0.8210   -0.3090 hc        1 0E5      0.021033
     10 H2          2.7320   -1.0270    1.3030 hc        1 0E5      0.021033
     11 H3          2.8850   -2.4400    0.1720 hc        1 0E5      0.021033
     12 H4          1.4000   -1.1090   -1.4830 hc        1 0E5      0.057700
     13 H5          0.5900   -1.7180    0.0150 hc        1 0E5      0.057700
     14 H6          1.8980    1.3720   -1.7100 hc        1 0E5      0.028033
     15 H7          1.5590    2.4850   -0.3130 hc        1 0E5      0.028033
     16 H8          2.8980    1.2770   -0.1920 hc        1 0E5      0.028033
     17 H30        -2.0530    1.9210   -0.4620 hn        1 0E5      0.334300
     18 H31        -0.4410    0.5370   -1.7490 h1        1 0E5      0.053700
     19 OXT        -1.9170   -1.3300   -0.9500 o         1 0E5     -0.839800
     20 H10        -0.8780    2.1700    0.6200 hn        1 0E5      0.334300
     21 O3          0.8930    0.6200    1.3770 oh        1 0E5     -0.644800
     22 H9          0.1190    0.1420    1.7220 ho        1 0E5      0.446000
@<TRIPOS>BOND
     1    1    2 1   
     2    1    9 1   
     3    1   10 1   
     4    1   11 1   
     5    2    3 1   
     6    2   12 1   
     7    2   13 1   
     8    3    4 1   
     9    3    6 1   
    10    3   21 1   
    11    4   14 1   
    12    4   15 1   
    13    4   16 1   
    14    5    6 1   
    15    5   17 1   
    16    5   20 1   
    17    6    7 1   
    18    6   18 1   
    19    7    8 1   
    20    7   19 1   
    21   21   22 1   
@<TRIPOS>SUBSTRUCTURE
     1 0E5         1 TEMP              0 ****  ****    0 ROOT
