@<TRIPOS>MOLECULE
0E6
   69    70     1     0     0
SMALL
bcc


@<TRIPOS>ATOM
      1 C1          3.2150    0.0650   -0.6460 c         1 0E6      0.744100
      2 O1          3.0720   -1.0810   -1.1140 o         1 0E6     -0.621000
      3 O2          4.4060    0.7280   -0.8070 os        1 0E6     -0.423900
      4 C2          5.4120    0.0000   -1.5520 c3        1 0E6      0.201700
      5 C3          6.6570    0.8190   -1.5180 ca        1 0E6     -0.110300
      6 C4          7.8910    0.1780   -1.3600 ca        1 0E6     -0.109000
      7 C5          9.0690    0.9230   -1.3730 ca        1 0E6     -0.128000
      8 C6          9.0200    2.3080   -1.5340 ca        1 0E6     -0.114000
      9 C7          7.7900    2.9490   -1.6830 ca        1 0E6     -0.128000
     10 C8          6.6100    2.2070   -1.6790 ca        1 0E6     -0.109000
     11 N           2.3000    0.7730    0.1050 n         1 0E6     -0.543900
     12 CA          0.9160    0.3690    0.1160 c3        1 0E6      0.053700
     13 C          -0.0250    1.5910    0.2670 c         1 0E6      0.640100
     14 O           0.3400    2.6300    0.8470 o         1 0E6     -0.584100
     15 CB          0.5610   -0.5810    1.2800 c3        1 0E6     -0.099400
     16 CG          1.1660   -1.9480    1.0460 c3        1 0E6     -0.097400
     17 CD          0.6560   -2.9160    2.1130 c3        1 0E6      0.017300
     18 NE          1.2190   -4.2430    1.9500 nh        1 0E6     -0.395100
     19 CZ          0.9060   -5.3020    2.7700 cz        1 0E6      0.521300
     20 NH1         0.0210   -5.1490    3.8140 nh        1 0E6     -0.508700
     21 NH2         1.4860   -6.5340    2.5450 nh        1 0E6     -0.508700
     22 C21        -2.9940    1.7880    1.4880 c         1 0E6      0.557100
     23 O21        -2.7140    0.6930    1.9820 o         1 0E6     -0.526100
     24 C31        -2.3810    2.2790    0.1700 c3        1 0E6     -0.000300
     25 N3         -1.2840    1.4610   -0.2920 n         1 0E6     -0.525900
     26 C41        -3.4920    2.3940   -0.8980 c3        1 0E6      0.127400
     27 O'         -3.9430    1.0770   -1.1920 os        1 0E6     -0.433600
     28 C'         -4.8970    1.0630   -2.2620 c3        1 0E6      0.178700
     29 C1'        -5.3620   -0.3430   -2.4460 ca        1 0E6     -0.098300
     30 C2'        -5.6700   -1.1430   -1.3410 ca        1 0E6     -0.112000
     31 C3'        -6.1460   -2.4390   -1.5290 ca        1 0E6     -0.132500
     32 C4'        -6.3200   -2.9410   -2.8190 ca        1 0E6     -0.122000
     33 C5'        -6.0100   -2.1460   -3.9230 ca        1 0E6     -0.132500
     34 C6'        -5.5280   -0.8510   -3.7390 ca        1 0E6     -0.112000
     35 CL         -5.5800    2.2710    2.0280 cl        1 0E6     -0.132400
     36 H21         5.5540   -1.0060   -1.0770 h1        1 0E6      0.062200
     37 H22         5.0360   -0.1310   -2.6020 h1        1 0E6      0.062200
     38 H41         7.9330   -0.9140   -1.2290 ha        1 0E6      0.135500
     39 H51        10.0390    0.4160   -1.2560 ha        1 0E6      0.139000
     40 H61         9.9520    2.8940   -1.5420 ha        1 0E6      0.140000
     41 H71         7.7500    4.0410   -1.8080 ha        1 0E6      0.139000
     42 H81         5.6370    2.7080   -1.7930 ha        1 0E6      0.135500
     43 H           2.5230    1.6990    0.4040 hn        1 0E6      0.358500
     44 HA          0.6970   -0.1710   -0.8570 h1        1 0E6      0.088700
     45 HB2         0.9280   -0.1530    2.2490 hc        1 0E6      0.073200
     46 HB3        -0.5580   -0.6590    1.3460 hc        1 0E6      0.073200
     47 HG2         0.8940   -2.3150    0.0200 hc        1 0E6      0.080200
     48 HG3         2.2870   -1.8770    1.0790 hc        1 0E6      0.080200
     49 HD2         0.9330   -2.5200    3.1330 h1        1 0E6      0.068200
     50 HD3        -0.4700   -2.9810    2.0430 h1        1 0E6      0.068200
     51 HE          1.8660   -4.3740    1.1980 hn        1 0E6      0.329700
     52 HH11       -0.4140   -4.2710    3.9880 hn        1 0E6      0.326450
     53 HH12       -0.2090   -5.9160    4.4040 hn        1 0E6      0.326450
     54 HH21        1.2750   -7.3120    3.1270 hn        1 0E6      0.326450
     55 HH22        2.1300   -6.6660    1.7990 hn        1 0E6      0.326450
     56 H3         -1.9790    3.3240    0.3570 h1        1 0E6      0.113700
     57 HN32       -1.5550    0.5710   -0.6510 hn        1 0E6      0.324500
     58 H411       -4.3390    3.0060   -0.4880 h1        1 0E6      0.055200
     59 H42        -3.0860    2.8810   -1.8240 h1        1 0E6      0.055200
     60 H'1        -5.7650    1.7250   -1.9900 h1        1 0E6      0.045200
     61 H'2        -4.4080    1.4580   -3.1930 h1        1 0E6      0.045200
     62 H2'        -5.5310   -0.7390   -0.3270 ha        1 0E6      0.139000
     63 H3'        -6.3960   -3.0620   -0.6580 ha        1 0E6      0.134500
     64 H4'        -6.7050   -3.9610   -2.9670 ha        1 0E6      0.135000
     65 H5'        -6.1480   -2.5390   -4.9410 ha        1 0E6      0.134500
     66 H6'        -5.2850   -0.2270   -4.6130 ha        1 0E6      0.139000
     67 H11        -3.6720    2.8020    3.2670 h1        1 0E6      0.093700
     68 H12        -3.8270    3.7860    1.7340 h1        1 0E6      0.093700
     69 C11        -3.9110    2.7630    2.1750 c3        1 0E6     -0.081000
@<TRIPOS>BOND
     1    1    2 2   
     2    1    3 1   
     3    1   11 1   
     4    3    4 1   
     5    4    5 1   
     6    4   36 1   
     7    4   37 1   
     8    5    6 ar  
     9    5   10 ar  
    10    6    7 ar  
    11    6   38 1   
    12    7    8 ar  
    13    7   39 1   
    14    8    9 ar  
    15    8   40 1   
    16    9   10 ar  
    17    9   41 1   
    18   10   42 1   
    19   11   12 1   
    20   11   43 1   
    21   12   13 1   
    22   12   15 1   
    23   12   44 1   
    24   13   14 2   
    25   13   25 1   
    26   15   16 1   
    27   15   45 1   
    28   15   46 1   
    29   16   17 1   
    30   16   47 1   
    31   16   48 1   
    32   17   18 1   
    33   17   49 1   
    34   17   50 1   
    35   18   19 2   
    36   18   51 1   
    37   19   20 1   
    38   19   21 1   
    39   20   52 1   
    40   20   53 1   
    41   21   54 1   
    42   21   55 1   
    43   22   23 2   
    44   22   24 1   
    45   22   69 1   
    46   24   25 1   
    47   24   26 1   
    48   24   56 1   
    49   25   57 1   
    50   26   27 1   
    51   26   58 1   
    52   26   59 1   
    53   27   28 1   
    54   28   29 1   
    55   28   60 1   
    56   28   61 1   
    57   29   30 ar  
    58   29   34 ar  
    59   30   31 ar  
    60   30   62 1   
    61   31   32 ar  
    62   31   63 1   
    63   32   33 ar  
    64   32   64 1   
    65   33   34 ar  
    66   33   65 1   
    67   34   66 1   
    68   35   69 1   
    69   67   69 1   
    70   68   69 1   
@<TRIPOS>SUBSTRUCTURE
     1 0E6         1 TEMP              0 ****  ****    0 ROOT
