@<TRIPOS>MOLECULE
0E6
   69    63     1     0     0
SMALL
bcc


@<TRIPOS>ATOM
      1 C1         -0.6250    1.5710    0.9730 c1        1 0E6      0.405000
      2 O1         -1.4480    1.0400    0.2540 o         1 0E6     -0.474000
      3 O2         -1.0400    2.4770    1.9670 o         1 0E6     -0.252000
      4 C2         -2.3540    2.2580    2.4280 c3        1 0E6      0.035000
      5 C3         -2.7380    3.3540    3.4010 c2        1 0E6     -0.127000
      6 C4         -2.1630    3.3950    4.6610 c1        1 0E6     -0.110000
      7 C5         -2.5550    4.3650    5.5710 c1        1 0E6     -0.124250
      8 C6         -3.5230    5.2930    5.2210 c1        1 0E6     -0.124250
      9 C7         -4.0990    5.2520    3.9600 c1        1 0E6     -0.136000
     10 C8         -3.7060    4.2830    3.0500 c2        1 0E6     -0.120000
     11 N           0.7570    1.2910    0.7980 n3        1 0E6     -0.330000
     12 CA          1.2050    0.6290   -0.3750 c3        1 0E6      0.005000
     13 C           1.6300   -0.7810   -0.0280 c2        1 0E6      0.279000
     14 O           2.0650   -1.0290    1.0790 o         1 0E6     -0.362000
     15 CB          2.3800    1.3810   -0.9610 c3        1 0E6     -0.167000
     16 CG          1.8760    2.5820   -1.7350 c3        1 0E6     -0.186000
     17 CD          3.0410    3.4890   -2.0730 c3        1 0E6     -0.050000
     18 NE          2.5550    4.6740   -2.6970 n3        1 0E6     -0.309000
     19 CZ          3.3150    5.8710   -2.6350 c2        1 0E6      0.378000
     20 NH1         3.4390    6.5710   -1.4060 n3        1 0E6     -0.343000
     21 NH2         3.9020    6.3300   -3.7120 n2        1 0E6     -0.379000
     22 C21         2.7960   -3.7100   -0.2600 c1        1 0E6      0.215000
     23 O21         3.7130   -3.5740   -1.0460 o         1 0E6     -0.254000
     24 C31         1.4260   -3.1670   -0.5960 c3        1 0E6     -0.020000
     25 N3          1.5410   -1.8110   -1.0030 n         1 0E6     -0.343000
     26 C41         0.8220   -3.9810   -1.7190 c3        1 0E6     -0.033000
     27 O'         -0.0830   -4.9200   -1.1840 os        1 0E6     -0.292000
     28 C'         -0.9410   -5.4970   -2.1420 c3        1 0E6      0.021000
     29 C1'        -2.2320   -5.9200   -1.4740 c2        1 0E6     -0.092000
     30 C2'        -2.9930   -4.9890   -0.7830 c2        1 0E6     -0.106000
     31 C3'        -4.1700   -5.3790   -0.1630 c1        1 0E6     -0.134000
     32 C4'        -4.5860   -6.7000   -0.2340 c1        1 0E6     -0.124250
     33 C5'        -3.8250   -7.6300   -0.9240 c1        1 0E6     -0.124250
     34 C6'        -2.6480   -7.2400   -1.5440 c1        1 0E6     -0.121000
     35 C11         3.0160   -4.4610    1.0350 c2        1 0E6     -0.185000
     36 CL          4.6050   -5.1810    1.0280 cl        1 0E6     -0.072000
     37 H21        -2.9720    2.2640    1.6680 h1        1 0E6      0.126500
     38 H22        -2.4010    1.3890    2.8800 h1        1 0E6      0.126500
     39 H41        -1.4810    2.7410    4.9080 ha        1 0E6      0.146000
     40 H51        -2.1500    4.3930    6.4580 ha        1 0E6      0.139750
     41 H61        -3.7990    5.9750    5.8610 ha        1 0E6      0.139750
     42 H71        -4.7800    5.9060    3.7140 ha        1 0E6      0.138000
     43 H81        -4.1120    4.2540    2.1630 ha        1 0E6      0.133000
     44 H           1.3540    1.5210    1.4480 hn        1 0E6      0.268000
     45 HA          0.4780    0.5990   -1.0290 h1        1 0E6      0.124000
     46 HB2         2.8770    0.7910   -1.5620 hc        1 0E6      0.121000
     47 HB3         2.9670    1.6810   -0.2390 hc        1 0E6      0.121000
     48 HG2         1.4460    2.2810   -2.5610 hc        1 0E6      0.097500
     49 HG3         1.2290    3.0730   -1.1900 hc        1 0E6      0.097500
     50 HD2         3.6490    3.0250   -2.6840 h1        1 0E6      0.133500
     51 HD3         3.5200    3.7260   -1.2520 h1        1 0E6      0.133500
     52 HE          1.7850    4.6470   -3.1860 hn        1 0E6      0.263000
     53 HH11        2.9700    6.2920   -0.6730 hn        1 0E6      0.287500
     54 HH12        3.9480    7.3290   -1.3610 hn        1 0E6      0.287500
     55 HH21        3.8230    5.8790   -4.5050 DU        1 0E6      0.272000
     56 HH22        4.3930    7.1020   -3.6720 hn        1 0E6      0.273000
     57 H3          0.8510   -3.2230    0.1930 h1        1 0E6      0.139000
     58 HN32        1.5850   -1.6030   -1.8900 hn        1 0E6      0.245000
     59 H411        0.3480   -3.3860   -2.3360 h1        1 0E6      0.098500
     60 H42         1.5340   -4.4520   -2.2010 h1        1 0E6      0.098500
     61 H'1        -0.5070   -6.2800   -2.5400 h1        1 0E6      0.084500
     62 H'2        -1.1360   -4.8400   -2.8430 h1        1 0E6      0.084500
     63 H2'        -2.7000   -4.0600   -0.7340 ha        1 0E6      0.142000
     64 H3'        -4.7060   -4.7230    0.3230 ha        1 0E6      0.134000
     65 H4'        -5.4150   -6.9740    0.2030 ha        1 0E6      0.139750
     66 H5'        -4.1180   -8.5600   -0.9740 ha        1 0E6      0.139750
     67 H6'        -2.1120   -7.8950   -2.0300 ha        1 0E6      0.134000
     68 H11         2.3400   -5.1640    1.1240 h4        1 0E6      0.146500
     69 H12         2.9430   -3.8410    1.7880 h4        1 0E6      0.146500
@<TRIPOS>BOND
     1    1    2 1   
     2    1   11 1   
     3    3    4 1   
     4    4    5 1   
     5    4   37 1   
     6    4   38 1   
     7    5    6 1   
     8    5   10 1   
     9    6   39 1   
    10    7    8 1   
    11    7   40 1   
    12    8   41 1   
    13    9   10 1   
    14    9   42 1   
    15   10   43 1   
    16   11   12 1   
    17   11   44 1   
    18   12   13 1   
    19   12   15 1   
    20   12   45 1   
    21   13   14 1   
    22   13   25 1   
    23   15   16 1   
    24   15   46 1   
    25   15   47 1   
    26   16   17 1   
    27   16   48 1   
    28   16   49 1   
    29   17   18 1   
    30   17   50 1   
    31   17   51 1   
    32   18   19 1   
    33   18   52 1   
    34   19   20 1   
    35   19   21 1   
    36   20   53 1   
    37   20   54 1   
    38   21   56 1   
    39   22   23 1   
    40   22   24 1   
    41   24   25 1   
    42   24   26 1   
    43   24   57 1   
    44   25   58 1   
    45   26   27 1   
    46   26   59 1   
    47   26   60 1   
    48   27   28 1   
    49   28   29 1   
    50   28   61 1   
    51   28   62 1   
    52   29   30 1   
    53   29   34 1   
    54   30   31 1   
    55   30   63 1   
    56   31   64 1   
    57   32   33 1   
    58   32   65 1   
    59   33   66 1   
    60   34   67 1   
    61   35   36 1   
    62   35   68 1   
    63   35   69 1   
@<TRIPOS>SUBSTRUCTURE
     1 0E6         1 TEMP              0 ****  ****    0 ROOT
