@<TRIPOS>MOLECULE
0E7
   78    79     1     0     0
SMALL
bcc


@<TRIPOS>ATOM
      1 C           2.5980   -0.7580    0.0980 c         1 0E7      0.667100
      2 O           1.7030   -1.1210    0.8900 o         1 0E7     -0.621100
      3 CA          3.7750   -1.6550   -0.2300 c3        1 0E7     -0.150400
      4 CB          5.0820   -1.0580    0.2440 c3        1 0E7     -0.088400
      5 CD          6.2130   -2.0610   -0.0030 c3        1 0E7      0.182800
      6 NE          7.5060   -1.5260    0.3790 nh        1 0E7     -0.795200
      7 CZ          8.6390   -2.4070    0.2540 c2        1 0E7      0.744100
      8 NH1         8.5130   -3.5850   -0.3070 n2        1 0E7     -0.871100
      9 NH2         9.8630   -1.8850    0.7970 nh        1 0E7     -0.933800
     10 N           2.5360    0.4740   -0.5200 n         1 0E7     -0.565900
     11 CA1         1.4750    1.4110   -0.2640 c3        1 0E7      0.055700
     12 C1          0.2020    1.0260   -1.0650 c         1 0E7      0.643100
     13 O1         -0.0550    1.5470   -2.1710 o         1 0E7     -0.633100
     14 CB1         1.8360    2.8580   -0.6400 c3        1 0E7     -0.045100
     15 CG          3.0280    3.3510    0.0990 ca        1 0E7     -0.086300
     16 CD1         4.2350    3.5740   -0.5730 ca        1 0E7     -0.126000
     17 CD2         2.9480    3.6170    1.4720 ca        1 0E7     -0.126000
     18 CE1         5.3460    4.0550    0.1180 ca        1 0E7     -0.127000
     19 CE2         4.0600    4.0960    2.1610 ca        1 0E7     -0.127000
     20 CZ1         5.2610    4.3160    1.4860 ca        1 0E7     -0.129000
     21 N1         -0.6320    0.0990   -0.4850 n         1 0E7     -0.538900
     22 CA2        -1.7690   -0.4170   -1.2020 c3        1 0E7     -0.002300
     23 CB2        -1.4520   -1.6530   -2.0920 c3        1 0E7      0.130100
     24 CG2        -0.9500   -2.8390   -1.2920 c3        1 0E7     -0.103100
     25 OG1        -0.4470   -1.3470   -3.0470 oh        1 0E7     -0.599800
     26 C2         -2.9090   -0.8060   -0.2340 c         1 0E7      0.664100
     27 O2         -2.6980   -1.1880    0.9310 o         1 0E7     -0.587100
     28 N2         -4.1920   -0.6940   -0.7400 n         1 0E7     -0.559900
     29 CA3        -5.3500   -1.0940    0.0100 c3        1 0E7      0.068700
     30 C3         -5.9460   -2.3930   -0.5350 c         1 0E7      0.601100
     31 CB3        -6.4880   -0.0510   -0.0050 c3        1 0E7     -0.043100
     32 CG1        -6.1040    1.2120    0.6760 ca        1 0E7     -0.084300
     33 CD11       -5.9840    2.4020   -0.0520 ca        1 0E7     -0.120000
     34 CD21       -5.8820    1.2290    2.0590 ca        1 0E7     -0.120000
     35 CE11       -5.6460    3.5900    0.5940 ca        1 0E7     -0.127000
     36 CE21       -5.5430    2.4180    2.7010 ca        1 0E7     -0.127000
     37 CZ2        -5.4250    3.6000    1.9700 ca        1 0E7     -0.126000
     38 O3         -5.9030   -2.8390   -1.6830 o         1 0E7     -0.541000
     39 CM         -7.2100   -4.3320    0.0130 c3        1 0E7      0.124700
     40 OXT        -6.6160   -3.0980    0.4220 os        1 0E7     -0.432900
     41 HA1         3.5950   -2.6410    0.2770 hc        1 0E7      0.080200
     42 HA2         3.8080   -1.8410   -1.3360 hc        1 0E7      0.080200
     43 HB1         5.2940   -0.1020   -0.3010 hc        1 0E7      0.053700
     44 HB2         5.0110   -0.8160    1.3370 hc        1 0E7      0.053700
     45 HD1         5.9710   -3.0170    0.5460 h1        1 0E7      0.057700
     46 HD2         6.2550   -2.3050   -1.1030 h1        1 0E7      0.057700
     47 HNE         7.4720   -1.0950    1.2850 hn        1 0E7      0.388800
     48 HH1         9.3600   -4.0930   -0.4360 hn        1 0E7      0.391400
     49 HH21        9.8820   -0.8980    0.9320 hn        1 0E7      0.390300
     50 HH22       10.6750   -2.2090    0.3180 hn        1 0E7      0.390300
     51 H           3.2320    0.7360   -1.1770 hn        1 0E7      0.324500
     52 HA          1.2340    1.3760    0.8440 h1        1 0E7      0.088700
     53 HB21        1.9960    2.9280   -1.7500 hc        1 0E7      0.076200
     54 HB3         0.9440    3.4960   -0.3970 hc        1 0E7      0.076200
     55 HD11        4.3050    3.3760   -1.6530 ha        1 0E7      0.132500
     56 HD21        2.0000    3.4470    2.0060 ha        1 0E7      0.132500
     57 HE1         6.2900    4.2300   -0.4180 ha        1 0E7      0.133500
     58 HE2         3.9890    4.3030    3.2390 ha        1 0E7      0.133500
     59 HZ          6.1370    4.6960    2.0300 ha        1 0E7      0.132000
     60 H1         -0.3250   -0.4200    0.3140 hn        1 0E7      0.359500
     61 HA3        -2.1280    0.4100   -1.8920 h1        1 0E7      0.091700
     62 HB         -2.4000   -1.9230   -2.6410 h1        1 0E7      0.041700
     63 HG21       -1.6850   -3.0930   -0.4920 hc        1 0E7      0.055367
     64 HG22       -0.8170   -3.7170   -1.9680 hc        1 0E7      0.055367
     65 HG23        0.0350   -2.6070   -0.8190 hc        1 0E7      0.055367
     66 HG1        -0.5960   -0.4430   -3.3580 ho        1 0E7      0.419000
     67 HN2        -4.3250   -0.4990   -1.7040 hn        1 0E7      0.322500
     68 HA4        -5.0390   -1.2770    1.0860 h1        1 0E7      0.125700
     69 HBC1       -6.8010    0.1530   -1.0630 hc        1 0E7      0.066200
     70 HBC2       -7.3640   -0.5130    0.5280 hc        1 0E7      0.066200
     71 HD12       -6.1590    2.4010   -1.1380 ha        1 0E7      0.133000
     72 HD22       -5.9730    0.2970    2.6380 ha        1 0E7      0.133000
     73 HE11       -5.5540    4.5200    0.0150 ha        1 0E7      0.133000
     74 HE21       -5.3670    2.4220    3.7870 ha        1 0E7      0.133000
     75 HZ1        -5.1570    4.5380    2.4790 ha        1 0E7      0.132000
     76 HMC1       -7.9730   -4.1430   -0.7790 h1        1 0E7      0.053367
     77 HMC2       -6.4220   -5.0240   -0.3700 h1        1 0E7      0.053367
     78 HMC3       -7.6780   -4.7210    0.9510 h1        1 0E7      0.053367
@<TRIPOS>BOND
     1    1    2 2   
     2    1    3 1   
     3    1   10 1   
     4    3    4 1   
     5    3   41 1   
     6    3   42 1   
     7    4    5 1   
     8    4   43 1   
     9    4   44 1   
    10    5    6 1   
    11    5   45 1   
    12    5   46 1   
    13    6    7 1   
    14    6   47 1   
    15    7    8 2   
    16    7    9 1   
    17    8   48 1   
    18    9   49 1   
    19    9   50 1   
    20   10   11 1   
    21   10   51 1   
    22   11   12 1   
    23   11   14 1   
    24   11   52 1   
    25   12   13 2   
    26   12   21 1   
    27   14   15 1   
    28   14   53 1   
    29   14   54 1   
    30   15   16 ar  
    31   15   17 ar  
    32   16   18 ar  
    33   16   55 1   
    34   17   19 ar  
    35   17   56 1   
    36   18   20 ar  
    37   18   57 1   
    38   19   20 ar  
    39   19   58 1   
    40   20   59 1   
    41   21   22 1   
    42   21   60 1   
    43   22   23 1   
    44   22   26 1   
    45   22   61 1   
    46   23   24 1   
    47   23   25 1   
    48   23   62 1   
    49   24   63 1   
    50   24   64 1   
    51   24   65 1   
    52   25   66 1   
    53   26   27 2   
    54   26   28 1   
    55   28   29 1   
    56   28   67 1   
    57   29   30 1   
    58   29   31 1   
    59   29   68 1   
    60   30   38 2   
    61   30   40 1   
    62   31   32 1   
    63   31   69 1   
    64   31   70 1   
    65   32   33 ar  
    66   32   34 ar  
    67   33   35 ar  
    68   33   71 1   
    69   34   36 ar  
    70   34   72 1   
    71   35   37 ar  
    72   35   73 1   
    73   36   37 ar  
    74   36   74 1   
    75   37   75 1   
    76   39   40 1   
    77   39   76 1   
    78   39   77 1   
    79   39   78 1   
@<TRIPOS>SUBSTRUCTURE
     1 0E7         1 TEMP              0 ****  ****    0 ROOT
