@<TRIPOS>MOLECULE
0E7
   78    73     1     0     0
SMALL
bcc


@<TRIPOS>ATOM
      1 C           0.1180   -1.3990    4.3350 c1        1 0E7      0.303000
      2 O           1.2790   -1.6140    4.1360 o         1 0E7     -0.369000
      3 CA         -0.3000   -0.5500    5.5210 c2        1 0E7     -0.174000
      4 CB          0.8110    0.4590    5.8360 c3        1 0E7     -0.166000
      5 CD          0.1950    1.7340    6.4960 c3        1 0E7     -0.054000
      6 NE          0.9290    2.9270    6.0350 n3        1 0E7     -0.327000
      7 CZ          0.5860    4.2420    6.5570 c2        1 0E7      0.158000
      8 NH1         0.6560    4.4700    7.8210 n1        1 0E7     -0.352000
      9 NH2         0.1680    5.2890    5.6560 n3        1 0E7     -0.318000
     10 N          -0.8950   -2.0230    3.4830 n3        1 0E7     -0.359000
     11 CA1        -0.5690   -2.3840    2.1540 c3        1 0E7      0.018000
     12 C1         -1.0480   -1.2920    1.2000 c2        1 0E7      0.277000
     13 O1         -2.1580   -0.8390    1.3140 o         1 0E7     -0.379000
     14 CB1        -1.2430   -3.7020    1.7960 c3        1 0E7     -0.133000
     15 CG         -0.2530   -4.8480    1.9790 c2        1 0E7     -0.072000
     16 CD1        -0.4750   -5.8030    2.9580 c2        1 0E7     -0.122000
     17 CD2         0.8170   -5.0100    1.0620 c1        1 0E7     -0.120000
     18 CE1         0.3640   -6.9360    3.0410 c1        1 0E7     -0.131000
     19 CE2         1.6450   -6.1290    1.1450 c1        1 0E7     -0.126500
     20 CZ1         1.4200   -7.0940    2.1340 c1        1 0E7     -0.126500
     21 N1         -0.1830   -0.8210    0.1400 n         1 0E7     -0.351000
     22 CA2        -0.5010    0.3960   -0.5470 c3        1 0E7      0.007000
     23 CB2         0.2890    1.5260    0.0380 c3        1 0E7      0.018000
     24 CG2        -0.6290    2.6710    0.3250 c3        1 0E7     -0.255000
     25 OG1         1.3040    1.9430   -0.9020 oh        1 0E7     -0.337000
     26 C2         -0.1650    0.2560   -2.0350 c2        1 0E7      0.309000
     27 O2          0.4360   -0.7280   -2.4360 o         1 0E7     -0.364000
     28 N2         -0.5950    1.2660   -2.9630 n         1 0E7     -0.339000
     29 CA3        -0.1560    1.2200   -4.3250 c3        1 0E7      0.032000
     30 C3          1.3450    1.2900   -4.3700 c2        1 0E7      0.275000
     31 CB3        -0.7410    2.4000   -5.0910 c3        1 0E7     -0.123000
     32 CG1        -1.2890    1.9160   -6.4470 c2        1 0E7     -0.073000
     33 CD11       -2.6440    1.9890   -6.7080 c2        1 0E7     -0.118000
     34 CD21       -0.4180    1.5170   -7.4390 c1        1 0E7     -0.120000
     35 CE11       -3.1280    1.6620   -7.9670 c1        1 0E7     -0.129000
     36 CE21       -0.9000    1.1920   -8.6920 c1        1 0E7     -0.126500
     37 CZ2        -2.2610    1.2660   -8.9530 c1        1 0E7     -0.126500
     38 O3          1.9330    1.9780   -3.5910 o         1 0E7     -0.355000
     39 CM          3.5180    0.7350   -5.3380 c3        1 0E7     -0.065000
     40 OXT         2.0830    0.4950   -5.3410 os        1 0E7     -0.269000
     41 HA1        -1.1030   -0.0850    5.3130 ha        1 0E7      0.108500
     42 HA2        -0.4500   -1.1310    6.3060 ha        1 0E7      0.108500
     43 HB1         1.4660    0.0470    6.4610 hc        1 0E7      0.105000
     44 HB2         1.2750    0.7160    4.9910 hc        1 0E7      0.105000
     45 HD1        -0.7590    1.8120    6.2380 h1        1 0E7      0.083000
     46 HD2         0.2670    1.6630    7.4880 h1        1 0E7      0.083000
     47 HNE         1.5910    2.8420    5.3990 hn        1 0E7      0.191000
     48 HH1         0.9270    3.7890    8.4060 DU        1 0E7      0.147000
     49 HH21        0.4260    6.1550    5.8090 hn        1 0E7      0.188500
     50 HH22       -0.3720    5.0890    4.9350 hn        1 0E7      0.188500
     51 H          -1.7140   -2.2290    3.8240 hn        1 0E7      0.234000
     52 HA          0.3890   -2.4830    2.0760 h1        1 0E7      0.146000
     53 HB21       -1.5290   -3.6740    0.8830 hc        1 0E7      0.107000
     54 HB3        -2.0500   -3.8490    2.3990 hc        1 0E7      0.107000
     55 HD11       -1.1900   -5.6960    3.5720 ha        1 0E7      0.129000
     56 HD21        0.9730   -4.3380    0.3720 ha        1 0E7      0.133000
     57 HE1         0.2100   -7.6030    3.7240 ha        1 0E7      0.131000
     58 HE2         2.3870   -6.2400    0.5080 ha        1 0E7      0.132500
     59 HZ          1.9990   -7.8760    2.1920 ha        1 0E7      0.132500
     60 H1          0.5000   -1.3160   -0.1280 hn        1 0E7      0.246000
     61 HA3        -1.4660    0.5850   -0.4460 h1        1 0E7      0.152000
     62 HB          0.7150    1.2310    0.8710 h1        1 0E7      0.103000
     63 HG21       -1.4230    2.3430    0.7980 hc        1 0E7      0.090000
     64 HG22       -0.9030    3.0920   -0.5240 hc        1 0E7      0.090000
     65 HG23       -0.1750    3.3170    0.8720 hc        1 0E7      0.090000
     66 HG1         2.0210    2.2380   -0.4570 ho        1 0E7      0.216000
     67 HN2        -1.1970    1.9050   -2.6960 hn        1 0E7      0.232000
     68 HA4        -0.4470    0.4100   -4.7210 h1        1 0E7      0.164000
     69 HBC1       -1.4650    2.7980   -4.5730 hc        1 0E7      0.103000
     70 HBC2       -0.0510    3.0600   -5.2400 hc        1 0E7      0.103000
     71 HD12       -3.2530    2.2670   -6.0160 ha        1 0E7      0.130000
     72 HD22        0.5250    1.4660   -7.2590 ha        1 0E7      0.135000
     73 HE11       -4.1060    1.7160   -8.1550 ha        1 0E7      0.131000
     74 HE21       -0.3000    0.9170   -9.3760 ha        1 0E7      0.132500
     75 HZ1        -2.6020    1.0360   -9.8390 ha        1 0E7      0.132500
     76 HMC1        3.9100    0.4000   -4.4900 h1        1 0E7      0.092000
     77 HMC2        3.9380    0.2580   -6.1130 h1        1 0E7      0.092000
     78 HMC3        3.6880    1.6990   -5.4190 h1        1 0E7      0.092000
@<TRIPOS>BOND
     1    1    2 1   
     2    1   10 1   
     3    3    4 1   
     4    3   41 1   
     5    3   42 1   
     6    4    5 1   
     7    4   43 1   
     8    4   44 1   
     9    5    6 1   
    10    5   45 1   
    11    5   46 1   
    12    6    7 1   
    13    6   47 1   
    14    7    8 1   
    15    7    9 1   
    16    9   49 1   
    17    9   50 1   
    18   10   11 1   
    19   10   51 1   
    20   11   12 1   
    21   11   14 1   
    22   11   52 1   
    23   12   13 1   
    24   12   21 1   
    25   14   15 1   
    26   14   53 1   
    27   14   54 1   
    28   15   16 1   
    29   15   17 1   
    30   16   18 1   
    31   16   55 1   
    32   17   56 1   
    33   18   57 1   
    34   19   20 1   
    35   19   58 1   
    36   20   59 1   
    37   21   22 1   
    38   21   60 1   
    39   22   23 1   
    40   22   26 1   
    41   22   61 1   
    42   23   24 1   
    43   23   25 1   
    44   23   62 1   
    45   24   63 1   
    46   24   64 1   
    47   24   65 1   
    48   25   66 1   
    49   26   27 1   
    50   26   28 1   
    51   28   29 1   
    52   28   67 1   
    53   29   30 1   
    54   29   31 1   
    55   29   68 1   
    56   30   38 1   
    57   30   40 1   
    58   31   32 1   
    59   31   69 1   
    60   31   70 1   
    61   32   33 1   
    62   32   34 1   
    63   33   35 1   
    64   33   71 1   
    65   34   72 1   
    66   35   73 1   
    67   36   37 1   
    68   36   74 1   
    69   37   75 1   
    70   39   40 1   
    71   39   76 1   
    72   39   77 1   
    73   39   78 1   
@<TRIPOS>SUBSTRUCTURE
     1 0E7         1 TEMP              0 ****  ****    0 ROOT
