@<TRIPOS>MOLECULE
0E8
   84    79     1     0     0
SMALL
bcc


@<TRIPOS>ATOM
      1 O1         -1.3770   -0.7140    4.7100 o         1 0E8     -0.410500
      2 C          -0.2350   -0.5930    5.0230 c1        1 0E8      0.392500
      3 O2          0.3460   -1.4960    5.9540 o         1 0E8     -0.286500
      4 CT         -0.0160   -2.8970    5.7300 c3        1 0E8      0.114500
      5 C1          0.1370   -3.2360    4.2250 c3        1 0E8     -0.231667
      6 C2          0.9160   -3.8110    6.5620 c3        1 0E8     -0.231667
      7 C3         -1.4930   -3.1270    6.1680 c3        1 0E8     -0.231667
      8 C4          0.8230    0.5460    2.1540 c3        1 0E8     -0.004000
      9 O           1.9000    1.3300    1.7390 oh        1 0E8     -0.334000
     10 CA          0.1420    1.2040    3.3330 c3        1 0E8      0.036500
     11 N           0.5340    0.5440    4.5380 n3        1 0E8     -0.323500
     12 CB          0.5450    2.6810    3.4010 c3        1 0E8     -0.125000
     13 CG         -0.6380    3.5150    3.9640 c2        1 0E8     -0.067000
     14 CD1        -0.5070    4.1710    5.1880 c2        1 0E8     -0.122000
     15 CD2        -1.7910    3.6770    3.2110 c1        1 0E8     -0.124000
     16 CE1        -1.5300    4.9850    5.6500 c1        1 0E8     -0.128000
     17 CE2        -2.8130    4.4910    3.6730 c1        1 0E8     -0.128250
     18 CZ         -2.6840    5.1460    4.8940 c1        1 0E8     -0.128250
     19 N1          0.3050   -0.5800    0.0700 n3        1 0E8     -0.312000
     20 C21        -0.1750    0.4030    1.0120 c3        1 0E8     -0.107000
     21 C31        -0.4910   -0.5230   -1.1230 c3        1 0E8     -0.107000
     22 C5          0.1000   -1.4500   -2.1770 c3        1 0E8     -0.004000
     23 O3         -0.2570   -2.7520   -1.8970 oh        1 0E8     -0.334000
     24 CA1        -0.4400   -1.0570   -3.5790 c3        1 0E8      0.036500
     25 N2          0.5300   -1.3120   -4.5380 n3        1 0E8     -0.323500
     26 CB1        -1.6980   -1.8800   -3.8930 c3        1 0E8     -0.125000
     27 CG1        -2.6530   -1.0490   -4.8530 c2        1 0E8     -0.067000
     28 CD11       -2.9870   -1.5610   -6.1310 c2        1 0E8     -0.122000
     29 CD21       -3.2720    0.0970   -4.3850 c1        1 0E8     -0.124000
     30 CE11       -3.9410   -0.9100   -6.9160 c1        1 0E8     -0.128000
     31 CE21       -4.2410    0.7570   -5.1870 c1        1 0E8     -0.128250
     32 CZ1        -4.5690    0.2520   -6.4410 c1        1 0E8     -0.128250
     33 O11         1.3480    0.8190   -5.0210 o         1 0E8     -0.410500
     34 C6          1.6100   -0.3590   -4.7550 c1        1 0E8      0.392500
     35 O21         2.9570   -0.8120   -4.7990 o         1 0E8     -0.286500
     36 CT1         3.9440    0.2510   -4.5890 c3        1 0E8      0.114500
     37 C11         3.4410    1.2150   -3.4650 c3        1 0E8     -0.231667
     38 C22         5.2410   -0.3510   -4.1830 c3        1 0E8     -0.231667
     39 C32         4.1300    1.0290   -5.8680 c3        1 0E8     -0.231667
     40 H11        -0.6950   -3.0360    3.7610 hc        1 0E8      0.090889
     41 H12         0.3460   -4.1900    4.1250 hc        1 0E8      0.090889
     42 H13         0.8590   -2.7020    3.8420 hc        1 0E8      0.090889
     43 H21         1.8670   -3.5750    6.3760 hc        1 0E8      0.090889
     44 H22         0.7610   -4.7340    6.3220 hc        1 0E8      0.090889
     45 H23         0.7250   -3.6830    7.5400 hc        1 0E8      0.090889
     46 H31        -1.6470   -2.6930    7.0030 hc        1 0E8      0.090889
     47 H32        -1.6610   -4.1010    6.2640 hc        1 0E8      0.090889
     48 H33        -2.0940   -2.7580    5.4940 hc        1 0E8      0.090889
     49 HC          1.1400   -0.3200    2.4110 h1        1 0E8      0.095500
     50 HO          2.6550    0.8440    1.7730 ho        1 0E8      0.213000
     51 HA         -0.8490    1.1350    3.2240 h1        1 0E8      0.126500
     52 H           1.2170    0.8950    5.0570 hn        1 0E8      0.237000
     53 HB2         1.3330    2.7820    3.9930 hc        1 0E8      0.104000
     54 HB3         0.7760    3.0070    2.4780 hc        1 0E8      0.104000
     55 HD1         0.3380    4.0530    5.7410 ha        1 0E8      0.130500
     56 HD2        -1.8830    3.2130    2.3440 ha        1 0E8      0.128500
     57 HE1        -1.4360    5.4620    6.5390 ha        1 0E8      0.130000
     58 HE2        -3.6560    4.6090    3.1220 ha        1 0E8      0.130500
     59 HZ         -3.4090    5.7220    5.2210 ha        1 0E8      0.130500
     60 HN1         0.2380   -1.4200    0.4430 hn        1 0E8      0.153000
     61 H221       -1.0460    0.1140    1.3730 h1        1 0E8      0.086000
     62 H231       -0.2790    1.2700    0.5590 h1        1 0E8      0.086000
     63 H321       -1.4000   -0.8040   -0.9190 h1        1 0E8      0.086000
     64 H331       -0.5030    0.3930   -1.4650 h1        1 0E8      0.086000
     65 HC1         1.0710   -1.3710   -2.1680 h1        1 0E8      0.095500
     66 HO1         0.4890   -3.2490   -1.7730 ho        1 0E8      0.213000
     67 HA1        -0.6550   -0.1390   -3.5850 h1        1 0E8      0.126500
     68 H1          0.4670   -2.0730   -5.0720 hn        1 0E8      0.237000
     69 HB21       -2.1810   -2.0900   -3.0410 hc        1 0E8      0.104000
     70 HB31       -1.4380   -2.7140   -4.3360 hc        1 0E8      0.104000
     71 HD11       -2.5640   -2.3470   -6.4530 ha        1 0E8      0.130500
     72 HD21       -3.0500    0.4410   -3.5320 ha        1 0E8      0.128500
     73 HE11       -4.1680   -1.2590   -7.7840 ha        1 0E8      0.130000
     74 HE21       -4.6740    1.5570   -4.8600 ha        1 0E8      0.130500
     75 HZ1        -5.2390    0.7090   -6.9950 ha        1 0E8      0.130500
     76 H111        4.2090    1.6800   -3.0620 hc        1 0E8      0.090889
     77 H121        2.9800    0.7050   -2.7860 hc        1 0E8      0.090889
     78 H131        2.8330    1.8690   -3.8480 hc        1 0E8      0.090889
     79 H211        5.0830   -1.0340   -3.5010 hc        1 0E8      0.090889
     80 H222        5.8280    0.3510   -3.8160 hc        1 0E8      0.090889
     81 H232        5.6680   -0.7580   -4.9590 hc        1 0E8      0.090889
     82 H311        3.3810    1.6750   -5.9750 hc        1 0E8      0.090889
     83 H322        4.9830    1.5190   -5.8330 hc        1 0E8      0.090889
     84 H332        4.1400    0.4020   -6.6410 hc        1 0E8      0.090889
@<TRIPOS>BOND
     1    1    2 1   
     2    2   11 1   
     3    3    4 1   
     4    4    5 1   
     5    4    6 1   
     6    4    7 1   
     7    5   40 1   
     8    5   41 1   
     9    5   42 1   
    10    6   43 1   
    11    6   44 1   
    12    6   45 1   
    13    7   46 1   
    14    7   47 1   
    15    7   48 1   
    16    8    9 1   
    17    8   10 1   
    18    8   20 1   
    19    8   49 1   
    20    9   50 1   
    21   10   11 1   
    22   10   12 1   
    23   10   51 1   
    24   11   52 1   
    25   12   13 1   
    26   12   53 1   
    27   12   54 1   
    28   13   14 1   
    29   13   15 1   
    30   14   16 1   
    31   14   55 1   
    32   15   56 1   
    33   16   57 1   
    34   17   18 1   
    35   17   58 1   
    36   18   59 1   
    37   19   20 1   
    38   19   21 1   
    39   19   60 1   
    40   20   61 1   
    41   20   62 1   
    42   21   22 1   
    43   21   63 1   
    44   21   64 1   
    45   22   23 1   
    46   22   24 1   
    47   22   65 1   
    48   23   66 1   
    49   24   25 1   
    50   24   26 1   
    51   24   67 1   
    52   25   34 1   
    53   25   68 1   
    54   26   27 1   
    55   26   69 1   
    56   26   70 1   
    57   27   28 1   
    58   27   29 1   
    59   28   30 1   
    60   28   71 1   
    61   29   72 1   
    62   30   73 1   
    63   31   32 1   
    64   31   74 1   
    65   32   75 1   
    66   33   34 1   
    67   35   36 1   
    68   36   37 1   
    69   36   38 1   
    70   36   39 1   
    71   37   76 1   
    72   37   77 1   
    73   37   78 1   
    74   38   79 1   
    75   38   80 1   
    76   38   81 1   
    77   39   82 1   
    78   39   83 1   
    79   39   84 1   
@<TRIPOS>SUBSTRUCTURE
     1 0E8         1 TEMP              0 ****  ****    0 ROOT
