@<TRIPOS>MOLECULE
0E8
   84    85     1     0     0
SMALL
bcc


@<TRIPOS>ATOM
      1 O1          5.4940   -1.0680   -0.8380 o         1 0E8     -0.596500
      2 C           5.6310    0.1510   -0.6380 c         1 0E8      0.746600
      3 O2          6.7670    0.8160   -1.0360 os        1 0E8     -0.449400
      4 CT          7.9110    0.0520   -1.5010 c3        1 0E8      0.186800
      5 C1          7.5850   -0.6550   -2.8060 c3        1 0E8     -0.113933
      6 C2          8.9650    1.1340   -1.7300 c3        1 0E8     -0.113933
      7 C3          8.3780   -0.9250   -0.4360 c3        1 0E8     -0.113933
      8 C4          2.4560    1.0970   -0.9480 c3        1 0E8      0.090600
      9 O           2.2290    2.4900   -0.8550 oh        1 0E8     -0.596300
     10 CA          3.3720    0.5870    0.2000 c3        1 0E8      0.082200
     11 N           4.7480    0.9980    0.0130 n         1 0E8     -0.531400
     12 CB          2.8390    1.0640    1.5650 c3        1 0E8     -0.053100
     13 CG          3.5110    0.3870    2.7060 ca        1 0E8     -0.081800
     14 CD1         4.3720    1.1000    3.5470 ca        1 0E8     -0.120750
     15 CD2         3.2720   -0.9700    2.9600 ca        1 0E8     -0.120750
     16 CE1         4.9840    0.4660    4.6280 ca        1 0E8     -0.126500
     17 CE2         3.8860   -1.6020    4.0390 ca        1 0E8     -0.126500
     18 CZ          4.7420   -0.8850    4.8750 ca        1 0E8     -0.128000
     19 C31        -1.0400    0.1660   -2.0550 c3        1 0E8      0.128800
     20 C5         -1.9970    0.9370   -1.1220 c3        1 0E8      0.090600
     21 O3         -1.9740    2.3260   -1.3860 oh        1 0E8     -0.596300
     22 CA1        -3.4310    0.3420   -1.2180 c3        1 0E8      0.082200
     23 N2         -4.1770    0.6170   -0.0120 n         1 0E8     -0.531400
     24 CB1        -4.1340    0.8650   -2.4860 c3        1 0E8     -0.053100
     25 CG1        -5.4080    0.1540   -2.7730 ca        1 0E8     -0.081800
     26 CD11       -6.6300    0.8300   -2.6860 ca        1 0E8     -0.120750
     27 CD21       -5.3940   -1.1910   -3.1600 ca        1 0E8     -0.120750
     28 CE11       -7.8220    0.1680   -2.9790 ca        1 0E8     -0.126500
     29 CE21       -6.5870   -1.8510   -3.4520 ca        1 0E8     -0.126500
     30 CZ1        -7.8020   -1.1730   -3.3620 ca        1 0E8     -0.128000
     31 O11        -4.3390   -1.6140    0.7070 o         1 0E8     -0.596500
     32 C6         -4.6680   -0.4160    0.7630 c         1 0E8      0.746600
     33 O21        -5.5720    0.0380    1.6930 os        1 0E8     -0.449400
     34 CT1        -6.0870   -0.8810    2.6910 c3        1 0E8      0.186800
     35 C11        -4.9610   -1.4400    3.5440 c3        1 0E8     -0.113933
     36 C22        -6.9970    0.0140    3.5320 c3        1 0E8     -0.113933
     37 C32        -6.8950   -1.9880    2.0340 c3        1 0E8     -0.113933
     38 H11         7.1530    0.0700   -3.5370 hc        1 0E8      0.051811
     39 H12         8.5190   -1.0900   -3.2340 hc        1 0E8      0.051811
     40 H13         6.8470   -1.4750   -2.6330 hc        1 0E8      0.051811
     41 H21         9.1810    1.6690   -0.7760 hc        1 0E8      0.051811
     42 H22         9.9000    0.6560   -2.1070 hc        1 0E8      0.051811
     43 H23         8.6000    1.8740   -2.4810 hc        1 0E8      0.051811
     44 H31         7.6290   -1.7430   -0.3000 hc        1 0E8      0.051811
     45 H32         9.3510   -1.3730   -0.7460 hc        1 0E8      0.051811
     46 H33         8.5140   -0.3960    0.5370 hc        1 0E8      0.051811
     47 HC          2.9900    0.9790   -1.9380 h1        1 0E8      0.094700
     48 HO          1.6540    2.6450   -0.0950 ho        1 0E8      0.400500
     49 HA          3.3460   -0.5460    0.1820 h1        1 0E8      0.096700
     50 H           4.9110    1.9760   -0.0680 hn        1 0E8      0.324500
     51 HB2         2.9580    2.1770    1.6520 hc        1 0E8      0.055450
     52 HB3         1.7390    0.8380    1.6050 hc        1 0E8      0.055450
     53 HD1         4.5700    2.1650    3.3540 ha        1 0E8      0.130750
     54 HD2         2.6010   -1.5390    2.3000 ha        1 0E8      0.130750
     55 HE1         5.6600    1.0330    5.2830 ha        1 0E8      0.132250
     56 HE2         3.6960   -2.6680    4.2300 ha        1 0E8      0.132250
     57 HZ          5.2270   -1.3850    5.7270 ha        1 0E8      0.132000
     58 HN1         0.3210    1.6560   -2.2520 hn        1 0E8      0.375800
     59 H221        1.3870   -0.7940   -1.0730 h1        1 0E8      0.051700
     60 H231        0.5970    0.4510   -0.0030 h1        1 0E8      0.051700
     61 H321       -1.4420    0.2100   -3.1070 h1        1 0E8      0.051700
     62 H331       -1.0270   -0.9120   -1.7300 h1        1 0E8      0.051700
     63 HC1        -1.6270    0.8650   -0.0580 h1        1 0E8      0.094700
     64 HO1        -2.1480    2.4510   -2.3280 ho        1 0E8      0.400500
     65 HA1        -3.3220   -0.7830   -1.3100 h1        1 0E8      0.096700
     66 H1         -4.5860    1.5160    0.0850 hn        1 0E8      0.324500
     67 HB21       -4.3220    1.9680   -2.3850 hc        1 0E8      0.055450
     68 HB31       -3.4340    0.7210   -3.3530 hc        1 0E8      0.055450
     69 HD11       -6.6530    1.8880   -2.3850 ha        1 0E8      0.130750
     70 HD21       -4.4380   -1.7300   -3.2300 ha        1 0E8      0.130750
     71 HE11       -8.7780    0.7060   -2.9070 ha        1 0E8      0.132250
     72 HE21       -6.5670   -2.9090   -3.7510 ha        1 0E8      0.132250
     73 HZ1        -8.7430   -1.6940   -3.5920 ha        1 0E8      0.132000
     74 H111       -4.3260   -0.6080    3.9330 hc        1 0E8      0.051811
     75 H121       -5.3920   -2.0010    4.4060 hc        1 0E8      0.051811
     76 H131       -4.3220   -2.1310    2.9430 hc        1 0E8      0.051811
     77 H211       -7.8010    0.4530    2.8940 hc        1 0E8      0.051811
     78 H222       -7.4600   -0.5980    4.3410 hc        1 0E8      0.051811
     79 H232       -6.4070    0.8440    3.9870 hc        1 0E8      0.051811
     80 H311       -6.2250   -2.6700    1.4560 hc        1 0E8      0.051811
     81 H322       -7.4230   -2.5780    2.8200 hc        1 0E8      0.051811
     82 H332       -7.6490   -1.5500    1.3390 hc        1 0E8      0.051811
     83 C21         1.1390    0.3010   -0.9830 c3        1 0E8      0.128800
     84 N1          0.3140    0.6580   -2.1200 n3        1 0E8     -0.811200
@<TRIPOS>BOND
     1    1    2 2   
     2    2    3 1   
     3    2   11 1   
     4    3    4 1   
     5    4    5 1   
     6    4    6 1   
     7    4    7 1   
     8    5   38 1   
     9    5   39 1   
    10    5   40 1   
    11    6   41 1   
    12    6   42 1   
    13    6   43 1   
    14    7   44 1   
    15    7   45 1   
    16    7   46 1   
    17    8    9 1   
    18    8   10 1   
    19    8   47 1   
    20    8   83 1   
    21    9   48 1   
    22   10   11 1   
    23   10   12 1   
    24   10   49 1   
    25   11   50 1   
    26   12   13 1   
    27   12   51 1   
    28   12   52 1   
    29   13   14 ar  
    30   13   15 ar  
    31   14   16 ar  
    32   14   53 1   
    33   15   17 ar  
    34   15   54 1   
    35   16   18 ar  
    36   16   55 1   
    37   17   18 ar  
    38   17   56 1   
    39   18   57 1   
    40   19   20 1   
    41   19   61 1   
    42   19   62 1   
    43   19   84 1   
    44   20   21 1   
    45   20   22 1   
    46   20   63 1   
    47   21   64 1   
    48   22   23 1   
    49   22   24 1   
    50   22   65 1   
    51   23   32 1   
    52   23   66 1   
    53   24   25 1   
    54   24   67 1   
    55   24   68 1   
    56   25   26 ar  
    57   25   27 ar  
    58   26   28 ar  
    59   26   69 1   
    60   27   29 ar  
    61   27   70 1   
    62   28   30 ar  
    63   28   71 1   
    64   29   30 ar  
    65   29   72 1   
    66   30   73 1   
    67   31   32 2   
    68   32   33 1   
    69   33   34 1   
    70   34   35 1   
    71   34   36 1   
    72   34   37 1   
    73   35   74 1   
    74   35   75 1   
    75   35   76 1   
    76   36   77 1   
    77   36   78 1   
    78   36   79 1   
    79   37   80 1   
    80   37   81 1   
    81   37   82 1   
    82   58   84 1   
    83   59   83 1   
    84   60   83 1   
    85   83   84 1   
@<TRIPOS>SUBSTRUCTURE
     1 0E8         1 TEMP              0 ****  ****    0 ROOT
