@<TRIPOS>MOLECULE
0EA
   28    28     1     0     0
SMALL
bcc


@<TRIPOS>ATOM
      1 O1         -3.3800    1.7270   -1.3790 oh        1 0EA     -0.506100
      2 C5         -2.7080    0.8440   -0.5600 ca        1 0EA      0.096100
      3 C6         -1.3430    1.0690   -0.3430 ca        1 0EA     -0.134000
      4 C7         -3.3500   -0.2410    0.0670 ca        1 0EA      0.007100
      5 O5         -4.7070   -0.3880   -0.1750 oh        1 0EA     -0.532100
      6 C8         -2.6260   -1.0990    0.9020 ca        1 0EA     -0.177000
      7 C9         -1.2700   -0.8700    1.1100 ca        1 0EA     -0.095000
      8 C10        -0.6240    0.2090    0.4930 ca        1 0EA     -0.033300
      9 C11         0.8420    0.4580    0.7050 c3        1 0EA      0.206400
     10 O8          1.2230   -0.1370    1.9380 oh        1 0EA     -0.647800
     11 C12         1.6870   -0.0560   -0.4870 c3        1 0EA     -0.000500
     12 N6          1.6120   -1.5080   -0.6180 n3        1 0EA     -0.800200
     13 C13         2.3490   -1.9970   -1.7580 c3        1 0EA      0.152100
     14 C14         3.1430    0.4790   -0.2820 c         1 0EA      0.885600
     15 O3          3.7910    0.0130    0.7040 o         1 0EA     -0.833300
     16 H9         -0.8480    1.9150   -0.8420 ha        1 0EA      0.155000
     17 H10        -4.9430   -1.2890    0.0840 ho        1 0EA      0.414000
     18 H11        -3.1300   -1.9480    1.3830 ha        1 0EA      0.119000
     19 H12        -0.6820   -1.5380    1.7590 ha        1 0EA      0.157000
     20 H13         1.0200    1.5710    0.7800 h1        1 0EA      0.045700
     21 H14         2.1970   -0.1860    1.9350 ho        1 0EA      0.455000
     22 H15         1.2690    0.4020   -1.4280 h1        1 0EA      0.060700
     23 H16         1.9960   -1.9080    0.2240 hn        1 0EA      0.353800
     24 H18         1.8510   -1.6320   -2.6950 h1        1 0EA      0.020367
     25 H19         3.4230   -1.6630   -1.7820 h1        1 0EA      0.020367
     26 H20         2.3200   -3.1190   -1.7500 h1        1 0EA      0.020367
     27 H2         -4.2770    1.3850   -1.5000 ho        1 0EA      0.422000
     28 OXT         3.5790    1.3330   -1.0950 o         1 0EA     -0.833300
@<TRIPOS>BOND
     1    1    2 1   
     2    1   27 1   
     3    2    3 ar  
     4    2    4 ar  
     5    3    8 ar  
     6    3   16 1   
     7    4    5 1   
     8    4    6 ar  
     9    5   17 1   
    10    6    7 ar  
    11    6   18 1   
    12    7    8 ar  
    13    7   19 1   
    14    8    9 1   
    15    9   10 1   
    16    9   11 1   
    17    9   20 1   
    18   10   21 1   
    19   11   12 1   
    20   11   14 1   
    21   11   22 1   
    22   12   13 1   
    23   12   23 1   
    24   13   24 1   
    25   13   25 1   
    26   13   26 1   
    27   14   15 1   
    28   14   28 1   
@<TRIPOS>SUBSTRUCTURE
     1 0EA         1 TEMP              0 ****  ****    0 ROOT
