@<TRIPOS>MOLECULE
0EA
   28    25     1     0     0
SMALL
bcc


@<TRIPOS>ATOM
      1 O1         -3.7910   -0.8600   -1.6340 oh        1 0EA     -0.294000
      2 C5         -2.3360   -0.7890   -1.6350 c2        1 0EA     -0.012000
      3 C6         -1.6330   -0.7450   -0.4240 c2        1 0EA     -0.160000
      4 C7         -1.6400   -0.8000   -2.8410 c1        1 0EA      0.036000
      5 O5         -2.3190   -0.7330   -4.0170 o         1 0EA     -0.270000
      6 C8         -0.2390   -0.7660   -2.8430 c2        1 0EA     -0.153000
      7 C9          0.4590   -0.7220   -1.6380 c1        1 0EA     -0.131000
      8 C10        -0.2320   -0.7110   -0.4290 c1        1 0EA     -0.088000
      9 C11         0.5280   -0.7700    0.8660 c2        1 0EA      0.078000
     10 O8          1.7860   -1.4130    0.6500 oh        1 0EA     -0.337000
     11 C12         0.7610    0.6350    1.3800 c3        1 0EA     -0.146000
     12 N6          2.0820    0.7460    1.8610 n3        1 0EA     -0.290000
     13 C13         2.5090    2.1430    1.7920 c3        1 0EA     -0.122000
     14 C14        -0.2150    0.9280    2.5100 c2        1 0EA      0.309000
     15 O3         -0.0660    0.3680    3.6410 o         1 0EA     -0.568500
     16 H9         -2.1200   -0.7360    0.4270 ha        1 0EA      0.215000
     17 H10        -2.2610   -1.5080   -4.4350 ho        1 0EA      0.225000
     18 H11         0.2610   -0.7730   -3.7090 ha        1 0EA      0.132000
     19 H12         1.4410   -0.6980   -1.6420 ha        1 0EA      0.139000
     20 H13        -0.0010   -1.2880    1.5390 h4        1 0EA      0.136000
     21 H14         1.7290   -2.3070    0.9140 ho        1 0EA      0.200000
     22 H15         0.6210    1.2830    0.6440 h1        1 0EA      0.092000
     23 H16         2.1120    0.4740    2.6890 hn        1 0EA      0.158000
     24 H18         2.2230    2.6240    2.6310 h1        1 0EA      0.061000
     25 H19         3.4860    2.1830    1.7090 h1        1 0EA      0.061000
     26 H20         2.0940    2.5760    1.0070 h1        1 0EA      0.061000
     27 H2         -4.1210   -0.0930   -1.3570 ho        1 0EA      0.238000
     28 OXT        -1.1160    1.7540    2.3450 o         1 0EA     -0.568500
@<TRIPOS>BOND
     1    1    2 1   
     2    1   27 1   
     3    2    3 1   
     4    2    4 1   
     5    3    8 1   
     6    3   16 1   
     7    4    6 1   
     8    5   17 1   
     9    6    7 1   
    10    6   18 1   
    11    7   19 1   
    12    9   10 1   
    13    9   11 1   
    14    9   20 1   
    15   10   21 1   
    16   11   12 1   
    17   11   14 1   
    18   11   22 1   
    19   12   13 1   
    20   12   23 1   
    21   13   24 1   
    22   13   25 1   
    23   13   26 1   
    24   14   15 1   
    25   14   28 1   
@<TRIPOS>SUBSTRUCTURE
     1 0EA         1 TEMP              0 ****  ****    0 ROOT
