@<TRIPOS>MOLECULE
0EC
   41    43     1     0     0
SMALL
bcc


@<TRIPOS>ATOM
      1 C1         -0.1710   -0.2650    0.0770 ca        1 0EC      0.914900
      2 N2          1.2090   -0.3570    0.0670 nb        1 0EC     -0.709000
      3 C3          1.8740   -0.2230    1.2390 ca        1 0EC      0.517600
      4 C4          1.2000   -0.0070    2.4990 ca        1 0EC     -0.278600
      5 C5         -0.2150    0.0380    2.3920 ca        1 0EC      0.535200
      6 N5         -1.0180    0.2330    3.6260 n4        1 0EC     -0.829300
      7 N6         -0.9150   -0.0900    1.2580 nb        1 0EC     -0.753000
      8 C7          3.3120   -0.3020    1.2460 ca        1 0EC     -0.277300
      9 C8          4.0100   -0.1690    2.4180 ca        1 0EC      0.181100
     10 O8          5.3690   -0.2250    2.5450 os        1 0EC     -0.282900
     11 C9          3.3140    0.0560    3.6770 ca        1 0EC      0.176100
     12 O9          4.1470    0.1720    4.7530 os        1 0EC     -0.274900
     13 C10         1.9440    0.1320    3.7020 ca        1 0EC     -0.242000
     14 N11        -0.8650   -0.2740   -1.1390 nh        1 0EC     -0.711300
     15 C12        -2.3050   -0.4920   -1.1120 c3        1 0EC      0.201300
     16 C13        -2.9910   -0.2730   -2.4770 c3        1 0EC      0.154300
     17 N14        -2.2950   -0.9320   -3.5590 n3        1 0EC     -0.822200
     18 C15        -0.9120   -0.5140   -3.6410 c3        1 0EC      0.154300
     19 C16        -0.1470   -0.7390   -2.3210 c3        1 0EC      0.201300
     20 C8A         6.1180   -0.4430    1.3460 c3        1 0EC      0.100700
     21 C9A         3.5370    0.3990    6.0230 c3        1 0EC      0.102700
     22 H7          3.8290   -0.4700    0.2870 ha        1 0EC      0.184000
     23 H10         1.4290    0.3040    4.6570 ha        1 0EC      0.124000
     24 HN14       -2.7670   -0.7860   -4.4310 hn        1 0EC      0.387800
     25 H12        -2.5230   -1.5400   -0.7580 h1        1 0EC      0.064950
     26 H12A       -2.7770    0.2370   -0.3950 h1        1 0EC      0.064950
     27 H13        -4.0260   -0.7130   -2.4050 h1        1 0EC      0.051200
     28 H13A       -3.0970    0.8390   -2.6450 h1        1 0EC      0.051200
     29 HN5        -0.7980   -0.5260    4.2790 hn        1 0EC      0.470133
     30 H15        -0.8080    0.5730   -3.9310 h1        1 0EC      0.051200
     31 HN5A       -0.7580    1.1330    4.0420 hn        1 0EC      0.470133
     32 H15A       -0.4040   -1.1360   -4.4310 h1        1 0EC      0.051200
     33 H16         0.0860   -1.8370   -2.2120 h1        1 0EC      0.064950
     34 H16A        0.8250   -0.1730   -2.4070 h1        1 0EC      0.064950
     35 H8A         7.1770   -0.4480    1.7140 h1        1 0EC      0.064700
     36 H8AA        5.9500    0.3930    0.6240 h1        1 0EC      0.064700
     37 H8AB        5.8490   -1.4260    0.8910 h1        1 0EC      0.064700
     38 H9A         2.8730   -0.4550    6.2970 h1        1 0EC      0.058033
     39 H9AA        2.9720    1.3620    6.0200 h1        1 0EC      0.058033
     40 H9AB        4.4170    0.4570    6.7160 h1        1 0EC      0.058033
     41 H53        -2.0260    0.2280    3.4200 hn        1 0EC      0.470133
@<TRIPOS>BOND
     1    1    2 ar  
     2    1    7 ar  
     3    1   14 1   
     4    2    3 ar  
     5    3    4 ar  
     6    3    8 ar  
     7    4    5 ar  
     8    4   13 ar  
     9    5    6 1   
    10    5    7 ar  
    11    6   29 1   
    12    6   31 1   
    13    6   41 1   
    14    8    9 ar  
    15    8   22 1   
    16    9   10 1   
    17    9   11 ar  
    18   10   20 1   
    19   11   12 1   
    20   11   13 ar  
    21   12   21 1   
    22   13   23 1   
    23   14   15 1   
    24   14   19 1   
    25   15   16 1   
    26   15   25 1   
    27   15   26 1   
    28   16   17 1   
    29   16   27 1   
    30   16   28 1   
    31   17   18 1   
    32   17   24 1   
    33   18   19 1   
    34   18   30 1   
    35   18   32 1   
    36   19   33 1   
    37   19   34 1   
    38   20   35 1   
    39   20   36 1   
    40   20   37 1   
    41   21   38 1   
    42   21   39 1   
    43   21   40 1   
@<TRIPOS>SUBSTRUCTURE
     1 0EC         1 TEMP              0 ****  ****    0 ROOT
