@<TRIPOS>MOLECULE
0EC
   40    42     1     0     0
SMALL
bcc


@<TRIPOS>ATOM
      1 C1         -0.1470   -0.2260    0.1030 ca        1 0EC      0.903900
      2 N2          1.2140   -0.3290    0.0690 nb        1 0EC     -0.782000
      3 C3          1.8810   -0.2220    1.2630 ca        1 0EC      0.491600
      4 C4          1.2120   -0.0250    2.5060 ca        1 0EC     -0.322600
      5 C5         -0.2430    0.0210    2.4420 ca        1 0EC      0.714200
      6 N5         -0.9820    0.2420    3.6030 nh        1 0EC     -0.936500
      7 N6         -0.9070   -0.1000    1.2740 nb        1 0EC     -0.816000
      8 C7          3.3130   -0.3110    1.2600 ca        1 0EC     -0.270300
      9 C8          4.0180   -0.1870    2.4350 ca        1 0EC      0.153100
     10 O8          5.3880   -0.2570    2.5460 os        1 0EC     -0.301900
     11 C9          3.3300    0.0370    3.6790 ca        1 0EC      0.085100
     12 O9          4.1590    0.1480    4.7780 os        1 0EC     -0.302900
     13 C10         1.9560    0.1150    3.7020 ca        1 0EC     -0.144000
     14 N11        -0.8540   -0.1810   -1.1330 nh        1 0EC     -0.722300
     15 C12        -2.2750   -0.4950   -1.0900 c3        1 0EC      0.198300
     16 C13        -2.9910   -0.2540   -2.4350 c3        1 0EC      0.153300
     17 N14        -2.3020   -0.8500   -3.5600 n3        1 0EC     -0.819200
     18 C15        -0.9090   -0.4590   -3.6210 c3        1 0EC      0.153300
     19 C16        -0.1530   -0.7020   -2.2990 c3        1 0EC      0.198300
     20 C8A         6.1050   -0.4700    1.3330 c3        1 0EC      0.107700
     21 C9A         3.5260    0.4960    6.0030 c3        1 0EC      0.109700
     22 H7          3.8270   -0.4740    0.3010 ha        1 0EC      0.160000
     23 H10         1.4420    0.3050    4.6540 ha        1 0EC      0.135000
     24 HN14       -2.7660   -0.6120   -4.4160 hn        1 0EC      0.364800
     25 H12        -2.7770    0.1720   -0.3330 h1        1 0EC      0.058700
     26 H12A       -2.4360   -1.5670   -0.7800 h1        1 0EC      0.058700
     27 H13        -3.1360    0.8600   -2.5640 h1        1 0EC      0.037200
     28 H13A       -4.0100   -0.7280   -2.3640 h1        1 0EC      0.037200
     29 HN5        -1.9700    0.1360    3.5380 hn        1 0EC      0.415800
     30 H15        -0.7830    0.6270   -3.9060 h1        1 0EC      0.037200
     31 HN5A       -0.5760   -0.1040    4.4400 hn        1 0EC      0.415800
     32 H15A       -0.4100   -1.0830   -4.4140 h1        1 0EC      0.037200
     33 H16         0.0360   -1.8080   -2.1850 h1        1 0EC      0.058700
     34 H16A        0.8410   -0.1800   -2.3920 h1        1 0EC      0.058700
     35 H8A         5.9280    0.3700    0.6190 h1        1 0EC      0.048033
     36 H8AA        7.1730   -0.4880    1.6680 h1        1 0EC      0.048033
     37 H8AB        5.8170   -1.4460    0.8720 h1        1 0EC      0.048033
     38 H9A         2.9820    1.4670    5.9100 h1        1 0EC      0.043367
     39 H9AA        4.3820    0.5880    6.7190 h1        1 0EC      0.043367
     40 H9AB        2.8280   -0.3140    6.3290 h1        1 0EC      0.043367
@<TRIPOS>BOND
     1    1    2 ar  
     2    1    7 ar  
     3    1   14 1   
     4    2    3 ar  
     5    3    4 ar  
     6    3    8 ar  
     7    4    5 ar  
     8    4   13 ar  
     9    5    6 1   
    10    5    7 ar  
    11    6   29 1   
    12    6   31 1   
    13    8    9 ar  
    14    8   22 1   
    15    9   10 1   
    16    9   11 ar  
    17   10   20 1   
    18   11   12 1   
    19   11   13 ar  
    20   12   21 1   
    21   13   23 1   
    22   14   15 1   
    23   14   19 1   
    24   15   16 1   
    25   15   25 1   
    26   15   26 1   
    27   16   17 1   
    28   16   27 1   
    29   16   28 1   
    30   17   18 1   
    31   17   24 1   
    32   18   19 1   
    33   18   30 1   
    34   18   32 1   
    35   19   33 1   
    36   19   34 1   
    37   20   35 1   
    38   20   36 1   
    39   20   37 1   
    40   21   38 1   
    41   21   39 1   
    42   21   40 1   
@<TRIPOS>SUBSTRUCTURE
     1 0EC         1 TEMP              0 ****  ****    0 ROOT
