@<TRIPOS>MOLECULE
0EC
   40    42     1     0     0
SMALL
bcc


@<TRIPOS>ATOM
      1 C1         -1.6360   -0.2920    0.0750 ca        1 0EC      0.901900
      2 N2         -0.7140    0.7110   -0.0230 nb        1 0EC     -0.782000
      3 C3          0.6090    0.3500   -0.0150 ca        1 0EC      0.491600
      4 C4          1.0390   -1.0080    0.0570 ca        1 0EC     -0.321600
      5 C5         -0.0210   -2.0040    0.1330 ca        1 0EC      0.713200
      6 N5          0.2990   -3.3610    0.1220 nh        1 0EC     -0.936500
      7 N6         -1.3240   -1.6570    0.1500 nb        1 0EC     -0.814000
      8 C7          1.6020    1.3830   -0.0900 ca        1 0EC     -0.270300
      9 C8          2.9390    1.0600   -0.1010 ca        1 0EC      0.153100
     10 O8          3.9710    1.9680   -0.1690 os        1 0EC     -0.300900
     11 C9          3.3580   -0.3160   -0.0410 ca        1 0EC      0.086100
     12 O9          4.7270   -0.4950   -0.0610 os        1 0EC     -0.301900
     13 C10         2.4190   -1.3190    0.0350 ca        1 0EC     -0.145000
     14 N11        -3.0120    0.0590    0.1960 nh        1 0EC     -0.723300
     15 C12        -3.9810   -0.9690   -0.1520 c3        1 0EC      0.161800
     16 C13        -5.4430   -0.5470    0.1150 c3        1 0EC      0.142800
     17 N14        -5.8050    0.7710   -0.3600 n3        1 0EC     -0.797200
     18 C15        -4.8470    1.7620    0.0810 c3        1 0EC      0.142800
     19 C16        -3.3670    1.4170   -0.1910 c3        1 0EC      0.161800
     20 C8A         3.5950    3.3410   -0.2280 c3        1 0EC      0.107700
     21 C9A         5.1780   -1.8440   -0.1000 c3        1 0EC      0.109700
     22 H7          1.2670    2.4300   -0.1400 ha        1 0EC      0.160000
     23 H10         2.7510   -2.3660    0.0650 ha        1 0EC      0.135000
     24 HN14       -5.8640    0.7710   -1.3630 hn        1 0EC      0.350800
     25 H12        -3.8770   -1.2600   -1.2380 h1        1 0EC      0.055200
     26 H12A       -3.7820   -1.8840    0.4740 h1        1 0EC      0.055200
     27 H13        -6.1120   -1.3110   -0.3690 h1        1 0EC      0.061450
     28 H13A       -5.6310   -0.5700    1.2260 h1        1 0EC      0.061450
     29 HN5         1.1740   -3.5960    0.5290 hn        1 0EC      0.415800
     30 H15        -5.0680    2.7400   -0.4280 h1        1 0EC      0.061450
     31 HN5A       -0.4390   -4.0020    0.3110 hn        1 0EC      0.415800
     32 H15A       -4.9920    1.9020    1.1890 h1        1 0EC      0.061450
     33 H16        -2.7410    2.1370    0.4090 h1        1 0EC      0.055200
     34 H16A       -3.1450    1.5890   -1.2840 h1        1 0EC      0.055200
     35 H8A         3.0280    3.6340    0.6890 h1        1 0EC      0.048367
     36 H8AA        4.5790    3.8730   -0.2740 h1        1 0EC      0.048367
     37 H8AB        2.9910    3.5450   -1.1450 h1        1 0EC      0.048367
     38 H9A         6.2910   -1.7420   -0.1580 h1        1 0EC      0.044033
     39 H9AA        4.8810   -2.3860    0.8310 h1        1 0EC      0.044033
     40 H9AB        4.7830   -2.3710   -1.0020 h1        1 0EC      0.044033
@<TRIPOS>BOND
     1    1    2 ar  
     2    1    7 ar  
     3    1   14 1   
     4    2    3 ar  
     5    3    4 ar  
     6    3    8 ar  
     7    4    5 ar  
     8    4   13 ar  
     9    5    6 1   
    10    5    7 ar  
    11    6   29 1   
    12    6   31 1   
    13    8    9 ar  
    14    8   22 1   
    15    9   10 1   
    16    9   11 ar  
    17   10   20 1   
    18   11   12 1   
    19   11   13 ar  
    20   12   21 1   
    21   13   23 1   
    22   14   15 1   
    23   14   19 1   
    24   15   16 1   
    25   15   25 1   
    26   15   26 1   
    27   16   17 1   
    28   16   27 1   
    29   16   28 1   
    30   17   18 1   
    31   17   24 1   
    32   18   19 1   
    33   18   30 1   
    34   18   32 1   
    35   19   33 1   
    36   19   34 1   
    37   20   35 1   
    38   20   36 1   
    39   20   37 1   
    40   21   38 1   
    41   21   39 1   
    42   21   40 1   
@<TRIPOS>SUBSTRUCTURE
     1 0EC         1 TEMP              0 ****  ****    0 ROOT
