@<TRIPOS>MOLECULE
0EC
   40    42     1     0     0
SMALL
bcc


@<TRIPOS>ATOM
      1 C1         -0.1460   -0.2250    0.1020 ca        1 0EC      0.903900
      2 N2          1.2150   -0.3310    0.0700 nb        1 0EC     -0.782000
      3 C3          1.8810   -0.2250    1.2640 ca        1 0EC      0.491600
      4 C4          1.2110   -0.0250    2.5060 ca        1 0EC     -0.322600
      5 C5         -0.2430    0.0240    2.4410 ca        1 0EC      0.714200
      6 N5         -0.9830    0.2490    3.6010 nv        1 0EC     -0.936500
      7 N6         -0.9070   -0.0950    1.2730 nb        1 0EC     -0.816000
      8 C7          3.3130   -0.3180    1.2620 ca        1 0EC     -0.270300
      9 C8          4.0170   -0.1950    2.4370 ca        1 0EC      0.153100
     10 O8          5.3870   -0.2690    2.5500 os        1 0EC     -0.301900
     11 C9          3.3290    0.0320    3.6810 ca        1 0EC      0.085100
     12 O9          4.1570    0.1420    4.7800 os        1 0EC     -0.302900
     13 C10         1.9550    0.1140    3.7020 ca        1 0EC     -0.144000
     14 N11        -0.8520   -0.1780   -1.1350 nh        1 0EC     -0.722300
     15 C12        -2.2740   -0.4880   -1.0920 c3        1 0EC      0.198300
     16 C13        -2.9880   -0.2450   -2.4380 c3        1 0EC      0.153300
     17 N14        -2.3000   -0.8440   -3.5620 n7        1 0EC     -0.819200
     18 C15        -0.9060   -0.4570   -3.6220 c3        1 0EC      0.153300
     19 C16        -0.1520   -0.7020   -2.2990 c3        1 0EC      0.198300
     20 C8A         6.1040   -0.4840    1.3380 c3        1 0EC      0.107700
     21 C9A         3.5240    0.4920    6.0040 c3        1 0EC      0.109700
     22 H7          3.8270   -0.4840    0.3040 ha        1 0EC      0.160000
     23 H10         1.4400    0.3070    4.6540 ha        1 0EC      0.135000
     24 HN14       -2.7630   -0.6050   -4.4190 hn        1 0EC      0.364800
     25 H12        -2.4380   -1.5600   -0.7820 h1        1 0EC      0.058700
     26 H12A       -2.7740    0.1810   -0.3370 h1        1 0EC      0.058700
     27 H13        -3.1300    0.8680   -2.5680 h1        1 0EC      0.037200
     28 H13A       -4.0080   -0.7170   -2.3680 h1        1 0EC      0.037200
     29 HN5        -0.5780   -0.0980    4.4390 hn        1 0EC      0.415800
     30 H15        -0.7760    0.6280   -3.9080 h1        1 0EC      0.037200
     31 HN5A       -1.9710    0.1460    3.5350 hn        1 0EC      0.415800
     32 H15A       -0.4080   -1.0830   -4.4150 h1        1 0EC      0.037200
     33 H16         0.8440   -0.1830   -2.3920 h1        1 0EC      0.058700
     34 H16A        0.0350   -1.8080   -2.1850 h1        1 0EC      0.058700
     35 H8A         5.8140   -1.4590    0.8770 h1        1 0EC      0.048033
     36 H8AA        5.9300    0.3560    0.6230 h1        1 0EC      0.048033
     37 H8AB        7.1720   -0.5050    1.6730 h1        1 0EC      0.048033
     38 H9A         2.9830    1.4650    5.9110 h1        1 0EC      0.043367
     39 H9AA        4.3790    0.5820    6.7210 h1        1 0EC      0.043367
     40 H9AB        2.8230   -0.3150    6.3300 h1        1 0EC      0.043367
@<TRIPOS>BOND
     1    1    2 ar  
     2    1    7 ar  
     3    1   14 1   
     4    2    3 ar  
     5    3    4 ar  
     6    3    8 ar  
     7    4    5 ar  
     8    4   13 ar  
     9    5    6 1   
    10    5    7 ar  
    11    6   29 1   
    12    6   31 1   
    13    8    9 ar  
    14    8   22 1   
    15    9   10 1   
    16    9   11 ar  
    17   10   20 1   
    18   11   12 1   
    19   11   13 ar  
    20   12   21 1   
    21   13   23 1   
    22   14   15 1   
    23   14   19 1   
    24   15   16 1   
    25   15   25 1   
    26   15   26 1   
    27   16   17 1   
    28   16   27 1   
    29   16   28 1   
    30   17   18 1   
    31   17   24 1   
    32   18   19 1   
    33   18   30 1   
    34   18   32 1   
    35   19   33 1   
    36   19   34 1   
    37   20   35 1   
    38   20   36 1   
    39   20   37 1   
    40   21   38 1   
    41   21   39 1   
    42   21   40 1   
@<TRIPOS>SUBSTRUCTURE
     1 0EC         1 TEMP              0 ****  ****    0 ROOT
