@<TRIPOS>MOLECULE
0EC
   40    37     1     0     0
SMALL
bcc


@<TRIPOS>ATOM
      1 C1         -1.2210    0.4580   -1.1430 c1        1 0EC      0.195000
      2 N2          0.1390    0.4190   -1.1370 n2        1 0EC     -0.267000
      3 C3          0.8020    0.6120   -0.0040 c1        1 0EC      0.115000
      4 C4          0.1040    0.8520    1.1720 c1        1 0EC     -0.217000
      5 C5         -1.2600    0.8900    1.1620 c1        1 0EC      0.212000
      6 N5         -2.3080    1.2310    2.0260 n2        1 0EC     -0.347000
      7 N6         -1.9160    0.6970    0.0300 n2        1 0EC     -0.299000
      8 C7          2.1750    0.5300    0.0100 c1        1 0EC     -0.216000
      9 C8          2.9050    0.6950    1.2710 c1        1 0EC      0.052500
     10 O8          4.3310    0.3700    1.5440 os        1 0EC     -0.208000
     11 C9          2.2250    0.9280    2.4170 c1        1 0EC      0.052500
     12 O9          2.4840    1.5420    3.6460 os        1 0EC     -0.208000
     13 C10         0.8100    1.0120    2.3960 c1        1 0EC     -0.069000
     14 N11        -1.9690   -0.6990   -1.5950 n2        1 0EC     -0.216000
     15 C12        -3.3000   -0.2750   -2.0080 c3        1 0EC     -0.073500
     16 C13        -4.1040   -1.4050   -2.6370 c3        1 0EC     -0.094000
     17 N14        -3.4000   -2.0600   -3.6760 n3        1 0EC     -0.276000
     18 C15        -2.0740   -2.4910   -3.2710 c3        1 0EC     -0.094000
     19 C16        -1.2560   -1.3540   -2.6390 c3        1 0EC     -0.073500
     20 C8A         5.2120    0.9170    0.6360 c3        1 0EC     -0.077500
     21 C9A         3.0190    0.6840    4.6090 c3        1 0EC     -0.077500
     22 H7          2.6710    0.3110   -0.8340 ha        1 0EC      0.158000
     23 H10         0.2710    1.1920    3.3020 ha        1 0EC      0.141000
     24 HN14       -3.3310   -1.4700   -4.4330 hn        1 0EC      0.147000
     25 H12        -3.2070    0.4960   -2.6990 h1        1 0EC      0.095000
     26 H12A       -3.7840    0.0530   -1.2210 h1        1 0EC      0.095000
     27 H13        -4.3160   -2.0310   -1.9720 h1        1 0EC      0.101000
     28 H13A       -4.9460   -1.0290   -3.0070 h1        1 0EC      0.101000
     29 HN5        -3.0450    1.5090    1.7050 hn        1 0EC      0.222500
     30 H15        -2.1530   -3.1830   -2.6410 h1        1 0EC      0.101000
     31 HN5A       -2.1430    1.3240    2.8990 hn        1 0EC      0.222500
     32 H15A       -1.5910   -2.8380   -4.0770 h1        1 0EC      0.101000
     33 H16        -1.0430   -0.7370   -3.2870 h1        1 0EC      0.095000
     34 H16A       -0.4660   -1.7100   -2.2910 h1        1 0EC      0.095000
     35 H8A         4.6970    1.4150   -0.0630 h1        1 0EC      0.085167
     36 H8AA        5.7360    0.1970    0.2090 h1        1 0EC      0.085167
     37 H8AB        5.7880    1.5010    1.0720 h1        1 0EC      0.085167
     38 H9A         3.9940    0.9460    4.7980 h1        1 0EC      0.085167
     39 H9AA        2.4830    0.7530    5.4580 h1        1 0EC      0.085167
     40 H9AB        2.9900   -0.2530    4.2690 h1        1 0EC      0.085167
@<TRIPOS>BOND
     1    1    2 1   
     2    1    7 1   
     3    2    3 1   
     4    3    8 1   
     5    4    5 1   
     6    4   13 1   
     7    5    7 1   
     8    6   29 1   
     9    6   31 1   
    10    8   22 1   
    11    9   10 1   
    12    9   11 1   
    13   10   20 1   
    14   11   12 1   
    15   12   21 1   
    16   13   23 1   
    17   14   15 1   
    18   14   19 1   
    19   15   16 1   
    20   15   25 1   
    21   15   26 1   
    22   16   17 1   
    23   16   27 1   
    24   16   28 1   
    25   17   18 1   
    26   17   24 1   
    27   18   19 1   
    28   18   30 1   
    29   18   32 1   
    30   19   33 1   
    31   19   34 1   
    32   20   35 1   
    33   20   36 1   
    34   20   37 1   
    35   21   38 1   
    36   21   39 1   
    37   21   40 1   
@<TRIPOS>SUBSTRUCTURE
     1 0EC         1 TEMP              0 ****  ****    0 ROOT
