@<TRIPOS>MOLECULE
0ED
   91    88     1     0     0
SMALL
bcc


@<TRIPOS>ATOM
      1 C1         -4.5800   -1.5920   -3.1070 c1        1 0ED      0.372000
      2 O1         -3.5360   -1.3370   -3.6980 o         1 0ED     -0.408000
      3 O2         -5.1370   -2.9230   -3.1730 o         1 0ED     -0.296000
      4 C2         -5.1220   -3.6150   -1.9330 c3        1 0ED      0.038000
      5 C3         -5.7790   -5.0250   -2.1130 c2        1 0ED     -0.077000
      6 C4         -6.3020   -5.3940   -3.3400 c1        1 0ED     -0.130000
      7 C5         -6.9130   -6.6310   -3.4910 c1        1 0ED     -0.138750
      8 C6         -7.0030   -7.5200   -2.3830 c1        1 0ED     -0.138750
      9 C7         -6.4830   -7.1520   -1.1640 c1        1 0ED     -0.133000
     10 C8         -5.8680   -5.9070   -1.0150 c2        1 0ED     -0.101000
     11 N          -5.3090   -0.5690   -2.5360 n3        1 0ED     -0.298000
     12 CA         -4.6710    0.6850   -2.2450 c3        1 0ED     -0.052000
     13 CB         -3.6020    0.4730   -1.1270 c3        1 0ED     -0.173000
     14 CG         -3.2180    1.8330   -0.5210 c3        1 0ED     -0.087000
     15 CD         -4.1480    2.1520    0.6300 c2        1 0ED      0.292000
     16 OE1        -4.2060    1.4270    1.5540 o         1 0ED     -0.581000
     17 OE2        -4.8700    3.0780    0.5640 o         1 0ED     -0.581000
     18 N1         -1.8820    1.7820   -0.0530 n3        1 0ED     -0.287000
     19 CA1        -1.8340    1.0620    1.1890 c3        1 0ED     -0.032000
     20 C          -0.4260    1.0590    1.7110 c2        1 0ED      0.267000
     21 O          -0.1280    1.7360    2.7710 o         1 0ED     -0.417000
     22 CB1        -2.2980   -0.3690    0.9620 c3        1 0ED     -0.153000
     23 CG1        -3.1130   -0.8440    2.1830 c3        1 0ED     -0.119000
     24 CD1        -4.5450   -1.1770    1.7490 c3        1 0ED     -0.204000
     25 CD2        -2.4370   -2.1430    2.7850 c3        1 0ED     -0.204000
     26 N2          0.6130    0.2800    1.0140 n         1 0ED     -0.362000
     27 CA2         2.0000    0.7060    1.0670 c3        1 0ED      0.016000
     28 C9          2.8860   -0.3650    0.4490 c2        1 0ED      0.282000
     29 O3          2.6430   -1.4760    0.6200 o         1 0ED     -0.415000
     30 CB2         2.4130    0.9320    2.5150 c3        1 0ED     -0.131000
     31 CG2         3.4100    2.0910    2.5870 c2        1 0ED     -0.064000
     32 CD11        4.6560    1.9000    3.1820 c2        1 0ED     -0.119000
     33 CD21        3.0270    3.3810    2.1530 c1        1 0ED     -0.124000
     34 CE1         5.5240    2.9750    3.3480 c1        1 0ED     -0.143000
     35 CE2         3.8760    4.4370    2.3140 c1        1 0ED     -0.138750
     36 CZ          5.1490    4.2370    2.9220 c1        1 0ED     -0.138750
     37 O11         6.6560    4.2330   -0.3680 os        1 0ED     -0.297000
     38 C21         6.0510    4.1440   -1.4760 c3        1 0ED     -0.033000
     39 C31         5.9880    2.6860   -1.9560 c3        1 0ED     -0.101000
     40 N4          6.2170    1.6590   -0.8060 n3        1 0ED     -0.258000
     41 C51         7.6730    2.1310   -0.4610 c3        1 0ED     -0.101000
     42 C61         7.7280    3.5690    0.0030 c3        1 0ED     -0.033000
     43 C1'         6.2570    0.3140   -1.3450 c3        1 0ED     -0.091000
     44 C2'         5.2250   -0.6080   -0.5420 c3        1 0ED     -0.013000
     45 N2'         3.9100    0.0210   -0.5560 n         1 0ED     -0.333000
     46 H21        -4.2710   -3.7130   -1.6560 h1        1 0ED      0.099500
     47 H22        -5.6210   -3.1070   -1.2720 h1        1 0ED      0.099500
     48 H41        -6.1810   -4.8410   -4.0810 ha        1 0ED      0.130000
     49 H51        -7.2810   -6.8900   -4.3560 ha        1 0ED      0.121000
     50 H61        -7.5390   -8.3510   -2.4600 ha        1 0ED      0.121000
     51 H71        -6.5450   -7.7820   -0.3780 ha        1 0ED      0.131000
     52 H81        -5.5100   -5.6540   -0.1740 ha        1 0ED      0.155000
     53 H          -6.2610   -0.6910   -2.3470 hn        1 0ED      0.226000
     54 HA1        -5.3630    1.3540   -1.9320 h1        1 0ED      0.127500
     55 HA2        -4.2110    1.0400   -3.0900 h1        1 0ED      0.127500
     56 HB1        -3.9810   -0.1220   -0.4050 hc        1 0ED      0.088000
     57 HB2        -2.7720    0.0310   -1.5300 hc        1 0ED      0.088000
     58 HG1        -3.2980    2.5450   -1.2250 h1        1 0ED      0.098000
     59 H1         -1.5740    2.6190    0.0700 hn        1 0ED      0.175000
     60 HA         -2.4260    1.4980    1.8460 h1        1 0ED      0.121000
     61 HB21       -2.8480   -0.4060    0.1730 hc        1 0ED      0.089500
     62 HB3        -1.4970   -0.9690    0.8420 hc        1 0ED      0.089500
     63 HG         -3.1310   -0.1270    2.8700 hc        1 0ED      0.117000
     64 HD11       -5.1000   -0.3060    1.6700 hc        1 0ED      0.068167
     65 HD12       -4.5230   -1.6090    0.9220 hc        1 0ED      0.068167
     66 HD13       -4.9390   -1.7420    2.3860 hc        1 0ED      0.068167
     67 HD21       -3.0530   -2.8790    2.7250 hc        1 0ED      0.068167
     68 HD22       -1.5950   -2.3640    2.2580 hc        1 0ED      0.068167
     69 HD23       -2.2180   -1.9970    3.6680 hc        1 0ED      0.068167
     70 H2          0.3720   -0.4350    0.4820 hn        1 0ED      0.268000
     71 HA3         2.1020    1.5380    0.5670 h1        1 0ED      0.120000
     72 HB22        1.5700    1.1620    3.0880 hc        1 0ED      0.108000
     73 HB31        2.8350    0.1140    2.8660 hc        1 0ED      0.108000
     74 HD1         4.9290    0.9770    3.4980 ha        1 0ED      0.143000
     75 HD2         2.1160    3.5220    1.7130 ha        1 0ED      0.163000
     76 HE1         6.3730    2.8490    3.8040 ha        1 0ED      0.118000
     77 HE21        3.6070    5.3390    2.0130 ha        1 0ED      0.121000
     78 HZ          5.7270    4.9510    3.0320 ha        1 0ED      0.121000
     79 H211        5.0790    4.5090   -1.3660 h1        1 0ED      0.079000
     80 H221        6.5570    4.7240   -2.1960 h1        1 0ED      0.079000
     81 H31         5.1660    2.5330   -2.3290 h1        1 0ED      0.097250
     82 H32         6.7030    2.5450   -2.6650 h1        1 0ED      0.097250
     83 H511        8.2490    2.0350   -1.2820 h1        1 0ED      0.097250
     84 H52         8.0310    1.5600    0.2380 h1        1 0ED      0.097250
     85 H611        7.7920    3.5860    0.9750 h1        1 0ED      0.079000
     86 H62         8.5050    3.9910   -0.3730 h1        1 0ED      0.079000
     87 H1'1        7.1700   -0.0500   -1.2510 h1        1 0ED      0.104500
     88 H1'2        6.0110    0.3310   -2.2820 h1        1 0ED      0.104500
     89 H2'1        5.1710   -1.5160   -0.9850 h1        1 0ED      0.077000
     90 H2'2        5.5160   -0.7080    0.3450 h1        1 0ED      0.077000
     91 HN21        3.6680    0.5720   -1.2770 hn        1 0ED      0.281000
@<TRIPOS>BOND
     1    1    2 1   
     2    1   11 1   
     3    3    4 1   
     4    4    5 1   
     5    4   46 1   
     6    4   47 1   
     7    5    6 1   
     8    5   10 1   
     9    6   48 1   
    10    7    8 1   
    11    7   49 1   
    12    8   50 1   
    13    9   10 1   
    14    9   51 1   
    15   10   52 1   
    16   11   12 1   
    17   11   53 1   
    18   12   13 1   
    19   12   54 1   
    20   12   55 1   
    21   13   14 1   
    22   13   56 1   
    23   13   57 1   
    24   14   15 1   
    25   14   18 1   
    26   14   58 1   
    27   15   16 1   
    28   15   17 1   
    29   18   19 1   
    30   18   59 1   
    31   19   20 1   
    32   19   22 1   
    33   19   60 1   
    34   20   21 1   
    35   20   26 1   
    36   22   23 1   
    37   22   61 1   
    38   22   62 1   
    39   23   24 1   
    40   23   25 1   
    41   23   63 1   
    42   24   64 1   
    43   24   65 1   
    44   24   66 1   
    45   25   67 1   
    46   25   68 1   
    47   25   69 1   
    48   26   27 1   
    49   26   70 1   
    50   27   28 1   
    51   27   30 1   
    52   27   71 1   
    53   28   29 1   
    54   28   45 1   
    55   30   31 1   
    56   30   72 1   
    57   30   73 1   
    58   31   32 1   
    59   31   33 1   
    60   32   34 1   
    61   32   74 1   
    62   33   75 1   
    63   34   76 1   
    64   35   36 1   
    65   35   77 1   
    66   36   78 1   
    67   37   38 1   
    68   37   42 1   
    69   38   39 1   
    70   38   79 1   
    71   38   80 1   
    72   39   40 1   
    73   39   81 1   
    74   39   82 1   
    75   40   41 1   
    76   40   43 1   
    77   41   42 1   
    78   41   83 1   
    79   41   84 1   
    80   42   85 1   
    81   42   86 1   
    82   43   44 1   
    83   43   87 1   
    84   43   88 1   
    85   44   45 1   
    86   44   89 1   
    87   44   90 1   
    88   45   91 1   
@<TRIPOS>SUBSTRUCTURE
     1 0ED         1 TEMP              0 ****  ****    0 ROOT
