@<TRIPOS>MOLECULE
0ED
   91    93     1     0     0
SMALL
bcc


@<TRIPOS>ATOM
      1 C1          5.7900   -1.2380   -0.1890 c         1 0ED      0.721100
      2 O1          5.4020   -2.2800    0.3650 o         1 0ED     -0.589000
      3 O2          7.0640   -0.7790    0.1270 os        1 0ED     -0.459900
      4 C2          7.8120   -1.6360    1.0040 c3        1 0ED      0.194700
      5 C3          9.1450   -1.0100    1.2390 ca        1 0ED     -0.084300
      6 C4          9.3320    0.3730    1.1550 ca        1 0ED     -0.114500
      7 C5         10.5860    0.9270    1.4140 ca        1 0ED     -0.134000
      8 C6         11.6560    0.1040    1.7620 ca        1 0ED     -0.134000
      9 C7         11.4730   -1.2760    1.8460 ca        1 0ED     -0.134000
     10 C8         10.2240   -1.8340    1.5830 ca        1 0ED     -0.114500
     11 N           5.1840   -0.4840   -1.1750 n         1 0ED     -0.499900
     12 CA          3.7380   -0.4870   -1.2890 c3        1 0ED      0.069000
     13 CB          3.0690    0.8020   -0.8210 c3        1 0ED     -0.089400
     14 CG          1.6200    0.8840   -1.3090 c3        1 0ED      0.052500
     15 CD          1.0830    2.3270   -1.0620 c         1 0ED      0.887600
     16 OE1        -0.0640    2.6060   -1.5300 o         1 0ED     -0.842300
     17 OE2         1.7900    3.1490   -0.4220 o         1 0ED     -0.842300
     18 N1          0.8020   -0.1750   -0.7240 n3        1 0ED     -0.815200
     19 CA1        -0.4970   -0.3570   -1.3560 c3        1 0ED      0.125500
     20 C          -1.6660   -0.1940   -0.3520 c         1 0ED      0.639100
     21 O          -2.1720   -1.1810    0.2330 o         1 0ED     -0.672100
     22 CB1        -0.6430   -1.7550   -1.9820 c3        1 0ED     -0.061400
     23 CG1         0.3070   -1.9950   -3.1430 c3        1 0ED     -0.066700
     24 CD1         0.2970   -3.4660   -3.5130 c3        1 0ED     -0.090100
     25 CD2        -0.0560   -1.1540   -4.3500 c3        1 0ED     -0.090100
     26 N2         -2.1420    1.0770   -0.1520 n         1 0ED     -0.556900
     27 CA2        -3.1690    1.3780    0.8090 c3        1 0ED      0.053700
     28 C9         -4.6020    1.1560    0.2470 c         1 0ED      0.641100
     29 O3         -5.4650    2.0580    0.2800 o         1 0ED     -0.638100
     30 CB2        -3.0910    2.8230    1.3390 c3        1 0ED     -0.036100
     31 CG2        -1.8970    3.0390    2.1970 ca        1 0ED     -0.101300
     32 CD11       -0.6670    3.3820    1.6260 ca        1 0ED     -0.124500
     33 CD21       -1.9980    2.9180    3.5890 ca        1 0ED     -0.124500
     34 CE1         0.4520    3.5830    2.4360 ca        1 0ED     -0.133000
     35 CE2        -0.8830    3.1330    4.3960 ca        1 0ED     -0.133000
     36 CZ          0.3440    3.4630    3.8210 ca        1 0ED     -0.146000
     37 O11       -11.0530   -2.3490   -0.2300 os        1 0ED     -0.422600
     38 C21       -10.1290   -3.4070   -0.0020 c3        1 0ED      0.126900
     39 C31        -8.7900   -2.8890    0.5320 c3        1 0ED      0.130800
     40 N4         -8.2190   -1.8450   -0.3110 n3        1 0ED     -0.722600
     41 C51        -9.1910   -0.7980   -0.6010 c3        1 0ED      0.130800
     42 C61       -10.5270   -1.3560   -1.1030 c3        1 0ED      0.126900
     43 C1'        -6.9800   -1.3250    0.2540 c3        1 0ED      0.138800
     44 C2'        -6.1890   -0.4460   -0.7480 c3        1 0ED      0.092000
     45 N2'        -4.8870   -0.0890   -0.2690 n         1 0ED     -0.568900
     46 H21         7.2470   -1.7430    1.9700 h1        1 0ED      0.061700
     47 H22         7.9090   -2.6470    0.5240 h1        1 0ED      0.061700
     48 H41         8.4840    1.0180    0.8760 ha        1 0ED      0.142000
     49 H51        10.7270    2.0150    1.3440 ha        1 0ED      0.127500
     50 H61        12.6430    0.5420    1.9680 ha        1 0ED      0.124000
     51 H71        12.3160   -1.9270    2.1190 ha        1 0ED      0.127500
     52 H81        10.0830   -2.9230    1.6450 ha        1 0ED      0.142000
     53 H           5.6240    0.3930   -1.3660 hn        1 0ED      0.305500
     54 HA1         3.5140   -0.6450   -2.3840 h1        1 0ED      0.070200
     55 HA2         3.3200   -1.3650   -0.7200 h1        1 0ED      0.070200
     56 HB1         3.1020    0.8810    0.2960 hc        1 0ED      0.059200
     57 HB2         3.5980    1.7050   -1.2280 hc        1 0ED      0.059200
     58 HG1         1.6130    0.7280   -2.4290 h1        1 0ED      0.047700
     59 H1          0.7060   -0.0290    0.2630 hn        1 0ED      0.366800
     60 HA         -0.6400    0.4130   -2.1790 h1        1 0ED      0.097700
     61 HB21       -0.4750   -2.5330   -1.1920 hc        1 0ED      0.046700
     62 HB3        -1.7020   -1.8600   -2.3370 hc        1 0ED      0.046700
     63 HG          1.3520   -1.7200   -2.8200 hc        1 0ED      0.065700
     64 HD11       -0.7280   -3.7860   -3.8190 hc        1 0ED      0.028533
     65 HD12        0.9960   -3.6580   -4.3620 hc        1 0ED      0.028533
     66 HD13        0.6170   -4.0870   -2.6430 hc        1 0ED      0.028533
     67 HD21        0.0640   -0.0670   -4.1200 hc        1 0ED      0.028533
     68 HD22        0.6080   -1.4070   -5.2120 hc        1 0ED      0.028533
     69 HD23       -1.1150   -1.3370   -4.6540 hc        1 0ED      0.028533
     70 H2         -1.6670    1.8510   -0.5900 hn        1 0ED      0.380500
     71 HA3        -3.0670    0.6650    1.6850 h1        1 0ED      0.077700
     72 HB22       -3.0830    3.5410    0.4750 hc        1 0ED      0.070200
     73 HB31       -4.0290    3.0190    1.9240 hc        1 0ED      0.070200
     74 HD1        -0.5500    3.4790    0.5260 ha        1 0ED      0.155500
     75 HD2        -2.9630    2.6520    4.0450 ha        1 0ED      0.155500
     76 HE1         1.4150    3.8180    1.9500 ha        1 0ED      0.140500
     77 HE21       -0.9720    3.0370    5.4870 ha        1 0ED      0.140500
     78 HZ          1.2250    3.6220    4.4580 ha        1 0ED      0.116000
     79 H31        -8.9440   -2.5320    1.5930 h1        1 0ED      0.043450
     80 H32        -8.0620   -3.7470    0.5580 h1        1 0ED      0.043450
     81 H511       -9.3900   -0.1520    0.3030 h1        1 0ED      0.043450
     82 H52        -8.7580   -0.1420   -1.4070 h1        1 0ED      0.043450
     83 H611      -10.4140   -1.7890   -2.1320 h1        1 0ED      0.048950
     84 H62       -11.3050   -0.5480   -1.1080 h1        1 0ED      0.048950
     85 H1'1       -7.1690   -0.7240    1.1900 h1        1 0ED      0.039700
     86 H1'2       -6.3440   -2.2110    0.5390 h1        1 0ED      0.039700
     87 H2'1       -6.0670   -1.0120   -1.7150 h1        1 0ED      0.061200
     88 H2'2       -6.7710    0.4970   -0.9530 h1        1 0ED      0.061200
     89 HN21       -4.2100   -0.8160   -0.1880 hn        1 0ED      0.342500
     90 H211      -10.6280   -4.0530    0.7670 h1        1 0ED      0.048950
     91 H221       -9.9810   -3.9840   -0.9530 h1        1 0ED      0.048950
@<TRIPOS>BOND
     1    1    2 2   
     2    1    3 1   
     3    1   11 1   
     4    3    4 1   
     5    4    5 1   
     6    4   46 1   
     7    4   47 1   
     8    5    6 ar  
     9    5   10 ar  
    10    6    7 ar  
    11    6   48 1   
    12    7    8 ar  
    13    7   49 1   
    14    8    9 ar  
    15    8   50 1   
    16    9   10 ar  
    17    9   51 1   
    18   10   52 1   
    19   11   12 1   
    20   11   53 1   
    21   12   13 1   
    22   12   54 1   
    23   12   55 1   
    24   13   14 1   
    25   13   56 1   
    26   13   57 1   
    27   14   15 1   
    28   14   18 1   
    29   14   58 1   
    30   15   16 1   
    31   15   17 1   
    32   18   19 1   
    33   18   59 1   
    34   19   20 1   
    35   19   22 1   
    36   19   60 1   
    37   20   21 2   
    38   20   26 1   
    39   22   23 1   
    40   22   61 1   
    41   22   62 1   
    42   23   24 1   
    43   23   25 1   
    44   23   63 1   
    45   24   64 1   
    46   24   65 1   
    47   24   66 1   
    48   25   67 1   
    49   25   68 1   
    50   25   69 1   
    51   26   27 1   
    52   26   70 1   
    53   27   28 1   
    54   27   30 1   
    55   27   71 1   
    56   28   29 2   
    57   28   45 1   
    58   30   31 1   
    59   30   72 1   
    60   30   73 1   
    61   31   32 ar  
    62   31   33 ar  
    63   32   34 ar  
    64   32   74 1   
    65   33   35 ar  
    66   33   75 1   
    67   34   36 ar  
    68   34   76 1   
    69   35   36 ar  
    70   35   77 1   
    71   36   78 1   
    72   37   38 1   
    73   37   42 1   
    74   38   39 1   
    75   38   90 1   
    76   38   91 1   
    77   39   40 1   
    78   39   79 1   
    79   39   80 1   
    80   40   41 1   
    81   40   43 1   
    82   41   42 1   
    83   41   81 1   
    84   41   82 1   
    85   42   83 1   
    86   42   84 1   
    87   43   44 1   
    88   43   85 1   
    89   43   86 1   
    90   44   45 1   
    91   44   87 1   
    92   44   88 1   
    93   45   89 1   
@<TRIPOS>SUBSTRUCTURE
     1 0ED         1 TEMP              0 ****  ****    0 ROOT
