@<TRIPOS>MOLECULE
0EF
   63    64     1     0     0
SMALL
bcc


@<TRIPOS>ATOM
      1 O1          5.6070    0.0570    1.2450 o         1 0EF     -0.603000
      2 C           5.2850    0.4810    0.1220 c         1 0EF      0.740100
      3 O2          6.1500    1.2740   -0.6030 os        1 0EF     -0.451900
      4 CT          7.5160    1.4320   -0.1500 c3        1 0EF      0.186800
      5 C1          8.2140    0.0860   -0.0410 c3        1 0EF     -0.113100
      6 C2          8.1480    2.2670   -1.2650 c3        1 0EF     -0.113100
      7 C3          7.5610    2.1920    1.1660 c3        1 0EF     -0.113100
      8 N           4.1280    0.2110   -0.5850 n         1 0EF     -0.512900
      9 CA          2.9560   -0.2510    0.1340 c3        1 0EF      0.031700
     10 C4          1.8570   -0.6730   -0.8740 c         1 0EF      0.676100
     11 O           1.6740   -0.0090   -1.9140 o         1 0EF     -0.613100
     12 CB          2.3100    0.7870    1.0540 c3        1 0EF     -0.129100
     13 N1          1.1120   -1.7960   -0.5940 n         1 0EF     -0.444800
     14 CA1        -0.2080   -2.0150   -1.1770 c3        1 0EF      0.025700
     15 C5         -1.2660   -0.9640   -0.7520 c         1 0EF      0.637100
     16 O3         -1.0180   -0.1090    0.1270 o         1 0EF     -0.641100
     17 CB1        -0.6650   -3.4070   -0.6810 c3        1 0EF     -0.106400
     18 CG          0.2070   -3.7230    0.5310 c3        1 0EF     -0.082400
     19 CD          1.3150   -2.6550    0.5590 c3        1 0EF      0.087000
     20 N2         -2.4640   -1.0040   -1.4390 n         1 0EF     -0.539900
     21 CA2        -3.6890   -0.4920   -0.7620 c3        1 0EF      0.251100
     22 CB2        -3.8030    1.0400   -1.0280 c3        1 0EF     -0.053100
     23 CG1        -4.8380    1.6660   -0.1650 ca        1 0EF     -0.048300
     24 CD1        -4.4930    2.1620    1.0990 ca        1 0EF     -0.118500
     25 CD2        -6.1620    1.7820   -0.6050 ca        1 0EF     -0.118500
     26 CE1        -5.4530    2.7730    1.9020 ca        1 0EF     -0.137000
     27 CE2        -7.1210    2.3930    0.2010 ca        1 0EF     -0.137000
     28 CZ         -6.7680    2.8930    1.4540 ca        1 0EF     -0.147000
     29 NHO        -4.9040   -1.1940   -1.0950 n         1 0EF     -0.588900
     30 C6         -4.8930   -2.6510   -1.1170 c         1 0EF      0.986600
     31 O4         -3.9430   -3.2660   -0.5410 o         1 0EF     -0.838800
     32 OXT        -5.8510   -3.2020   -1.7280 o         1 0EF     -0.838800
     33 H11         8.0810   -0.4910   -0.9870 hc        1 0EF      0.049256
     34 H12         9.3030    0.2460    0.1390 hc        1 0EF      0.049256
     35 H13         7.7880   -0.5060    0.8050 hc        1 0EF      0.049256
     36 H21         7.6080    3.2370   -1.3700 hc        1 0EF      0.049256
     37 H22         9.2160    2.4630   -1.0120 hc        1 0EF      0.049256
     38 H23         8.0910    1.7190   -2.2340 hc        1 0EF      0.049256
     39 H31         7.1410    1.5670    1.9900 hc        1 0EF      0.049256
     40 H32         8.6180    2.4530    1.4080 hc        1 0EF      0.049256
     41 H33         6.9620    3.1300    1.0850 hc        1 0EF      0.049256
     42 H           3.9520    0.7530   -1.4060 hn        1 0EF      0.333500
     43 HA          3.2980   -1.1270    0.7630 h1        1 0EF      0.085700
     44 HB1         2.0400    1.7100    0.4850 hc        1 0EF      0.060033
     45 HB2         1.3710    0.3600    1.4860 hc        1 0EF      0.060033
     46 HB3         3.0120    1.0550    1.8790 hc        1 0EF      0.060033
     47 HA1        -0.1030   -1.9830   -2.2990 h1        1 0EF      0.086700
     48 HB21       -1.7590   -3.4210   -0.4170 hc        1 0EF      0.095200
     49 HB31       -0.5020   -4.1600   -1.4910 hc        1 0EF      0.095200
     50 HG2        -0.3940   -3.6760    1.4720 hc        1 0EF      0.052200
     51 HG3         0.6510   -4.7440    0.4520 hc        1 0EF      0.052200
     52 HD2         2.3320   -3.1310    0.4880 h1        1 0EF      0.039200
     53 HD3         1.2660   -2.0620    1.5150 h1        1 0EF      0.039200
     54 H1         -2.6170   -1.8460   -1.9610 hn        1 0EF      0.309500
     55 HA2        -3.5250   -0.6320    0.3560 h2        1 0EF      0.070700
     56 HB22       -2.8020    1.5020   -0.8080 hc        1 0EF      0.056200
     57 HB32       -4.0380    1.2250   -2.1090 hc        1 0EF      0.056200
     58 HD1        -3.4570    2.0550    1.4560 ha        1 0EF      0.136500
     59 HD21       -6.4480    1.3690   -1.5840 ha        1 0EF      0.136500
     60 HE1        -5.1730    3.1550    2.8940 ha        1 0EF      0.118000
     61 HE2        -8.1600    2.4720   -0.1490 ha        1 0EF      0.118000
     62 HZ         -7.5250    3.3720    2.0900 ha        1 0EF      0.114000
     63 HN         -5.4000   -0.8010   -1.8650 hn        1 0EF      0.251500
@<TRIPOS>BOND
     1    1    2 2   
     2    2    3 1   
     3    2    8 1   
     4    3    4 1   
     5    4    5 1   
     6    4    6 1   
     7    4    7 1   
     8    5   33 1   
     9    5   34 1   
    10    5   35 1   
    11    6   36 1   
    12    6   37 1   
    13    6   38 1   
    14    7   39 1   
    15    7   40 1   
    16    7   41 1   
    17    8    9 1   
    18    8   42 1   
    19    9   10 1   
    20    9   12 1   
    21    9   43 1   
    22   10   11 2   
    23   10   13 1   
    24   12   44 1   
    25   12   45 1   
    26   12   46 1   
    27   13   14 1   
    28   13   19 1   
    29   14   15 1   
    30   14   17 1   
    31   14   47 1   
    32   15   16 2   
    33   15   20 1   
    34   17   18 1   
    35   17   48 1   
    36   17   49 1   
    37   18   19 1   
    38   18   50 1   
    39   18   51 1   
    40   19   52 1   
    41   19   53 1   
    42   20   21 1   
    43   20   54 1   
    44   21   22 1   
    45   21   29 1   
    46   21   55 1   
    47   22   23 1   
    48   22   56 1   
    49   22   57 1   
    50   23   24 ar  
    51   23   25 ar  
    52   24   26 ar  
    53   24   58 1   
    54   25   27 ar  
    55   25   59 1   
    56   26   28 ar  
    57   26   60 1   
    58   27   28 ar  
    59   27   61 1   
    60   28   62 1   
    61   29   30 1   
    62   29   63 1   
    63   30   31 1   
    64   30   32 1   
@<TRIPOS>SUBSTRUCTURE
     1 0EF         1 TEMP              0 ****  ****    0 ROOT
