@<TRIPOS>MOLECULE
0EF
   63    61     1     0     0
SMALL
bcc


@<TRIPOS>ATOM
      1 O1         -2.8740    1.5060    4.6480 o         1 0EF     -0.412000
      2 C          -1.7030    1.4070    4.7440 c1        1 0EF      0.388000
      3 O2         -1.1260    0.7290    5.9020 o         1 0EF     -0.285000
      4 CT         -1.6730    1.1420    7.1340 c3        1 0EF      0.114000
      5 C1         -0.8080    0.5990    8.2840 c3        1 0EF     -0.231000
      6 C2         -3.0910    0.5930    7.2730 c3        1 0EF     -0.231000
      7 C3         -1.6980    2.6500    7.1950 c3        1 0EF     -0.231000
      8 N          -0.8330    1.7710    3.5910 n3        1 0EF     -0.306000
      9 CA         -1.2870    1.5740    2.2700 c3        1 0EF     -0.006000
     10 C4         -0.1640    0.9980    1.4440 c2        1 0EF      0.292000
     11 O           0.9140    1.4910    1.4890 o         1 0EF     -0.378000
     12 CB         -1.7250    2.9080    1.6800 c3        1 0EF     -0.217000
     13 N1         -0.3830   -0.2500    0.6520 n         1 0EF     -0.303000
     14 CA1         0.7140   -1.0460   -0.1950 c3        1 0EF      0.000000
     15 C5          0.6510   -0.5970   -1.6330 c2        1 0EF      0.281000
     16 O3         -0.2890    0.0410   -2.0180 o         1 0EF     -0.403000
     17 CB1         0.3580   -2.3580   -0.0030 c3        1 0EF     -0.185000
     18 CG         -1.1070   -2.3490    0.2640 c3        1 0EF     -0.161000
     19 CD         -1.4920   -0.8840    0.5160 c3        1 0EF     -0.030000
     20 N2          1.8050   -0.8020   -2.5200 n         1 0EF     -0.349000
     21 CA2         1.6080   -0.9560   -3.9000 c3        1 0EF      0.137000
     22 CB2         2.9500   -0.6640   -4.6540 c3        1 0EF     -0.139000
     23 CG1         2.6800   -0.4790   -6.1520 c2        1 0EF     -0.041000
     24 CD1         2.7440    0.7890   -6.7090 c2        1 0EF     -0.125000
     25 CD2         2.4660   -1.5900   -6.9680 c1        1 0EF     -0.112000
     26 CE1         2.5930    0.9540   -8.0950 c1        1 0EF     -0.139000
     27 CE2         2.3170   -1.4280   -8.3400 c1        1 0EF     -0.141000
     28 CZ          2.3800   -0.1500   -8.9030 c1        1 0EF     -0.141000
     29 NHO         1.1970   -2.2620   -4.1590 n         1 0EF     -0.398000
     30 C6         -0.0770   -2.5090   -4.8690 c2        1 0EF      0.389000
     31 O4         -1.0710   -1.7970   -4.6250 o         1 0EF     -0.573500
     32 OXT        -0.2060   -3.5810   -5.6450 o         1 0EF     -0.573500
     33 H11        -0.6710   -0.3760    8.1590 hc        1 0EF      0.088778
     34 H12         0.1370    1.0950    8.2860 hc        1 0EF      0.088778
     35 H13        -1.2690    0.7610    9.1550 hc        1 0EF      0.088778
     36 H21        -3.3120    0.4500    8.3020 hc        1 0EF      0.088778
     37 H22        -3.7510    1.2500    6.8710 hc        1 0EF      0.088778
     38 H23        -3.1540   -0.2400    6.8180 hc        1 0EF      0.088778
     39 H31        -0.8260    3.0070    6.8750 hc        1 0EF      0.088778
     40 H32        -2.4190    2.9910    6.6270 hc        1 0EF      0.088778
     41 H33        -1.8430    2.9260    8.0890 hc        1 0EF      0.088778
     42 H           0.0170    2.1940    3.7460 hn        1 0EF      0.240000
     43 HA         -2.0440    0.9510    2.2730 h1        1 0EF      0.134000
     44 HB1        -2.6170    2.8420    1.3830 hc        1 0EF      0.097000
     45 HB2        -1.6530    3.6600    2.4150 hc        1 0EF      0.097000
     46 HB3        -1.1730    3.1240    0.9610 hc        1 0EF      0.097000
     47 HA1         1.7150   -0.8890    0.0300 h1        1 0EF      0.126000
     48 HB21        0.8290   -2.7250    0.7470 hc        1 0EF      0.134500
     49 HB31        0.5390   -2.8580   -0.7710 hc        1 0EF      0.134500
     50 HG2        -1.3030   -2.8740    1.0270 hc        1 0EF      0.091500
     51 HG3        -1.5970   -2.7000   -0.5320 hc        1 0EF      0.091500
     52 HD2        -2.0160   -0.8120    1.3240 h1        1 0EF      0.079500
     53 HD3        -2.0220   -0.5130   -0.2870 h1        1 0EF      0.079500
     54 H1          2.5910   -0.7860   -2.2050 hn        1 0EF      0.223000
     55 HA2         0.9290   -0.3380   -4.2000 h2        1 0EF      0.110000
     56 HB22        3.5660   -1.4140   -4.5220 hc        1 0EF      0.095000
     57 HB32        3.3580    0.1680   -4.2910 hc        1 0EF      0.095000
     58 HD1         3.0060    1.5350   -6.1650 ha        1 0EF      0.139000
     59 HD21        2.4110   -2.4590   -6.5840 ha        1 0EF      0.134000
     60 HE1         2.6360    1.8350   -8.4850 ha        1 0EF      0.117000
     61 HE2         2.1550   -2.2690   -8.9570 ha        1 0EF      0.116500
     62 HZ          2.2790   -0.0410   -9.8320 ha        1 0EF      0.116500
     63 HN          1.7330   -2.9420   -3.9580 hn        1 0EF      0.165000
@<TRIPOS>BOND
     1    1    2 1   
     2    2    8 1   
     3    3    4 1   
     4    4    5 1   
     5    4    6 1   
     6    4    7 1   
     7    5   33 1   
     8    5   34 1   
     9    5   35 1   
    10    6   36 1   
    11    6   37 1   
    12    6   38 1   
    13    7   39 1   
    14    7   40 1   
    15    7   41 1   
    16    8    9 1   
    17    8   42 1   
    18    9   10 1   
    19    9   12 1   
    20    9   43 1   
    21   10   11 1   
    22   10   13 1   
    23   12   44 1   
    24   12   45 1   
    25   12   46 1   
    26   13   14 1   
    27   13   19 1   
    28   14   15 1   
    29   14   17 1   
    30   14   47 1   
    31   15   16 1   
    32   15   20 1   
    33   17   18 1   
    34   17   48 1   
    35   17   49 1   
    36   18   19 1   
    37   18   50 1   
    38   18   51 1   
    39   19   52 1   
    40   19   53 1   
    41   20   21 1   
    42   20   54 1   
    43   21   22 1   
    44   21   29 1   
    45   21   55 1   
    46   22   23 1   
    47   22   56 1   
    48   22   57 1   
    49   23   24 1   
    50   23   25 1   
    51   24   26 1   
    52   24   58 1   
    53   25   59 1   
    54   26   60 1   
    55   27   28 1   
    56   27   61 1   
    57   28   62 1   
    58   29   30 1   
    59   29   63 1   
    60   30   31 1   
    61   30   32 1   
@<TRIPOS>SUBSTRUCTURE
     1 0EF         1 TEMP              0 ****  ****    0 ROOT
