@<TRIPOS>MOLECULE
0EH
   33    31     1     0     0
SMALL
bcc


@<TRIPOS>ATOM
      1 OAD         2.0460   -4.1650    1.4930 o         1 0EH     -0.809500
      2 CAE         0.8200   -4.1780    1.2080 c1        1 0EH      0.778000
      3 CAF         0.2800   -3.2390    0.1520 c2        1 0EH      0.121300
      4 CAA        -0.9240   -3.8670   -0.5140 c3        1 0EH     -0.137400
      5 CAB        -0.1270   -1.9340    0.7980 c3        1 0EH     -0.130700
      6 NAC         1.2850   -2.9920   -0.8230 nh        1 0EH     -0.469100
      7 CAO         0.1380   -0.7930   -0.1600 c3        1 0EH     -0.074400
      8 CAP        -0.1900    0.5200    0.5170 c3        1 0EH     -0.080400
      9 CAQ         0.0590    1.6600   -0.4460 c3        1 0EH     -0.078400
     10 CAR        -0.3160    2.9690    0.2130 c3        1 0EH     -0.079400
     11 CAS        -0.0050    4.1140   -0.7250 c3        1 0EH     -0.080400
     12 CAT        -0.4120    5.4200   -0.0790 c3        1 0EH     -0.090100
     13 H2         -0.6900   -4.7660   -0.8290 hc        1 0EH      0.021033
     14 H3         -1.2020   -3.3160   -1.2750 hc        1 0EH      0.021033
     15 H4         -1.6590   -3.9280    0.1320 hc        1 0EH      0.021033
     16 H5          0.3920   -1.8000    1.6160 hc        1 0EH      0.043700
     17 H6         -1.0790   -1.9610    1.0170 hc        1 0EH      0.043700
     18 H7          1.1240   -3.5060   -1.5640 hn        1 0EH      0.175700
     19 H8          2.1050   -3.2050   -0.4760 hn        1 0EH      0.175700
     20 H10        -0.4210   -0.8980   -0.9550 hc        1 0EH      0.037200
     21 H11         1.0810   -0.7980   -0.4200 hc        1 0EH      0.037200
     22 H12        -1.1300    0.5210    0.7870 hc        1 0EH      0.033700
     23 H13         0.3770    0.6310    1.3070 hc        1 0EH      0.033700
     24 H14         1.0060    1.6780   -0.6910 hc        1 0EH      0.035200
     25 H15        -0.4830    1.5320   -1.2500 hc        1 0EH      0.035200
     26 H16        -1.2730    2.9670    0.4200 hc        1 0EH      0.036700
     27 H17         0.1950    3.0760    1.0400 hc        1 0EH      0.036700
     28 H18        -0.5000    3.9950   -1.5600 hc        1 0EH      0.035700
     29 H19         0.9550    4.1290   -0.9140 hc        1 0EH      0.035700
     30 H20        -1.3850    5.4360    0.0400 hc        1 0EH      0.027033
     31 H21        -0.1400    6.1670   -0.6530 hc        1 0EH      0.027033
     32 H22         0.0260    5.5030    0.7940 hc        1 0EH      0.027033
     33 O1          0.0440   -4.9720    1.8000 o         1 0EH     -0.809500
@<TRIPOS>BOND
     1    1    2 2   
     2    2   33 2   
     3    3    4 1   
     4    3    5 1   
     5    3    6 2   
     6    4   13 1   
     7    4   14 1   
     8    4   15 1   
     9    5    7 1   
    10    5   16 1   
    11    5   17 1   
    12    6   18 1   
    13    6   19 1   
    14    7    8 1   
    15    7   20 1   
    16    7   21 1   
    17    8    9 1   
    18    8   22 1   
    19    8   23 1   
    20    9   10 1   
    21    9   24 1   
    22    9   25 1   
    23   10   11 1   
    24   10   26 1   
    25   10   27 1   
    26   11   12 1   
    27   11   28 1   
    28   11   29 1   
    29   12   30 1   
    30   12   31 1   
    31   12   32 1   
@<TRIPOS>SUBSTRUCTURE
     1 0EH         1 TEMP              0 ****  ****    0 ROOT
