@<TRIPOS>MOLECULE
0EH
   33    32     1     0     0
SMALL
bcc


@<TRIPOS>ATOM
      1 OAD        -3.4580   -1.5860    0.7570 o         1 0EH     -0.841300
      2 CAE        -3.4670   -0.6150   -0.0480 c         1 0EH      0.891600
      3 CAF        -2.2970    0.4450    0.0680 c3        1 0EH      0.024200
      4 CAA        -2.3920    1.0310    1.4790 c3        1 0EH     -0.062100
      5 CAB        -0.9920   -0.3560   -0.0770 c3        1 0EH     -0.055400
      6 NAC        -2.3940    1.5040   -0.9470 n3        1 0EH     -0.882800
      7 CAO         0.2680    0.4690    0.0570 c3        1 0EH     -0.074400
      8 CAP         1.5030   -0.3960   -0.0980 c3        1 0EH     -0.080400
      9 CAQ         2.7710    0.4180    0.0480 c3        1 0EH     -0.078400
     10 CAR         4.0040   -0.4450   -0.1110 c3        1 0EH     -0.079400
     11 CAS         5.2720    0.3690    0.0360 c3        1 0EH     -0.080400
     12 CAT         6.5030   -0.4860   -0.1210 c3        1 0EH     -0.090100
     13 H2         -2.3000    0.1970    2.2140 hc        1 0EH      0.021033
     14 H3         -1.5910    1.7850    1.6700 hc        1 0EH      0.021033
     15 H4         -3.3840    1.5230    1.6260 hc        1 0EH      0.021033
     16 H5         -1.0120   -1.1580    0.7080 hc        1 0EH      0.043700
     17 H6         -0.9930   -0.8690   -1.0750 hc        1 0EH      0.043700
     18 H7         -2.3800    1.0530   -1.8460 hn        1 0EH      0.330800
     19 H8         -3.3080    1.9140   -0.8550 hn        1 0EH      0.330800
     20 H10         0.2830    1.2820   -0.7150 hc        1 0EH      0.037200
     21 H11         0.2890    0.9680    1.0620 hc        1 0EH      0.037200
     22 H12         1.4890   -1.2120    0.6720 hc        1 0EH      0.033700
     23 H13         1.4890   -0.8920   -1.1040 hc        1 0EH      0.033700
     24 H14         2.7820    1.2360   -0.7200 hc        1 0EH      0.035200
     25 H15         2.7850    0.9130    1.0550 hc        1 0EH      0.035200
     26 H16         3.9920   -1.2620    0.6580 hc        1 0EH      0.036700
     27 H17         3.9900   -0.9390   -1.1180 hc        1 0EH      0.036700
     28 H18         5.2810    1.1870   -0.7320 hc        1 0EH      0.035700
     29 H19         5.2840    0.8640    1.0440 hc        1 0EH      0.035700
     30 H20         6.5230   -1.2930    0.6510 hc        1 0EH      0.027033
     31 H21         6.5210   -0.9680   -1.1290 hc        1 0EH      0.027033
     32 H22         7.4260    0.1330   -0.0090 hc        1 0EH      0.027033
     33 O1         -4.3450   -0.4300   -0.9380 o         1 0EH     -0.841300
@<TRIPOS>BOND
     1    1    2 1   
     2    2    3 1   
     3    2   33 1   
     4    3    4 1   
     5    3    5 1   
     6    3    6 1   
     7    4   13 1   
     8    4   14 1   
     9    4   15 1   
    10    5    7 1   
    11    5   16 1   
    12    5   17 1   
    13    6   18 1   
    14    6   19 1   
    15    7    8 1   
    16    7   20 1   
    17    7   21 1   
    18    8    9 1   
    19    8   22 1   
    20    8   23 1   
    21    9   10 1   
    22    9   24 1   
    23    9   25 1   
    24   10   11 1   
    25   10   26 1   
    26   10   27 1   
    27   11   12 1   
    28   11   28 1   
    29   11   29 1   
    30   12   30 1   
    31   12   31 1   
    32   12   32 1   
@<TRIPOS>SUBSTRUCTURE
     1 0EH         1 TEMP              0 ****  ****    0 ROOT
