@<TRIPOS>MOLECULE
0EN
   65    67     1     0     0
SMALL
bcc


@<TRIPOS>ATOM
      1 O1          3.0140    1.4900   -0.0230 o         1 0EN     -0.461100
      2 C1          2.1780    0.5950    0.0560 c         1 0EN      0.521600
      3 C4          1.0880    0.4910    0.9700 cc        1 0EN      0.063200
      4 C5          0.5840    1.4190    1.8900 cd        1 0EN     -0.033300
      5 C6         -0.5290    0.7900    2.5370 cd        1 0EN     -0.273300
      6 C7         -0.6510   -0.4820    1.9880 cc        1 0EN      0.379600
      7 O3          0.3230   -0.6960    1.0250 os        1 0EN     -0.375800
      8 N1          2.3390   -0.5810   -0.9320 n4        1 0EN     -0.457600
      9 C8          1.4750   -0.3740   -2.1030 ca        1 0EN     -0.080400
     10 C9          1.3230    0.9010   -2.6760 ca        1 0EN     -0.098000
     11 C10         0.4490    1.0690   -3.7440 ca        1 0EN     -0.112500
     12 C11        -0.2870   -0.0070   -4.2680 ca        1 0EN      0.024700
     13 C14        -1.2260    0.2310   -5.4210 c3        1 0EN     -0.028700
     14 C15        -0.4330    0.7760   -6.6070 c3        1 0EN     -0.094100
     15 C16        -1.9370   -1.0420   -5.8630 c3        1 0EN     -0.094100
     16 C17        -2.2810    1.2530   -5.0030 c3        1 0EN     -0.094100
     17 C12        -0.1190   -1.2730   -3.6850 ca        1 0EN     -0.112500
     18 C13         0.7480   -1.4660   -2.6150 ca        1 0EN     -0.098000
     19 C2          3.7990   -0.8190   -1.2650 c3        1 0EN      0.153800
     20 C3          4.1090   -2.3280   -1.2990 c         1 0EN      0.524100
     21 N2          5.4760   -2.7120   -1.7420 n4        1 0EN     -0.674800
     22 C23         6.4080   -3.1660   -0.5890 c3        1 0EN      0.171200
     23 C24         5.9920   -4.5580   -0.1190 c3        1 0EN     -0.138767
     24 C25         7.8350   -3.2110   -1.1410 c3        1 0EN     -0.138767
     25 C26         6.3300   -2.1700    0.5630 c3        1 0EN     -0.138767
     26 O2          3.3230   -3.2150   -0.9880 o         1 0EN     -0.411100
     27 C18         4.2750   -0.1740   -2.5220 ca        1 0EN     -0.338600
     28 C19         4.8740    1.0980   -2.4790 ca        1 0EN     -0.045000
     29 C20         5.3310    1.6660   -3.6670 ca        1 0EN     -0.224300
     30 C21         5.1660    0.9480   -4.8700 ca        1 0EN      0.461200
     31 N3          4.5810   -0.2670   -4.9280 nb        1 0EN     -0.628000
     32 C22         4.1370   -0.8040   -3.7800 ca        1 0EN      0.404200
     33 H1          0.9640    2.4270    2.0790 ha        1 0EN      0.208000
     34 H2         -1.1570    1.2360    3.3120 ha        1 0EN      0.215000
     35 H3         -1.3260   -1.3280    2.1450 h4        1 0EN      0.097100
     36 H4          1.8840    1.7700   -2.2920 ha        1 0EN      0.154000
     37 H5          0.3310    2.0760   -4.1820 ha        1 0EN      0.178000
     38 H6         -1.1250    0.9540   -7.4670 hc        1 0EN      0.051256
     39 H7          0.3470    0.0450   -6.9260 hc        1 0EN      0.051256
     40 H8          0.0590    1.7440   -6.3470 hc        1 0EN      0.051256
     41 H9         -2.6160   -0.8080   -6.7200 hc        1 0EN      0.051256
     42 H10        -1.2030   -1.8110   -6.2020 hc        1 0EN      0.051256
     43 H11        -2.5570   -1.4600   -5.0340 hc        1 0EN      0.051256
     44 H12        -1.8080    2.2240   -4.7250 hc        1 0EN      0.051256
     45 H13        -2.9820    1.4330   -5.8550 hc        1 0EN      0.051256
     46 H14        -2.8700    0.8740   -4.1340 hc        1 0EN      0.051256
     47 H15        -0.6830   -2.1440   -4.0650 ha        1 0EN      0.178000
     48 H16         0.8390   -2.4730   -2.1740 ha        1 0EN      0.154000
     49 H17         4.3980   -0.3970   -0.3880 hx        1 0EN      0.144700
     50 H18         5.4030   -3.5050   -2.3960 hn        1 0EN      0.476300
     51 H19         6.6550   -4.8520    0.7350 hc        1 0EN      0.086033
     52 H20         6.1190   -5.3180   -0.9290 hc        1 0EN      0.086033
     53 H21         4.9340   -4.5750    0.2400 hc        1 0EN      0.086033
     54 H22         7.9240   -3.9220   -1.9980 hc        1 0EN      0.086033
     55 H23         8.5110   -3.5770   -0.3240 hc        1 0EN      0.086033
     56 H24         8.1900   -2.2000   -1.4540 hc        1 0EN      0.086033
     57 H25         7.0570   -2.4950    1.3550 hc        1 0EN      0.086033
     58 H26         6.6190   -1.1400    0.2420 hc        1 0EN      0.086033
     59 H27         5.3120   -2.1560    1.0220 hc        1 0EN      0.086033
     60 H28         4.9640    1.6450   -1.5240 ha        1 0EN      0.174000
     61 H29         5.8060    2.6610   -3.6740 ha        1 0EN      0.191000
     62 H30         5.5130    1.3620   -5.8400 h4        1 0EN      0.073100
     63 H31         3.6210   -1.7780   -3.8820 h4        1 0EN      0.025100
     64 H111        1.9790   -1.4240   -0.4470 hn        1 0EN      0.471800
     65 H221        5.9190   -1.9190   -2.2260 hn        1 0EN      0.476300
@<TRIPOS>BOND
     1    1    2 2   
     2    2    3 1   
     3    2    8 1   
     4    3    4 2   
     5    3    7 1   
     6    4    5 1   
     7    4   33 1   
     8    5    6 2   
     9    5   34 1   
    10    6    7 1   
    11    6   35 1   
    12    8    9 1   
    13    8   19 1   
    14    8   64 1   
    15    9   10 ar  
    16    9   18 ar  
    17   10   11 ar  
    18   10   36 1   
    19   11   12 ar  
    20   11   37 1   
    21   12   13 1   
    22   12   17 ar  
    23   13   14 1   
    24   13   15 1   
    25   13   16 1   
    26   14   38 1   
    27   14   39 1   
    28   14   40 1   
    29   15   41 1   
    30   15   42 1   
    31   15   43 1   
    32   16   44 1   
    33   16   45 1   
    34   16   46 1   
    35   17   18 ar  
    36   17   47 1   
    37   18   48 1   
    38   19   20 1   
    39   19   27 1   
    40   19   49 1   
    41   20   21 1   
    42   20   26 2   
    43   21   22 1   
    44   21   50 1   
    45   21   65 1   
    46   22   23 1   
    47   22   24 1   
    48   22   25 1   
    49   23   51 1   
    50   23   52 1   
    51   23   53 1   
    52   24   54 1   
    53   24   55 1   
    54   24   56 1   
    55   25   57 1   
    56   25   58 1   
    57   25   59 1   
    58   27   28 ar  
    59   27   32 ar  
    60   28   29 ar  
    61   28   60 1   
    62   29   30 ar  
    63   29   61 1   
    64   30   31 ar  
    65   30   62 1   
    66   31   32 ar  
    67   32   63 1   
@<TRIPOS>SUBSTRUCTURE
     1 0EN         1 TEMP              0 ****  ****    0 ROOT
