@<TRIPOS>MOLECULE
0EN
   64    66     1     0     0
SMALL
bcc


@<TRIPOS>ATOM
      1 O1          0.2470    1.1210   -0.0720 o         1 0EN     -0.503100
      2 C1          1.4080    0.6880   -0.0260 c         1 0EN      0.599600
      3 C4          2.1100    0.6940    1.2680 cc        1 0EN      0.167200
      4 C5          1.7690    1.3870    2.4160 cd        1 0EN     -0.136300
      5 C6          2.7210    1.0060    3.4370 cd        1 0EN     -0.229300
      6 C7          3.5810    0.1000    2.8580 cc        1 0EN      0.247600
      7 O3          3.2360   -0.1170    1.5160 os        1 0EN     -0.449800
      8 N1          2.0280    0.2230   -1.2010 n         1 0EN     -0.386000
      9 C8          1.2430    0.1660   -2.4000 ca        1 0EN     -0.005400
     10 C9          0.9750    1.3410   -3.1300 ca        1 0EN     -0.112000
     11 C10         0.1910    1.2820   -4.2760 ca        1 0EN     -0.122000
     12 C11        -0.3520    0.0700   -4.7290 ca        1 0EN     -0.029300
     13 C14        -1.1990    0.0620   -5.9740 c3        1 0EN     -0.016700
     14 C15        -0.3750    0.5830   -7.1490 c3        1 0EN     -0.089100
     15 C16        -1.7020   -1.3330   -6.3240 c3        1 0EN     -0.089100
     16 C17        -2.4100    0.9690   -5.7640 c3        1 0EN     -0.089100
     17 C12        -0.0870   -1.0910   -3.9930 ca        1 0EN     -0.122000
     18 C13         0.6950   -1.0520   -2.8420 ca        1 0EN     -0.112000
     19 C2          3.4090   -0.1380   -1.2440 c3        1 0EN      0.165000
     20 C3          3.6060   -1.6500   -0.8840 c         1 0EN      0.516100
     21 N2          4.8960   -1.9250   -0.1470 n4        1 0EN     -0.679800
     22 C23         5.4290   -3.3560   -0.1370 c3        1 0EN      0.156200
     23 C24         5.5470   -3.8960   -1.5620 c3        1 0EN     -0.128100
     24 C25         6.8230   -3.3380    0.5050 c3        1 0EN     -0.128100
     25 C26         4.5150   -4.2610    0.6900 c3        1 0EN     -0.128100
     26 O2          2.8570   -2.5800   -1.1170 o         1 0EN     -0.410100
     27 C18         4.1200    0.0630   -2.5540 ca        1 0EN     -0.291600
     28 C19         4.9800    1.1590   -2.7170 ca        1 0EN     -0.068000
     29 C20         5.6260    1.3290   -3.9390 ca        1 0EN     -0.239300
     30 C21         5.3840    0.3950   -4.9670 ca        1 0EN      0.434200
     31 N3          4.5530   -0.6560   -4.8300 nb        1 0EN     -0.643000
     32 C22         3.9260   -0.8050   -3.6490 ca        1 0EN      0.425200
     33 H1          0.9360    2.0830    2.5340 ha        1 0EN      0.201000
     34 H2          2.7320    1.3750    4.4620 ha        1 0EN      0.191000
     35 H3          4.4360   -0.4730    3.2020 h4        1 0EN      0.052100
     36 H4          1.3650    2.3130   -2.7900 ha        1 0EN      0.142000
     37 H5         -0.0120    2.2130   -4.8300 ha        1 0EN      0.149500
     38 H6          0.5170   -0.0660   -7.3150 hc        1 0EN      0.042144
     39 H7         -0.0310    1.6270   -6.9590 hc        1 0EN      0.042144
     40 H8         -0.9980    0.5790   -8.0760 hc        1 0EN      0.042144
     41 H9         -2.3400   -1.7410   -5.5040 hc        1 0EN      0.042144
     42 H10        -0.8480   -2.0270   -6.5070 hc        1 0EN      0.042144
     43 H11        -2.3190   -1.2840   -7.2550 hc        1 0EN      0.042144
     44 H12        -3.0480    0.9630   -6.6800 hc        1 0EN      0.042144
     45 H13        -3.0190    0.6090   -4.9010 hc        1 0EN      0.042144
     46 H14        -2.0880    2.0180   -5.5630 hc        1 0EN      0.042144
     47 H15        -0.5030   -2.0610   -4.3070 ha        1 0EN      0.149500
     48 H16         0.8690   -1.9830   -2.2780 ha        1 0EN      0.142000
     49 H17         3.9540    0.4740   -0.4550 h1        1 0EN      0.093700
     50 H18         4.7470   -1.6360    0.8290 hn        1 0EN      0.454300
     51 H19         5.9900   -4.9220   -1.5120 hc        1 0EN      0.075589
     52 H20         4.5450   -3.9740   -2.0510 hc        1 0EN      0.075589
     53 H21         6.2170   -3.2570   -2.1860 hc        1 0EN      0.075589
     54 H22         7.2130   -4.3870    0.5240 hc        1 0EN      0.075589
     55 H23         7.5370   -2.7150   -0.0850 hc        1 0EN      0.075589
     56 H24         6.7830   -2.9650    1.5570 hc        1 0EN      0.075589
     57 H25         4.9700   -5.2830    0.7240 hc        1 0EN      0.075589
     58 H26         4.4140   -3.8890    1.7380 hc        1 0EN      0.075589
     59 H27         3.5000   -4.3470    0.2290 hc        1 0EN      0.075589
     60 H28         5.1330    1.8830   -1.9020 ha        1 0EN      0.148000
     61 H29         6.3030    2.1790   -4.1100 ha        1 0EN      0.168000
     62 H30         5.8750    0.4940   -5.9550 h4        1 0EN      0.049100
     63 H31         3.2140   -1.6520   -3.5800 h4        1 0EN      0.041100
     64 H221        5.6200   -1.3270   -0.5580 hn        1 0EN      0.454300
@<TRIPOS>BOND
     1    1    2 2   
     2    2    3 1   
     3    2    8 1   
     4    3    4 2   
     5    3    7 1   
     6    4    5 1   
     7    4   33 1   
     8    5    6 2   
     9    5   34 1   
    10    6    7 1   
    11    6   35 1   
    12    8    9 1   
    13    8   19 1   
    14    9   10 ar  
    15    9   18 ar  
    16   10   11 ar  
    17   10   36 1   
    18   11   12 ar  
    19   11   37 1   
    20   12   13 1   
    21   12   17 ar  
    22   13   14 1   
    23   13   15 1   
    24   13   16 1   
    25   14   38 1   
    26   14   39 1   
    27   14   40 1   
    28   15   41 1   
    29   15   42 1   
    30   15   43 1   
    31   16   44 1   
    32   16   45 1   
    33   16   46 1   
    34   17   18 ar  
    35   17   47 1   
    36   18   48 1   
    37   19   20 1   
    38   19   27 1   
    39   19   49 1   
    40   20   21 1   
    41   20   26 2   
    42   21   22 1   
    43   21   50 1   
    44   21   64 1   
    45   22   23 1   
    46   22   24 1   
    47   22   25 1   
    48   23   51 1   
    49   23   52 1   
    50   23   53 1   
    51   24   54 1   
    52   24   55 1   
    53   24   56 1   
    54   25   57 1   
    55   25   58 1   
    56   25   59 1   
    57   27   28 ar  
    58   27   32 ar  
    59   28   29 ar  
    60   28   60 1   
    61   29   30 ar  
    62   29   61 1   
    63   30   31 ar  
    64   30   62 1   
    65   31   32 ar  
    66   32   63 1   
@<TRIPOS>SUBSTRUCTURE
     1 0EN         1 TEMP              0 ****  ****    0 ROOT
