@<TRIPOS>MOLECULE
0EN
   64    66     1     0     0
SMALL
bcc


@<TRIPOS>ATOM
      1 O1          0.2410    1.1230   -0.0880 o         1 0EN     -0.503100
      2 C1          1.4010    0.6880   -0.0340 c         1 0EN      0.599600
      3 C4          2.0950    0.6960    1.2640 cc        1 0EN      0.167200
      4 C5          1.7470    1.3930    2.4080 cd        1 0EN     -0.136300
      5 C6          2.6930    1.0120    3.4360 cd        1 0EN     -0.229300
      6 C7          3.5550    0.1040    2.8640 cc        1 0EN      0.247600
      7 O3          3.2180   -0.1150    1.5210 os        1 0EN     -0.449800
      8 N1          2.0280    0.2200   -1.2050 n         1 0EN     -0.386000
      9 C8          1.2500    0.1620   -2.4080 ca        1 0EN     -0.005400
     10 C9          0.9890    1.3360   -3.1420 ca        1 0EN     -0.112000
     11 C10         0.2110    1.2760   -4.2930 ca        1 0EN     -0.122000
     12 C11        -0.3310    0.0630   -4.7470 ca        1 0EN     -0.029300
     13 C14        -1.1710    0.0530   -5.9970 c3        1 0EN     -0.016700
     14 C15        -0.3390    0.5700   -7.1680 c3        1 0EN     -0.089100
     15 C16        -1.6730   -1.3410   -6.3470 c3        1 0EN     -0.089100
     16 C17        -2.3810    0.9620   -5.7960 c3        1 0EN     -0.089100
     17 C12        -0.0720   -1.0960   -4.0070 ca        1 0EN     -0.122000
     18 C13         0.7030   -1.0560   -2.8510 ca        1 0EN     -0.112000
     19 C2          3.4090   -0.1420   -1.2390 c3        1 0EN      0.165000
     20 C3          3.6020   -1.6530   -0.8750 c         1 0EN      0.516100
     21 N2          4.8870   -1.9280   -0.1290 ny        1 0EN     -0.679800
     22 C23         5.4180   -3.3600   -0.1130 c3        1 0EN      0.156200
     23 C24         5.5460   -3.9010   -1.5360 c3        1 0EN     -0.128100
     24 C25         6.8080   -3.3410    0.5390 c3        1 0EN     -0.128100
     25 C26         4.4980   -4.2630    0.7090 c3        1 0EN     -0.128100
     26 O2          2.8530   -2.5830   -1.1110 o         1 0EN     -0.410100
     27 C18         4.1270    0.0560   -2.5440 ca        1 0EN     -0.291600
     28 C19         4.9900    1.1510   -2.7040 ca        1 0EN     -0.068000
     29 C20         5.6440    1.3180   -3.9230 ca        1 0EN     -0.239300
     30 C21         5.4080    0.3820   -4.9500 ca        1 0EN      0.434200
     31 N3          4.5740   -0.6680   -4.8160 nb        1 0EN     -0.643000
     32 C22         3.9400   -0.8140   -3.6390 ca        1 0EN      0.425200
     33 H1          0.9140    2.0890    2.5200 ha        1 0EN      0.201000
     34 H2          2.6980    1.3830    4.4600 ha        1 0EN      0.191000
     35 H3          4.4080   -0.4690    3.2140 h4        1 0EN      0.052100
     36 H4          1.3770    2.3080   -2.8020 ha        1 0EN      0.142000
     37 H5          0.0130    2.2050   -4.8510 ha        1 0EN      0.149500
     38 H6          0.0060    1.6150   -6.9780 hc        1 0EN      0.042144
     39 H7         -0.9550    0.5650   -8.0990 hc        1 0EN      0.042144
     40 H8          0.5540   -0.0800   -7.3270 hc        1 0EN      0.042144
     41 H9         -2.2850   -1.2940   -7.2820 hc        1 0EN      0.042144
     42 H10        -0.8190   -2.0370   -6.5230 hc        1 0EN      0.042144
     43 H11        -2.3170   -1.7470   -5.5300 hc        1 0EN      0.042144
     44 H12        -3.0140    0.9550   -6.7160 hc        1 0EN      0.042144
     45 H13        -2.9960    0.6050   -4.9360 hc        1 0EN      0.042144
     46 H14        -2.0590    2.0120   -5.5960 hc        1 0EN      0.042144
     47 H15        -0.4870   -2.0670   -4.3210 ha        1 0EN      0.149500
     48 H16         0.8720   -1.9860   -2.2840 ha        1 0EN      0.142000
     49 H17         3.9490    0.4710   -0.4470 h1        1 0EN      0.093700
     50 H18         4.7310   -1.6380    0.8460 hn        1 0EN      0.454300
     51 H19         4.5470   -3.9800   -2.0320 hc        1 0EN      0.075589
     52 H20         6.2210   -3.2640   -2.1570 hc        1 0EN      0.075589
     53 H21         5.9880   -4.9280   -1.4820 hc        1 0EN      0.075589
     54 H22         7.5270   -2.7190   -0.0470 hc        1 0EN      0.075589
     55 H23         6.7620   -2.9670    1.5900 hc        1 0EN      0.075589
     56 H24         7.1980   -4.3900    0.5620 hc        1 0EN      0.075589
     57 H25         4.3900   -3.8900    1.7560 hc        1 0EN      0.075589
     58 H26         4.9530   -5.2850    0.7470 hc        1 0EN      0.075589
     59 H27         3.4870   -4.3480    0.2410 hc        1 0EN      0.075589
     60 H28         5.1390    1.8760   -1.8890 ha        1 0EN      0.148000
     61 H29         6.3230    2.1670   -4.0900 ha        1 0EN      0.168000
     62 H30         5.9050    0.4790   -5.9350 h4        1 0EN      0.049100
     63 H31         3.2260   -1.6590   -3.5730 h4        1 0EN      0.041100
     64 H221        5.6140   -1.3310   -0.5350 hn        1 0EN      0.454300
@<TRIPOS>BOND
     1    1    2 2   
     2    2    3 1   
     3    2    8 1   
     4    3    4 2   
     5    3    7 1   
     6    4    5 1   
     7    4   33 1   
     8    5    6 2   
     9    5   34 1   
    10    6    7 1   
    11    6   35 1   
    12    8    9 1   
    13    8   19 1   
    14    9   10 ar  
    15    9   18 ar  
    16   10   11 ar  
    17   10   36 1   
    18   11   12 ar  
    19   11   37 1   
    20   12   13 1   
    21   12   17 ar  
    22   13   14 1   
    23   13   15 1   
    24   13   16 1   
    25   14   38 1   
    26   14   39 1   
    27   14   40 1   
    28   15   41 1   
    29   15   42 1   
    30   15   43 1   
    31   16   44 1   
    32   16   45 1   
    33   16   46 1   
    34   17   18 ar  
    35   17   47 1   
    36   18   48 1   
    37   19   20 1   
    38   19   27 1   
    39   19   49 1   
    40   20   21 1   
    41   20   26 2   
    42   21   22 1   
    43   21   50 1   
    44   21   64 1   
    45   22   23 1   
    46   22   24 1   
    47   22   25 1   
    48   23   51 1   
    49   23   52 1   
    50   23   53 1   
    51   24   54 1   
    52   24   55 1   
    53   24   56 1   
    54   25   57 1   
    55   25   58 1   
    56   25   59 1   
    57   27   28 ar  
    58   27   32 ar  
    59   28   29 ar  
    60   28   60 1   
    61   29   30 ar  
    62   29   61 1   
    63   30   31 ar  
    64   30   62 1   
    65   31   32 ar  
    66   32   63 1   
@<TRIPOS>SUBSTRUCTURE
     1 0EN         1 TEMP              0 ****  ****    0 ROOT
