@<TRIPOS>MOLECULE
0EN
   63    65     1     0     0
SMALL
bcc


@<TRIPOS>ATOM
      1 O1         -0.0120   -3.3350   -0.7010 o         1 0EN     -0.545100
      2 C1         -0.7310   -2.3480   -0.9260 c         1 0EN      0.608600
      3 C4         -2.1260   -2.5520   -1.3740 cc        1 0EN      0.187200
      4 C5         -3.1480   -3.3240   -0.8560 cd        1 0EN     -0.187300
      5 C6         -4.2560   -3.2140   -1.7800 cd        1 0EN     -0.267300
      6 C7         -3.8370   -2.3920   -2.8060 cc        1 0EN      0.249600
      7 O3         -2.5280   -1.9650   -2.5840 os        1 0EN     -0.363800
      8 N1         -0.2360   -1.0440   -0.7990 n         1 0EN     -0.368000
      9 C8          1.1100   -0.8810   -0.3390 ca        1 0EN      0.024600
     10 C9          2.1630   -0.8430   -1.2750 ca        1 0EN     -0.113500
     11 C10         3.4750   -0.6890   -0.8420 ca        1 0EN     -0.130000
     12 C11         3.7850   -0.5730    0.5210 ca        1 0EN     -0.054300
     13 C14         5.2230   -0.4060    0.9360 c3        1 0EN     -0.010700
     14 C15         5.7900    0.8610    0.3010 c3        1 0EN     -0.086100
     15 C16         5.3810   -0.2920    2.4480 c3        1 0EN     -0.086100
     16 C17         6.0300   -1.6130    0.4620 c3        1 0EN     -0.086100
     17 C12         2.7380   -0.6240    1.4450 ca        1 0EN     -0.130000
     18 C13         1.4170   -0.7790    1.0300 ca        1 0EN     -0.113500
     19 C2         -1.1220    0.1020   -0.7650 c3        1 0EN      0.101000
     20 C3         -1.7780    0.3730    0.6240 c         1 0EN      0.634100
     21 N2         -2.6220    1.4590    0.6740 n         1 0EN     -0.562900
     22 C23        -3.3060    1.9060    1.8870 c3        1 0EN      0.124400
     23 C24        -2.3160    2.2420    3.0160 c3        1 0EN     -0.109100
     24 C25        -4.1230    3.1760    1.5870 c3        1 0EN     -0.109100
     25 C26        -4.2770    0.8350    2.4130 c3        1 0EN     -0.109100
     26 O2         -1.6080   -0.3890    1.5950 o         1 0EN     -0.605100
     27 C18        -0.4680    1.3580   -1.2780 ca        1 0EN     -0.226600
     28 C19        -0.4960    1.6490   -2.6480 ca        1 0EN     -0.071000
     29 C20         0.1000    2.8260   -3.1010 ca        1 0EN     -0.251300
     30 C21         0.7120    3.6750   -2.1610 ca        1 0EN      0.404200
     31 N3          0.7560    3.4090   -0.8410 nb        1 0EN     -0.662000
     32 C22         0.1820    2.2690   -0.4170 ca        1 0EN      0.416200
     33 H1         -3.1330   -3.9040    0.0640 ha        1 0EN      0.179000
     34 H2         -5.2210   -3.7000   -1.6690 ha        1 0EN      0.168000
     35 H3         -4.2770   -2.0200   -3.7270 h4        1 0EN      0.055100
     36 H4          1.9570   -0.9450   -2.3520 ha        1 0EN      0.151000
     37 H5          4.2820   -0.6620   -1.5910 ha        1 0EN      0.135000
     38 H6          5.2070    1.7530    0.6320 hc        1 0EN      0.037478
     39 H7          6.8560    0.9950    0.6070 hc        1 0EN      0.037478
     40 H8          5.7460    0.7970   -0.8120 hc        1 0EN      0.037478
     41 H9          5.0060   -1.2140    2.9530 hc        1 0EN      0.037478
     42 H10         6.4610   -0.1660    2.7040 hc        1 0EN      0.037478
     43 H11         4.8230    0.5920    2.8370 hc        1 0EN      0.037478
     44 H12         5.9900   -1.7010   -0.6490 hc        1 0EN      0.037478
     45 H13         7.0960   -1.5020    0.7720 hc        1 0EN      0.037478
     46 H14         5.6210   -2.5500    0.9090 hc        1 0EN      0.037478
     47 H15         2.9350   -0.5480    2.5250 ha        1 0EN      0.135000
     48 H16         0.6110   -0.8320    1.7830 ha        1 0EN      0.151000
     49 H17        -1.9930   -0.1310   -1.4590 h1        1 0EN      0.095700
     50 H18        -2.6220    2.0950   -0.0880 hn        1 0EN      0.312500
     51 H19        -1.6120    3.0480    2.6990 hc        1 0EN      0.046589
     52 H20        -2.8840    2.5940    3.9090 hc        1 0EN      0.046589
     53 H21        -1.7280    1.3340    3.2970 hc        1 0EN      0.046589
     54 H22        -4.8870    2.9810    0.7970 hc        1 0EN      0.046589
     55 H23        -4.6480    3.4930    2.5190 hc        1 0EN      0.046589
     56 H24        -3.4590    4.0090    1.2540 hc        1 0EN      0.046589
     57 H25        -3.7220   -0.1000    2.6680 hc        1 0EN      0.046589
     58 H26        -4.7790    1.2210    3.3310 hc        1 0EN      0.046589
     59 H27        -5.0550    0.5990    1.6490 hc        1 0EN      0.046589
     60 H28        -0.9770    0.9550   -3.3540 ha        1 0EN      0.148000
     61 H29         0.0980    3.0860   -4.1680 ha        1 0EN      0.147000
     62 H30         1.1960    4.6160   -2.4780 h4        1 0EN      0.025100
     63 H31         0.2490    2.0680    0.6690 h4        1 0EN      0.036100
@<TRIPOS>BOND
     1    1    2 2   
     2    2    3 1   
     3    2    8 1   
     4    3    4 2   
     5    3    7 1   
     6    4    5 1   
     7    4   33 1   
     8    5    6 2   
     9    5   34 1   
    10    6    7 1   
    11    6   35 1   
    12    8    9 1   
    13    8   19 1   
    14    9   10 ar  
    15    9   18 ar  
    16   10   11 ar  
    17   10   36 1   
    18   11   12 ar  
    19   11   37 1   
    20   12   13 1   
    21   12   17 ar  
    22   13   14 1   
    23   13   15 1   
    24   13   16 1   
    25   14   38 1   
    26   14   39 1   
    27   14   40 1   
    28   15   41 1   
    29   15   42 1   
    30   15   43 1   
    31   16   44 1   
    32   16   45 1   
    33   16   46 1   
    34   17   18 ar  
    35   17   47 1   
    36   18   48 1   
    37   19   20 1   
    38   19   27 1   
    39   19   49 1   
    40   20   21 1   
    41   20   26 2   
    42   21   22 1   
    43   21   50 1   
    44   22   23 1   
    45   22   24 1   
    46   22   25 1   
    47   23   51 1   
    48   23   52 1   
    49   23   53 1   
    50   24   54 1   
    51   24   55 1   
    52   24   56 1   
    53   25   57 1   
    54   25   58 1   
    55   25   59 1   
    56   27   28 ar  
    57   27   32 ar  
    58   28   29 ar  
    59   28   60 1   
    60   29   30 ar  
    61   29   61 1   
    62   30   31 ar  
    63   30   62 1   
    64   31   32 ar  
    65   32   63 1   
@<TRIPOS>SUBSTRUCTURE
     1 0EN         1 TEMP              0 ****  ****    0 ROOT
