@<TRIPOS>MOLECULE
0EN
   63    56     1     0     0
SMALL
bcc


@<TRIPOS>ATOM
      1 O1         -2.2450    0.2150    2.4970 o         1 0EN     -0.306000
      2 C1         -1.0390    0.1090    2.4160 c1        1 0EN      0.393000
      3 C4         -0.2060   -0.1560    3.6810 c1        1 0EN     -0.089500
      4 C5         -0.7090   -0.4410    4.9350 c1        1 0EN     -0.162000
      5 C6          0.3360   -0.4620    5.8150 c1        1 0EN     -0.162000
      6 C7          1.4910   -0.1890    5.1110 c1        1 0EN     -0.089500
      7 O3          1.1510   -0.0010    3.7960 os        1 0EN     -0.105000
      8 N1         -0.3790    0.3930    1.1750 n3        1 0EN     -0.271000
      9 C8         -1.1580    0.8100    0.0150 c2        1 0EN      0.032000
     10 C9         -0.8920    0.2620   -1.2330 c1        1 0EN     -0.121000
     11 C10        -1.6200    0.6820   -2.3490 c1        1 0EN     -0.130000
     12 C11        -2.6120    1.6500   -2.2090 c1        1 0EN     -0.047000
     13 C14        -3.4260    2.1050   -3.4400 c3        1 0EN     -0.018000
     14 C15        -3.6680    3.5930   -3.3630 c3        1 0EN     -0.203667
     15 C16        -2.6520    1.7860   -4.7030 c3        1 0EN     -0.203667
     16 C17        -4.7520    1.3790   -3.4640 c3        1 0EN     -0.203667
     17 C12        -2.8780    2.1980   -0.9590 c1        1 0EN     -0.131000
     18 C13        -2.1510    1.7790    0.1540 c2        1 0EN     -0.105000
     19 C2          1.0210    0.1350    1.0390 c3        1 0EN      0.067000
     20 C3          1.2580   -1.3620    0.9970 c2        1 0EN      0.278000
     21 N2          2.5740   -1.8860    1.2250 n         1 0EN     -0.372000
     22 C23         2.7500   -3.2760    1.5060 c3        1 0EN      0.087000
     23 C24         2.1110   -4.0960    0.4090 c3        1 0EN     -0.227000
     24 C25         2.1000   -3.6090    2.8280 c3        1 0EN     -0.227000
     25 C26         4.2310   -3.5940    1.5750 c3        1 0EN     -0.227000
     26 O2          0.3200   -2.1220    0.8410 o         1 0EN     -0.366000
     27 C18         1.5240    0.7580   -0.2330 c1        1 0EN     -0.154000
     28 C19         1.4860    2.1120   -0.3870 c1        1 0EN     -0.128500
     29 C20         2.0700    2.6920   -1.4760 c1        1 0EN     -0.128500
     30 C21         2.7000    1.9070   -2.4220 c1        1 0EN     -0.061000
     31 N3          2.7390    0.5550   -2.2680 n1        1 0EN     -0.136000
     32 C22         2.1560   -0.0270   -1.1820 c1        1 0EN     -0.049000
     33 H1         -1.6520   -0.6020    5.1560 DU        1 0EN      0.179667
     34 H2          0.2760   -0.6390    6.7790 DU        1 0EN      0.179667
     35 H3          2.4010   -0.1380    5.4880 DU        1 0EN      0.179667
     36 H4         -0.1950   -0.4180   -1.3300 ha        1 0EN      0.165000
     37 H5         -1.4340    0.2970   -3.2260 ha        1 0EN      0.135000
     38 H6         -2.8100    4.0640   -3.3670 hc        1 0EN      0.076556
     39 H7         -4.1990    3.8780   -4.1350 hc        1 0EN      0.076556
     40 H8         -4.1530    3.8040   -2.5370 hc        1 0EN      0.076556
     41 H9         -2.5940    0.8150   -4.8140 hc        1 0EN      0.076556
     42 H10        -3.1140    2.1780   -5.4790 hc        1 0EN      0.076556
     43 H11        -1.7520    2.1610   -4.6370 hc        1 0EN      0.076556
     44 H12        -5.1440    1.3870   -2.5660 hc        1 0EN      0.076556
     45 H13        -5.3610    1.8280   -4.0910 hc        1 0EN      0.076556
     46 H14        -4.6130    0.4540   -3.7500 hc        1 0EN      0.076556
     47 H15        -3.5740    2.8770   -0.8610 ha        1 0EN      0.135000
     48 H16        -2.3370    2.1630    1.0290 ha        1 0EN      0.138000
     49 H17         1.4990    0.5200    1.8020 h1        1 0EN      0.135000
     50 H18         3.2990   -1.3390    1.1590 hn        1 0EN      0.226000
     51 H19         2.2220   -5.0490    0.6060 hc        1 0EN      0.085889
     52 H20         2.5390   -3.8870   -0.4460 hc        1 0EN      0.085889
     53 H21         1.1550   -3.8820    0.3570 hc        1 0EN      0.085889
     54 H22         2.1470   -4.5760    2.9810 hc        1 0EN      0.085889
     55 H23         1.1620   -3.3260    2.8100 hc        1 0EN      0.085889
     56 H24         2.5690   -3.1400    3.5490 hc        1 0EN      0.085889
     57 H25         4.6260   -3.1400    2.3480 hc        1 0EN      0.085889
     58 H26         4.3540   -4.5630    1.6670 hc        1 0EN      0.085889
     59 H27         4.6700   -3.2860    0.7550 hc        1 0EN      0.085889
     60 H28         1.0390    2.6690    0.2830 ha        1 0EN      0.147500
     61 H29         2.0430    3.6640   -1.5870 ha        1 0EN      0.147500
     62 H30         3.1170    2.3220   -3.2000 ha        1 0EN      0.162000
     63 H31         2.1850   -0.9950   -1.0730 ha        1 0EN      0.173000
@<TRIPOS>BOND
     1    1    2 1   
     2    2    8 1   
     3    3    4 1   
     4    3    7 1   
     5    4    5 1   
     6    5    6 1   
     7    6    7 1   
     8    8    9 1   
     9    8   19 1   
    10    9   10 1   
    11    9   18 1   
    12   10   36 1   
    13   11   12 1   
    14   11   37 1   
    15   12   13 1   
    16   13   14 1   
    17   13   15 1   
    18   13   16 1   
    19   14   38 1   
    20   14   39 1   
    21   14   40 1   
    22   15   41 1   
    23   15   42 1   
    24   15   43 1   
    25   16   44 1   
    26   16   45 1   
    27   16   46 1   
    28   17   18 1   
    29   17   47 1   
    30   18   48 1   
    31   19   20 1   
    32   19   27 1   
    33   19   49 1   
    34   20   21 1   
    35   20   26 1   
    36   21   22 1   
    37   21   50 1   
    38   22   23 1   
    39   22   24 1   
    40   22   25 1   
    41   23   51 1   
    42   23   52 1   
    43   23   53 1   
    44   24   54 1   
    45   24   55 1   
    46   24   56 1   
    47   25   57 1   
    48   25   58 1   
    49   25   59 1   
    50   27   32 1   
    51   28   29 1   
    52   28   60 1   
    53   29   61 1   
    54   30   31 1   
    55   30   62 1   
    56   32   63 1   
@<TRIPOS>SUBSTRUCTURE
     1 0EN         1 TEMP              0 ****  ****    0 ROOT
