@<TRIPOS>MOLECULE
0EO
   99    96     1     0     0
SMALL
bcc


@<TRIPOS>ATOM
      1 O1         -2.7580    6.9860   -0.4580 o         1 0EO     -0.394000
      2 C          -3.6960    6.4000   -0.9170 c1        1 0EO      0.395000
      3 O2         -4.9540    7.0880   -1.1170 o         1 0EO     -0.294000
      4 CT         -4.9870    8.4510   -0.5730 c3        1 0EO      0.115000
      5 C1         -4.0140    9.3330   -1.3490 c3        1 0EO     -0.231333
      6 C2         -6.4300    9.0300   -0.7030 c3        1 0EO     -0.231333
      7 C3         -4.5840    8.4250    0.9040 c3        1 0EO     -0.231333
      8 C4          0.3220    0.3810   -0.9500 c1        1 0EO      0.298000
      9 O11         0.3330    0.5460    0.2480 o         1 0EO     -0.405000
     10 CA1        -0.1620    1.5310   -1.8940 c2        1 0EO     -0.182000
     11 CM         -0.6500    2.7380   -1.0400 c3        1 0EO     -0.146000
     12 CH         -1.9010    3.3200   -1.6580 c3        1 0EO      0.031000
     13 OH         -1.5400    4.1350   -2.7880 oh        1 0EO     -0.326000
     14 CA         -2.6200    4.1620   -0.6450 c3        1 0EO     -0.013000
     15 N          -3.5610    5.0110   -1.3140 n3        1 0EO     -0.335000
     16 CB         -3.3630    3.2530    0.3400 c3        1 0EO     -0.162000
     17 CG         -2.9530    3.6190    1.8010 c2        1 0EO     -0.071000
     18 CD1        -3.8740    4.2060    2.6460 c2        1 0EO     -0.129000
     19 CD2        -1.7290    3.2040    2.2950 c1        1 0EO     -0.118000
     20 CE1        -3.5720    4.3780    3.9870 c1        1 0EO     -0.130000
     21 CE2        -1.4320    3.3760    3.6250 c1        1 0EO     -0.129500
     22 CZ         -2.3630    3.9680    4.4750 c1        1 0EO     -0.129500
     23 N1          0.8200   -0.9070   -1.5340 n3        1 0EO     -0.365000
     24 CA2         0.6090   -2.1310   -0.8380 c3        1 0EO      0.028000
     25 CB1        -0.8720   -2.6070   -1.0490 c3        1 0EO     -0.172000
     26 CG1        -1.1430   -3.6240   -0.1970 c3        1 0EO     -0.101000
     27 CD11       -2.2290   -4.6160   -0.7860 c3        1 0EO     -0.154000
     28 CD21       -2.0010   -3.1400    1.0690 c3        1 0EO     -0.154000
     29 CE11       -2.5690   -5.7570    0.1620 c3        1 0EO     -0.152000
     30 CE21       -2.3330   -4.2640    2.0210 c3        1 0EO     -0.152000
     31 CZ1        -2.2100   -5.4730    1.4260 c3        1 0EO     -0.155000
     32 CH1         1.5460   -3.1650   -1.3580 c3        1 0EO      0.041000
     33 OH1         1.4320   -3.2430   -2.7400 oh        1 0EO     -0.365000
     34 CM1         2.9790   -2.7820   -0.9880 c3        1 0EO     -0.224000
     35 C5          3.8730   -4.0780   -0.9440 c2        1 0EO      0.284000
     36 O           3.4590   -5.1070   -1.4060 o         1 0EO     -0.447000
     37 N2          5.2470   -3.9950   -0.4740 n         1 0EO     -0.310000
     38 CA3         5.9990   -5.2090   -0.2130 c3        1 0EO     -0.080000
     39 C6          5.2980   -6.0160    0.8250 c2        1 0EO      0.331000
     40 O3          5.0250   -5.5050    1.9450 o         1 0EO     -0.562000
     41 CB2         7.3930   -4.8520    0.2820 c3        1 0EO     -0.147000
     42 CG2         8.4100   -5.8940   -0.2510 c3        1 0EO     -0.118000
     43 CD12        9.7630   -5.2400   -0.4300 c3        1 0EO     -0.199500
     44 CD22        8.5290   -7.0290    0.7330 c3        1 0EO     -0.199500
     45 OXT         4.9670   -7.1940    0.5800 o         1 0EO     -0.562000
     46 H11        -4.1240    9.1720   -2.3120 hc        1 0EO      0.089667
     47 H12        -3.0910    9.1170   -1.0830 hc        1 0EO      0.089667
     48 H13        -4.1990   10.2740   -1.1520 hc        1 0EO      0.089667
     49 H21        -6.7180    8.9760   -1.6230 hc        1 0EO      0.089667
     50 H22        -6.4320    9.9770   -0.4120 hc        1 0EO      0.089667
     51 H23        -7.0360    8.5180   -0.1440 hc        1 0EO      0.089667
     52 H31        -4.8570    9.2710    1.3350 hc        1 0EO      0.089667
     53 H32        -3.6200    8.3220    0.9770 hc        1 0EO      0.089667
     54 H33        -5.0290    7.6710    1.3520 hc        1 0EO      0.089667
     55 HA1        -0.8920    1.2090   -2.4450 ha        1 0EO      0.110500
     56 HM         -0.8380    2.4450   -0.1540 hc        1 0EO      0.106000
     57 HA         -1.9600    4.7210   -0.1500 h1        1 0EO      0.133000
     58 H          -4.0510    4.6840   -2.0350 hn        1 0EO      0.223000
     59 HB2        -3.1310    2.3080    0.1580 hc        1 0EO      0.120500
     60 HB3        -4.3080    3.3750    0.2350 hc        1 0EO      0.120500
     61 HD1        -4.7020    4.5700    2.2850 ha        1 0EO      0.127000
     62 HD2        -1.0730    2.7870    1.6960 ha        1 0EO      0.136000
     63 HE1        -4.2430    4.8060    4.6040 ha        1 0EO      0.126000
     64 HE2        -0.5940    2.9860    4.0000 ha        1 0EO      0.128000
     65 HZ         -2.1540    4.0890    5.4090 ha        1 0EO      0.128000
     66 HCH        -2.4710    2.6140   -1.9440 h1        1 0EO      0.086000
     67 HO1        -1.8120    3.7580   -3.5140 ho        1 0EO      0.206000
     68 HM1         0.0590    3.4310   -1.0160 hc        1 0EO      0.106000
     69 HA2         0.5750    1.8140   -2.4650 ha        1 0EO      0.110500
     70 H1          1.1630   -0.9200   -2.3600 hn        1 0EO      0.239000
     71 HA3         0.7780   -1.9900    0.1420 h1        1 0EO      0.120000
     72 HB21       -0.9910   -2.9240   -1.9970 hc        1 0EO      0.091000
     73 HB31       -1.4700   -1.8770   -0.8780 hc        1 0EO      0.091000
     74 HG         -0.3240   -4.1050    0.0790 hc        1 0EO      0.095000
     75 HD12       -1.8890   -4.9940   -1.6240 hc        1 0EO      0.082250
     76 HD13       -3.0580   -4.1030   -0.9790 hc        1 0EO      0.082250
     77 HD23       -2.8320   -2.7430    0.7510 hc        1 0EO      0.082250
     78 HD22       -1.4950   -2.4650    1.5480 hc        1 0EO      0.082250
     79 HE12       -2.0920   -6.5720   -0.1320 hc        1 0EO      0.073250
     80 HE13       -3.5460   -5.9260    0.1320 hc        1 0EO      0.073250
     81 HE23       -1.7380   -4.2240    2.7720 hc        1 0EO      0.073250
     82 HE22       -3.2490   -4.1550    2.3350 hc        1 0EO      0.073250
     83 HZ2        -2.7020   -6.1030    1.9940 hc        1 0EO      0.077000
     84 HZ3        -1.2350   -5.7180    1.4980 hc        1 0EO      0.077000
     85 HH          1.3270   -4.0350   -0.9610 h1        1 0EO      0.097000
     86 HO          1.5400   -4.1170   -3.0070 ho        1 0EO      0.246000
     87 HM11        3.3340   -2.1630   -1.6570 hc        1 0EO      0.109000
     88 HM2         2.9850   -2.3470   -0.0990 hc        1 0EO      0.109000
     89 H2          5.6600   -3.1820   -0.4190 hn        1 0EO      0.244000
     90 HA4         6.0710   -5.7360   -1.0460 h1        1 0EO      0.104000
     91 HB22        7.6350   -3.9740   -0.0360 hc        1 0EO      0.090000
     92 HB32        7.4030   -4.8590    1.2630 hc        1 0EO      0.090000
     93 HG1         8.1020   -6.2370   -1.1050 hc        1 0EO      0.105000
     94 HD11        9.7250   -4.6150   -1.1600 hc        1 0EO      0.062167
     95 HD14       10.4230   -5.9170   -0.6230 hc        1 0EO      0.062167
     96 HD15       10.0040   -4.7780    0.3740 hc        1 0EO      0.062167
     97 HD21        7.7860   -7.6520    0.6040 hc        1 0EO      0.062167
     98 HD24        9.3820   -7.5000    0.5900 hc        1 0EO      0.062167
     99 HD25        8.5010   -6.6730    1.6490 hc        1 0EO      0.062167
@<TRIPOS>BOND
     1    1    2 1   
     2    2   15 1   
     3    3    4 1   
     4    4    5 1   
     5    4    6 1   
     6    4    7 1   
     7    5   46 1   
     8    5   47 1   
     9    5   48 1   
    10    6   49 1   
    11    6   50 1   
    12    6   51 1   
    13    7   52 1   
    14    7   53 1   
    15    7   54 1   
    16    8    9 1   
    17    8   23 1   
    18   10   11 1   
    19   10   55 1   
    20   10   69 1   
    21   11   12 1   
    22   11   56 1   
    23   11   68 1   
    24   12   13 1   
    25   12   14 1   
    26   12   66 1   
    27   13   67 1   
    28   14   15 1   
    29   14   16 1   
    30   14   57 1   
    31   15   58 1   
    32   16   17 1   
    33   16   59 1   
    34   16   60 1   
    35   17   18 1   
    36   17   19 1   
    37   18   20 1   
    38   18   61 1   
    39   19   62 1   
    40   20   63 1   
    41   21   22 1   
    42   21   64 1   
    43   22   65 1   
    44   23   24 1   
    45   23   70 1   
    46   24   25 1   
    47   24   32 1   
    48   24   71 1   
    49   25   26 1   
    50   25   72 1   
    51   25   73 1   
    52   26   27 1   
    53   26   28 1   
    54   26   74 1   
    55   27   29 1   
    56   27   75 1   
    57   27   76 1   
    58   28   30 1   
    59   28   77 1   
    60   28   78 1   
    61   29   31 1   
    62   29   79 1   
    63   29   80 1   
    64   30   31 1   
    65   30   81 1   
    66   30   82 1   
    67   31   83 1   
    68   31   84 1   
    69   32   33 1   
    70   32   34 1   
    71   32   85 1   
    72   33   86 1   
    73   34   35 1   
    74   34   87 1   
    75   34   88 1   
    76   35   36 1   
    77   35   37 1   
    78   37   38 1   
    79   37   89 1   
    80   38   39 1   
    81   38   41 1   
    82   38   90 1   
    83   39   40 1   
    84   39   45 1   
    85   41   42 1   
    86   41   91 1   
    87   41   92 1   
    88   42   43 1   
    89   42   44 1   
    90   42   93 1   
    91   43   94 1   
    92   43   95 1   
    93   43   96 1   
    94   44   97 1   
    95   44   98 1   
    96   44   99 1   
@<TRIPOS>SUBSTRUCTURE
     1 0EO         1 TEMP              0 ****  ****    0 ROOT
