@<TRIPOS>MOLECULE
0EO
   99   100     1     0     0
SMALL
bcc


@<TRIPOS>ATOM
      1 O1         -5.4200   -1.4800   -0.2900 o         1 0EO     -0.594000
      2 C          -5.5930   -0.8030    0.7370 c         1 0EO      0.747100
      3 O2         -6.2140   -1.3320    1.8450 os        1 0EO     -0.449900
      4 CT         -6.4340   -2.7650    1.9150 c3        1 0EO      0.186800
      5 C1         -5.1260   -3.5230    1.7720 c3        1 0EO     -0.114100
      6 C2         -7.0050   -2.9490    3.3210 c3        1 0EO     -0.114100
      7 C3         -7.4510   -3.1980    0.8710 c3        1 0EO     -0.114100
      8 C4          0.1140    0.4290    0.3310 c         1 0EO      0.657100
      9 O11         0.0370   -0.1970    1.4110 o         1 0EO     -0.630100
     10 CA1        -0.9330    1.4720   -0.0310 c3        1 0EO     -0.153400
     11 CM         -2.3170    0.8600    0.0150 c3        1 0EO     -0.109400
     12 CH         -3.3840    1.9460    0.0370 c3        1 0EO      0.136100
     13 OH         -3.3220    2.7400    1.2080 oh        1 0EO     -0.602800
     14 CA         -4.8090    1.3460   -0.1520 c3        1 0EO      0.073700
     15 N          -5.1810    0.5010    0.9610 n         1 0EO     -0.528900
     16 CB         -5.7740    2.5250   -0.3800 c3        1 0EO     -0.063100
     17 CG         -7.1810    2.1070   -0.6110 ca        1 0EO     -0.085300
     18 CD1        -8.1830    2.4580    0.3020 ca        1 0EO     -0.123000
     19 CD2        -7.5270    1.3840   -1.7600 ca        1 0EO     -0.123000
     20 CE1        -9.5070    2.0900    0.0700 ca        1 0EO     -0.128000
     21 CE2        -8.8510    1.0160   -1.9880 ca        1 0EO     -0.128000
     22 CZ         -9.8440    1.3690   -1.0740 ca        1 0EO     -0.132000
     23 N1          1.1510    0.2350   -0.5470 n         1 0EO     -0.554900
     24 CA2         2.2060   -0.7270   -0.3180 c3        1 0EO      0.105700
     25 CB1         1.8770   -2.1280   -0.8740 c3        1 0EO     -0.093400
     26 CG1         2.5560   -3.2230   -0.0660 c3        1 0EO     -0.063700
     27 CD11        2.7070   -4.4830   -0.9080 c3        1 0EO     -0.075400
     28 CD21        1.7680   -3.5360    1.2000 c3        1 0EO     -0.075400
     29 CE11        3.3660   -5.5940   -0.1160 c3        1 0EO     -0.076400
     30 CE21        2.4350   -4.6360    1.9980 c3        1 0EO     -0.076400
     31 CZ1         2.6110   -5.8890    1.1640 c3        1 0EO     -0.075400
     32 CH1         3.5540   -0.2520   -0.9270 c3        1 0EO      0.151100
     33 OH1         3.3330    0.0080   -2.3050 oh        1 0EO     -0.637800
     34 CM1         4.0850    0.9820   -0.2060 c3        1 0EO     -0.195400
     35 C5          5.5210    1.2790   -0.6290 c         1 0EO      0.640100
     36 O           5.9390    0.8440   -1.7340 o         1 0EO     -0.685100
     37 N2          6.2590    2.0840    0.1870 n         1 0EO     -0.498900
     38 CA3         7.6920    2.2650    0.0470 c3        1 0EO     -0.056300
     39 C6          8.4240    2.1300    1.4380 c         1 0EO      0.911600
     40 O3          7.7240    2.1590    2.4890 o         1 0EO     -0.828300
     41 CB2         8.0810    3.6280   -0.5330 c3        1 0EO     -0.066400
     42 CG2         7.6360    3.8570   -1.9690 c3        1 0EO     -0.066700
     43 CD12        7.9350    5.2870   -2.3760 c3        1 0EO     -0.088600
     44 CD22        8.3040    2.8890   -2.9220 c3        1 0EO     -0.088600
     45 OXT         9.6740    2.0020    1.3950 o         1 0EO     -0.828300
     46 H11        -4.3660   -3.1160    2.4800 hc        1 0EO      0.051478
     47 H12        -5.2950   -4.6020    2.0000 hc        1 0EO      0.051478
     48 H13        -4.7320   -3.4300    0.7300 hc        1 0EO      0.051478
     49 H21        -7.9420   -2.3560    3.4360 hc        1 0EO      0.051478
     50 H22        -7.2280   -4.0290    3.4830 hc        1 0EO      0.051478
     51 H23        -6.2660   -2.6050    4.0830 hc        1 0EO      0.051478
     52 H31        -7.0190   -3.1040   -0.1550 hc        1 0EO      0.051478
     53 H32        -7.7360   -4.2610    1.0510 hc        1 0EO      0.051478
     54 H33        -8.3630   -2.5590    0.9370 hc        1 0EO      0.051478
     55 HA1        -0.8580    2.2920    0.7340 hc        1 0EO      0.067200
     56 HM         -2.4790    0.2000   -0.8760 hc        1 0EO      0.071700
     57 HA         -4.7870    0.7090   -1.0880 h1        1 0EO      0.089700
     58 H          -5.5400    0.9580    1.7690 hn        1 0EO      0.317500
     59 HB2        -5.7070    3.2230    0.4980 hc        1 0EO      0.065200
     60 HB3        -5.4100    3.0890   -1.2810 hc        1 0EO      0.065200
     61 HD1        -7.9240    3.0290    1.2060 ha        1 0EO      0.133500
     62 HD2        -6.7440    1.0990   -2.4800 ha        1 0EO      0.133500
     63 HE1       -10.2870    2.3700    0.7940 ha        1 0EO      0.129500
     64 HE2        -9.1110    0.4440   -2.8910 ha        1 0EO      0.129500
     65 HZ        -10.8880    1.0780   -1.2560 ha        1 0EO      0.128000
     66 HCH        -3.2090    2.6800   -0.8020 h1        1 0EO      0.072700
     67 HO1        -3.1700    2.1490    1.9570 ho        1 0EO      0.411000
     68 HM1        -2.4070    0.2160    0.9320 hc        1 0EO      0.071700
     69 HA2        -0.7510    1.9290   -1.0370 hc        1 0EO      0.067200
     70 H1          1.1610    0.6980   -1.4260 hn        1 0EO      0.324500
     71 HA3         2.3480   -0.8110    0.8030 h1        1 0EO      0.081700
     72 HB21        0.7700   -2.3020   -0.8620 hc        1 0EO      0.052700
     73 HB31        2.2150   -2.1750   -1.9430 hc        1 0EO      0.052700
     74 HG          3.5860   -2.8780    0.2340 hc        1 0EO      0.054700
     75 HD12        1.6960   -4.8180   -1.2600 hc        1 0EO      0.043200
     76 HD13        3.3240   -4.2550   -1.8160 hc        1 0EO      0.043200
     77 HD23        1.6760   -2.6100    1.8270 hc        1 0EO      0.043200
     78 HD22        0.7280   -3.8530    0.9220 hc        1 0EO      0.043200
     79 HE12        3.4170   -6.5210   -0.7440 hc        1 0EO      0.037700
     80 HE13        4.4190   -5.2980    0.1340 hc        1 0EO      0.037700
     81 HE23        3.4380   -4.2830    2.3570 hc        1 0EO      0.037700
     82 HE22        1.8160   -4.8710    2.9020 hc        1 0EO      0.037700
     83 HZ2         1.6030   -6.3130    0.9120 hc        1 0EO      0.031700
     84 HZ3         3.1640   -6.6620    1.7570 hc        1 0EO      0.031700
     85 HH          4.2990   -1.0920   -0.8220 h1        1 0EO      0.057700
     86 HO          4.1920    0.2580   -2.6820 ho        1 0EO      0.446000
     87 HM11        3.4580    1.8740   -0.4660 hc        1 0EO      0.070700
     88 HM2         4.0230    0.8170    0.9000 hc        1 0EO      0.070700
     89 H2          5.9370    2.2350    1.1250 hn        1 0EO      0.328500
     90 HA4         8.0970    1.4580   -0.6290 h1        1 0EO      0.067700
     91 HB22        7.6600    4.4430    0.1140 hc        1 0EO      0.050200
     92 HB32        9.2010    3.6890   -0.4700 hc        1 0EO      0.050200
     93 HG1         6.5230    3.6970   -2.0330 hc        1 0EO      0.043700
     94 HD11        9.0320    5.4850   -2.3250 hc        1 0EO      0.026367
     95 HD14        7.5890    5.4770   -3.4210 hc        1 0EO      0.026367
     96 HD15        7.4150    6.0040   -1.6950 hc        1 0EO      0.026367
     97 HD21        7.9150    1.8550   -2.7460 hc        1 0EO      0.026367
     98 HD24        8.0880    3.1730   -3.9810 hc        1 0EO      0.026367
     99 HD25        9.4100    2.8880   -2.7730 hc        1 0EO      0.026367
@<TRIPOS>BOND
     1    1    2 2   
     2    2    3 1   
     3    2   15 1   
     4    3    4 1   
     5    4    5 1   
     6    4    6 1   
     7    4    7 1   
     8    5   46 1   
     9    5   47 1   
    10    5   48 1   
    11    6   49 1   
    12    6   50 1   
    13    6   51 1   
    14    7   52 1   
    15    7   53 1   
    16    7   54 1   
    17    8    9 2   
    18    8   10 1   
    19    8   23 1   
    20   10   11 1   
    21   10   55 1   
    22   10   69 1   
    23   11   12 1   
    24   11   56 1   
    25   11   68 1   
    26   12   13 1   
    27   12   14 1   
    28   12   66 1   
    29   13   67 1   
    30   14   15 1   
    31   14   16 1   
    32   14   57 1   
    33   15   58 1   
    34   16   17 1   
    35   16   59 1   
    36   16   60 1   
    37   17   18 ar  
    38   17   19 ar  
    39   18   20 ar  
    40   18   61 1   
    41   19   21 ar  
    42   19   62 1   
    43   20   22 ar  
    44   20   63 1   
    45   21   22 ar  
    46   21   64 1   
    47   22   65 1   
    48   23   24 1   
    49   23   70 1   
    50   24   25 1   
    51   24   32 1   
    52   24   71 1   
    53   25   26 1   
    54   25   72 1   
    55   25   73 1   
    56   26   27 1   
    57   26   28 1   
    58   26   74 1   
    59   27   29 1   
    60   27   75 1   
    61   27   76 1   
    62   28   30 1   
    63   28   77 1   
    64   28   78 1   
    65   29   31 1   
    66   29   79 1   
    67   29   80 1   
    68   30   31 1   
    69   30   81 1   
    70   30   82 1   
    71   31   83 1   
    72   31   84 1   
    73   32   33 1   
    74   32   34 1   
    75   32   85 1   
    76   33   86 1   
    77   34   35 1   
    78   34   87 1   
    79   34   88 1   
    80   35   36 2   
    81   35   37 1   
    82   37   38 1   
    83   37   89 1   
    84   38   39 1   
    85   38   41 1   
    86   38   90 1   
    87   39   40 1   
    88   39   45 1   
    89   41   42 1   
    90   41   91 1   
    91   41   92 1   
    92   42   43 1   
    93   42   44 1   
    94   42   93 1   
    95   43   94 1   
    96   43   95 1   
    97   43   96 1   
    98   44   97 1   
    99   44   98 1   
   100   44   99 1   
@<TRIPOS>SUBSTRUCTURE
     1 0EO         1 TEMP              0 ****  ****    0 ROOT
