@<TRIPOS>MOLECULE
0EU
   74    78     1     0     0
SMALL
bcc


@<TRIPOS>ATOM
      1 C1         -0.3130   -0.1220    0.2500 ca        1 0EU     -0.069800
      2 C2          1.0380    0.1980   -0.0200 ca        1 0EU     -0.086000
      3 C3          1.9860    0.0350    0.9670 ca        1 0EU     -0.090000
      4 C4          1.6290   -0.4500    2.2480 ca        1 0EU     -0.037000
      5 C5          0.3240   -0.8090    2.5290 ca        1 0EU     -0.103000
      6 C6         -0.6530   -0.6770    1.5300 ca        1 0EU     -0.069100
      7 S7         -2.2450   -1.1400    1.6080 ss        1 0EU      0.277500
      8 C8         -2.5550   -0.6980    0.0040 cc        1 0EU     -0.200400
      9 N9         -3.7370   -1.1050   -0.7060 n4        1 0EU     -0.444600
     10 C10        -4.7760   -0.0200   -0.8030 c         1 0EU      0.482100
     11 O10        -5.4110    0.3410    0.1740 o         1 0EU     -0.312100
     12 N11        -5.0220    0.6020   -2.1340 n4        1 0EU     -0.665800
     13 C14        -1.4480   -0.0610   -0.6040 cd        1 0EU     -0.033400
     14 C15        -1.5490    0.4890   -1.9810 c         1 0EU      0.667300
     15 N15        -0.9100    1.6020   -2.4120 n         1 0EU     -0.381800
     16 O15        -2.3620   -0.1100   -2.7710 o         1 0EU     -0.776100
     17 C16        -0.9040    1.9230   -3.8400 c3        1 0EU      0.068000
     18 C17         0.4460    2.4240   -4.3460 c3        1 0EU     -0.099400
     19 C18        -0.3120    2.6140   -1.5550 c3        1 0EU      0.068000
     20 C19         1.0370    3.1300   -2.0480 c3        1 0EU     -0.099400
     21 C20         0.9320    3.6140   -3.5080 c3        1 0EU      0.193500
     22 N20         2.2060    4.2030   -3.9380 n3        1 0EU     -0.727600
     23 C21         2.5190    3.9940   -5.3450 c3        1 0EU      0.166800
     24 C22         3.8290    4.6510   -5.7760 c3        1 0EU     -0.077400
     25 C23         3.8550    6.1190   -5.4190 c3        1 0EU     -0.072400
     26 C24         2.2740    5.6060   -3.5380 c3        1 0EU      0.176800
     27 C25         3.5750    6.3190   -3.9360 c3        1 0EU     -0.132000
     28 C26         3.3900    7.8050   -3.6470 c         1 0EU      0.712600
     29 O26         2.5190    8.5850   -4.0170 o         1 0EU     -0.565500
     30 O27         4.3640    8.3010   -2.8220 os        1 0EU     -0.390900
     31 C28         4.7710    5.9340   -3.0570 c3        1 0EU     -0.100400
     32 C29         5.3110    7.2510   -2.4590 c3        1 0EU      0.144800
     33 C30         6.6570    7.6330   -3.0500 c3        1 0EU     -0.102100
     34 C31         5.3680    7.2130   -0.9430 c3        1 0EU     -0.102100
     35 C35        -6.0370   -0.1850   -2.9350 c3        1 0EU      0.123800
     36 C36        -6.4060    0.5330   -4.2130 c3        1 0EU     -0.146100
     37 H2          1.3290    0.5500   -1.0230 ha        1 0EU      0.167000
     38 H3          3.0450    0.2740    0.7640 ha        1 0EU      0.180000
     39 H4          2.4110   -0.5540    3.0220 ha        1 0EU      0.184000
     40 H5          0.0530   -1.2080    3.5220 ha        1 0EU      0.178000
     41 HN9        -4.1730   -1.9020   -0.2080 hn        1 0EU      0.514300
     42 HN11       -4.1370    0.6840   -2.6900 hn        1 0EU      0.507300
     43 H16        -1.1930    1.0040   -4.4270 h1        1 0EU      0.069950
     44 H16A       -1.6850    2.7190   -4.0100 h1        1 0EU      0.069950
     45 H17         1.2020    1.5970   -4.3220 hc        1 0EU      0.080450
     46 H17A        0.2960    2.7270   -5.4170 hc        1 0EU      0.080450
     47 H18        -0.2070    2.2270   -0.5040 h1        1 0EU      0.069950
     48 H18A       -1.0390    3.4820   -1.5320 h1        1 0EU      0.069950
     49 H19         1.3360    3.9760   -1.3730 hc        1 0EU      0.080450
     50 H19A        1.8240    2.3380   -1.9700 hc        1 0EU      0.080450
     51 H20         0.1070    4.3960   -3.5450 h1        1 0EU      0.031700
     52 H21         2.6180    2.8840   -5.5140 h1        1 0EU      0.034200
     53 H21A        1.6940    4.3800   -6.0140 h1        1 0EU      0.034200
     54 H22         4.6930    4.1240   -5.2920 hc        1 0EU      0.061700
     55 H22A        3.9330    4.5280   -6.8850 hc        1 0EU      0.061700
     56 H23         4.8550    6.5570   -5.6780 hc        1 0EU      0.069200
     57 H23A        3.0780    6.6730   -6.0120 hc        1 0EU      0.069200
     58 H24         2.1750    5.6450   -2.4160 h1        1 0EU      0.047200
     59 H24A        1.4200    6.2040   -3.9820 h1        1 0EU      0.047200
     60 H28         4.4590    5.2360   -2.2420 hc        1 0EU      0.067700
     61 H28A        5.5650    5.4260   -3.6580 hc        1 0EU      0.067700
     62 H30         7.4310    6.8970   -2.7290 hc        1 0EU      0.054367
     63 H30A        6.6020    7.6480   -4.1650 hc        1 0EU      0.054367
     64 H30B        6.9510    8.6520   -2.6970 hc        1 0EU      0.054367
     65 H31         4.3650    6.9680   -0.5190 hc        1 0EU      0.054367
     66 H31A        6.1060    6.4420   -0.6170 hc        1 0EU      0.054367
     67 H31B        5.6830    8.2100   -0.5510 hc        1 0EU      0.054367
     68 H35        -6.9510   -0.3240   -2.2860 hx        1 0EU      0.113700
     69 H35A       -5.5760   -1.1870   -3.1690 hx        1 0EU      0.113700
     70 H36        -5.5250    0.6710   -4.8880 hc        1 0EU      0.102033
     71 H36A       -6.8840    1.5250   -4.0180 hc        1 0EU      0.102033
     72 H36B       -7.1560   -0.1070   -4.7540 hc        1 0EU      0.102033
     73 H92        -3.4210   -1.4030   -1.6650 hn        1 0EU      0.514300
     74 H112       -5.3960    1.5540   -1.9710 hn        1 0EU      0.507300
@<TRIPOS>BOND
     1    1    2 ar  
     2    1    6 ar  
     3    1   13 1   
     4    2    3 ar  
     5    2   37 1   
     6    3    4 ar  
     7    3   38 1   
     8    4    5 ar  
     9    4   39 1   
    10    5    6 ar  
    11    5   40 1   
    12    6    7 1   
    13    7    8 1   
    14    8    9 1   
    15    8   13 2   
    16    9   10 1   
    17    9   41 1   
    18    9   73 1   
    19   10   11 2   
    20   10   12 1   
    21   12   35 1   
    22   12   42 1   
    23   12   74 1   
    24   13   14 1   
    25   14   15 1   
    26   14   16 2   
    27   15   17 1   
    28   15   19 1   
    29   17   18 1   
    30   17   43 1   
    31   17   44 1   
    32   18   21 1   
    33   18   45 1   
    34   18   46 1   
    35   19   20 1   
    36   19   47 1   
    37   19   48 1   
    38   20   21 1   
    39   20   49 1   
    40   20   50 1   
    41   21   22 1   
    42   21   51 1   
    43   22   23 1   
    44   22   26 1   
    45   23   24 1   
    46   23   52 1   
    47   23   53 1   
    48   24   25 1   
    49   24   54 1   
    50   24   55 1   
    51   25   27 1   
    52   25   56 1   
    53   25   57 1   
    54   26   27 1   
    55   26   58 1   
    56   26   59 1   
    57   27   28 1   
    58   27   31 1   
    59   28   29 2   
    60   28   30 1   
    61   30   32 1   
    62   31   32 1   
    63   31   60 1   
    64   31   61 1   
    65   32   33 1   
    66   32   34 1   
    67   33   62 1   
    68   33   63 1   
    69   33   64 1   
    70   34   65 1   
    71   34   66 1   
    72   34   67 1   
    73   35   36 1   
    74   35   68 1   
    75   35   69 1   
    76   36   70 1   
    77   36   71 1   
    78   36   72 1   
@<TRIPOS>SUBSTRUCTURE
     1 0EU         1 TEMP              0 ****  ****    0 ROOT
