@<TRIPOS>MOLECULE
0EU
   72    69     1     0     0
SMALL
bcc


@<TRIPOS>ATOM
      1 C1          0.1130   -2.1950    3.1690 c1        1 0EU     -0.185500
      2 C2          1.4920   -2.2970    3.2920 c1        1 0EU     -0.110500
      3 C3          2.0740   -2.4080    4.5530 c1        1 0EU     -0.110500
      4 C4          1.2580   -2.4170    5.7110 c1        1 0EU     -0.110500
      5 C5         -0.1150   -2.3160    5.5920 c1        1 0EU     -0.110500
      6 C6         -0.7020   -2.2040    4.3270 c1        1 0EU     -0.185500
      7 S7         -2.2210   -2.2300    3.8590 s         1 0EU      0.618000
      8 C8         -2.2330   -2.2360    2.3190 c1        1 0EU     -0.137000
      9 N9         -3.4050   -2.5070    1.5330 n2        1 0EU     -0.298000
     10 C10        -4.4370   -3.3920    2.0450 c2        1 0EU      0.385000
     11 O10        -4.3070   -3.9010    3.1340 o         1 0EU     -0.382000
     12 N11        -5.7110   -3.5620    1.2920 n         1 0EU     -0.360000
     13 C14        -0.8530   -2.2150    1.8610 c1        1 0EU     -0.218000
     14 C15        -0.3920   -2.4350    0.4200 c1        1 0EU      0.363000
     15 N15        -0.7530   -1.4550   -0.6120 n3        1 0EU     -0.318000
     16 O15         0.0490   -3.5190    0.0900 o         1 0EU     -0.359000
     17 C16        -0.5970   -1.7510   -2.1690 c3        1 0EU     -0.035000
     18 C17         0.4800   -0.5710   -2.4760 c3        1 0EU     -0.177500
     19 C18        -1.2980   -0.1140   -0.2890 c3        1 0EU     -0.035000
     20 C19        -1.1620    0.7470   -1.3510 c3        1 0EU     -0.177500
     21 C20        -0.0610    0.8050   -2.1910 c3        1 0EU     -0.020000
     22 N20         1.0440    1.6620   -1.5250 n3        1 0EU     -0.255000
     23 C21         1.9230    1.1750   -1.5730 c3        1 0EU     -0.076000
     24 C22         2.5700    1.1790   -2.4140 c3        1 0EU     -0.186000
     25 C23         2.6080    2.5240   -3.0520 c3        1 0EU     -0.145000
     26 C24         1.1170    2.9860   -2.1980 c3        1 0EU     -0.046000
     27 C25         2.2380    3.3810   -2.3530 c3        1 0EU     -0.116000
     28 C26         2.2800    4.1750   -2.7200 c2        1 0EU      0.302000
     29 O26         1.7210    4.5220   -3.7800 o         1 0EU     -0.306000
     30 O27         3.0720    5.1670   -1.6800 os        1 0EU     -0.244000
     31 C28         3.0220    3.4070   -1.0170 c3        1 0EU     -0.181000
     32 C29         3.6010    4.4840   -0.9530 c3        1 0EU      0.074000
     33 C30         5.0940    4.3190   -1.3620 c3        1 0EU     -0.219000
     34 C31         3.5020    5.0390    0.4500 c3        1 0EU     -0.219000
     35 C35        -6.6560   -4.6400    1.6660 c3        1 0EU     -0.026000
     36 C36        -7.6060   -4.9450    0.4610 c3        1 0EU     -0.226000
     37 H2          2.0520   -2.2900    2.4980 ha        1 0EU      0.136000
     38 H3          3.0510   -2.4790    4.6390 ha        1 0EU      0.136000
     39 H4          1.6710   -2.4960    6.6060 ha        1 0EU      0.136000
     40 H5         -0.6820   -2.3230    6.3990 ha        1 0EU      0.136000
     41 HN9        -3.5370   -2.0670    0.7510 hn        1 0EU      0.250000
     42 HN11       -5.8960   -3.0210    0.5850 hn        1 0EU      0.219000
     43 H16        -1.4360   -1.6120   -2.6510 h1        1 0EU      0.094500
     44 H16A       -0.2170   -2.6390   -2.3320 h1        1 0EU      0.094500
     45 H17         1.2860   -0.7200   -1.9170 hc        1 0EU      0.092000
     46 H17A        0.7350   -0.6180   -3.4130 hc        1 0EU      0.092000
     47 H18        -0.8110    0.2530    0.4880 h1        1 0EU      0.094500
     48 H18A       -2.2570   -0.2000   -0.0610 h1        1 0EU      0.094500
     49 H19        -1.2670    1.6680   -0.9720 hc        1 0EU      0.092000
     50 H19A       -1.9400    0.5890   -1.9310 hc        1 0EU      0.092000
     51 H20        -0.3300    1.2310   -3.0490 h1        1 0EU      0.105000
     52 H21         2.4510    1.5000   -0.8250 h1        1 0EU      0.102500
     53 H21A        1.7270    0.2530   -1.3950 h1        1 0EU      0.102500
     54 H22         2.2550    0.5260   -3.0630 hc        1 0EU      0.086500
     55 H22A        3.4900    0.9310   -2.1190 hc        1 0EU      0.086500
     56 H23         2.0440    2.5060   -3.8550 hc        1 0EU      0.095500
     57 H23A        3.5310    2.7150   -3.3210 hc        1 0EU      0.095500
     58 H24         0.6310    3.6320   -1.6640 h1        1 0EU      0.101500
     59 H24A        0.6810    2.9150   -3.0820 h1        1 0EU      0.101500
     60 H28         3.6740    2.6780   -0.9990 hc        1 0EU      0.105500
     61 H28A        2.4170    3.3200   -0.2840 hc        1 0EU      0.105500
     62 H30         5.6110    5.1280   -1.0750 hc        1 0EU      0.089667
     63 H30A        5.4670    3.5190   -0.9270 hc        1 0EU      0.089667
     64 H30B        5.1570    4.2210   -2.3390 hc        1 0EU      0.089667
     65 H31         2.5770    5.0250    0.7370 hc        1 0EU      0.089667
     66 H31A        3.8290    5.9450    0.4620 hc        1 0EU      0.089667
     67 H31B        4.0480    4.4810    1.0640 hc        1 0EU      0.089667
     68 H35        -7.1970   -4.3490    2.4500 h1        1 0EU      0.096000
     69 H35A       -6.1500   -5.4560    1.9000 h1        1 0EU      0.096000
     70 H36        -8.0950   -5.7780    0.6330 hc        1 0EU      0.085333
     71 H36A       -8.2410   -4.2130    0.3540 hc        1 0EU      0.085333
     72 H36B       -7.0780   -5.0390   -0.3560 hc        1 0EU      0.085333
@<TRIPOS>BOND
     1    1    6 1   
     2    2    3 1   
     3    2   37 1   
     4    3   38 1   
     5    4    5 1   
     6    4   39 1   
     7    5   40 1   
     8    7    8 1   
     9    8   13 1   
    10    9   10 1   
    11    9   41 1   
    12   10   11 1   
    13   10   12 1   
    14   12   35 1   
    15   12   42 1   
    16   14   15 1   
    17   14   16 1   
    18   15   17 1   
    19   15   19 1   
    20   17   18 1   
    21   17   43 1   
    22   17   44 1   
    23   18   21 1   
    24   18   45 1   
    25   18   46 1   
    26   19   20 1   
    27   19   47 1   
    28   19   48 1   
    29   20   21 1   
    30   20   49 1   
    31   20   50 1   
    32   21   22 1   
    33   21   51 1   
    34   22   23 1   
    35   22   26 1   
    36   23   24 1   
    37   23   52 1   
    38   23   53 1   
    39   24   25 1   
    40   24   54 1   
    41   24   55 1   
    42   25   27 1   
    43   25   56 1   
    44   25   57 1   
    45   26   27 1   
    46   26   58 1   
    47   26   59 1   
    48   27   28 1   
    49   27   31 1   
    50   28   29 1   
    51   28   30 1   
    52   30   32 1   
    53   31   32 1   
    54   31   60 1   
    55   31   61 1   
    56   32   33 1   
    57   32   34 1   
    58   33   62 1   
    59   33   63 1   
    60   33   64 1   
    61   34   65 1   
    62   34   66 1   
    63   34   67 1   
    64   35   36 1   
    65   35   68 1   
    66   35   69 1   
    67   36   70 1   
    68   36   71 1   
    69   36   72 1   
@<TRIPOS>SUBSTRUCTURE
     1 0EU         1 TEMP              0 ****  ****    0 ROOT
