@<TRIPOS>MOLECULE
0EU
   73    77     1     0     0
SMALL
bcc


@<TRIPOS>ATOM
      1 C1         -0.3370   -0.0050    0.2080 ca        1 0EU     -0.055800
      2 C2          1.0220    0.2000   -0.0980 ca        1 0EU     -0.099000
      3 C3          1.9770   -0.0150    0.8770 ca        1 0EU     -0.107000
      4 C4          1.6080   -0.4370    2.1710 ca        1 0EU     -0.093000
      5 C5          0.2830   -0.6710    2.4870 ca        1 0EU     -0.089000
      6 C6         -0.7010   -0.4740    1.5050 ca        1 0EU     -0.106100
      7 S7         -2.3430   -0.7680    1.6310 ss        1 0EU      0.223500
      8 C8         -2.6380   -0.3410    0.0250 cc        1 0EU     -0.055800
      9 N9         -3.8990   -0.5750   -0.5700 ns        1 0EU     -0.332100
     10 C10        -4.5830    0.5450   -1.0670 c         1 0EU      0.633100
     11 O10        -4.8500    1.5940   -0.4860 o         1 0EU     -0.444100
     12 N11        -5.1840    0.4440   -2.4770 ny        1 0EU     -0.685800
     13 C14        -1.4930    0.1230   -0.6310 cd        1 0EU     -0.131400
     14 C15        -1.5640    0.5990   -2.0330 c         1 0EU      0.701300
     15 N15        -0.8560    1.6820   -2.4810 n         1 0EU     -0.431800
     16 O15        -2.3590    0.0100   -2.8260 o         1 0EU     -0.737100
     17 C16        -0.8290    1.9850   -3.9020 c3        1 0EU      0.080500
     18 C17         0.5300    2.4820   -4.3930 c3        1 0EU     -0.094900
     19 C18        -0.2900    2.7020   -1.6210 c3        1 0EU      0.080500
     20 C19         1.0700    3.2160   -2.0870 c3        1 0EU     -0.094900
     21 C20         1.0000    3.6790   -3.5550 c3        1 0EU      0.190500
     22 N20         2.2840    4.2630   -3.9660 n3        1 0EU     -0.731600
     23 C21         2.6390    4.0310   -5.3590 c3        1 0EU      0.169800
     24 C22         3.9790    4.6530   -5.7470 c3        1 0EU     -0.078400
     25 C23         4.0340    6.1220   -5.3970 c3        1 0EU     -0.069400
     26 C24         2.3480    5.6730   -3.5950 c3        1 0EU      0.178800
     27 C25         3.6910    6.3420   -3.9290 c3        1 0EU     -0.130000
     28 C26         3.5520    7.8340   -3.6560 c         1 0EU      0.713600
     29 O26         2.7640    8.6610   -4.0990 o         1 0EU     -0.568500
     30 O27         4.4770    8.2870   -2.7500 os        1 0EU     -0.398900
     31 C28         4.8220    5.9110   -2.9890 c3        1 0EU     -0.100400
     32 C29         5.3370    7.1960   -2.3070 c3        1 0EU      0.144800
     33 C30         6.7530    7.5380   -2.7330 c3        1 0EU     -0.100600
     34 C31         5.2220    7.1260   -0.7940 c3        1 0EU     -0.100600
     35 C35        -6.2680   -0.5760   -2.5650 c3        1 0EU      0.111800
     36 C36        -6.9800   -0.5540   -3.9010 c3        1 0EU     -0.136100
     37 H2          1.3150    0.5140   -1.1120 ha        1 0EU      0.152000
     38 H3          3.0440    0.1380    0.6470 ha        1 0EU      0.154000
     39 H4          2.3920   -0.5910    2.9310 ha        1 0EU      0.157000
     40 H5         -0.0040   -1.0150    3.4930 ha        1 0EU      0.155000
     41 HN9        -3.8290   -1.3470   -1.2200 hn        1 0EU      0.327500
     42 HN11       -5.5670    1.3680   -2.7140 hn        1 0EU      0.475800
     43 H16        -1.1060    1.0580   -4.4820 h1        1 0EU      0.061700
     44 H16A       -1.6070    2.7760   -4.1100 h1        1 0EU      0.061700
     45 H17         1.2840    1.6550   -4.3410 hc        1 0EU      0.067450
     46 H17A        0.4040    2.7750   -5.4680 hc        1 0EU      0.067450
     47 H18        -1.0150    3.5710   -1.6040 h1        1 0EU      0.061700
     48 H18A       -0.1960    2.3150   -0.5680 h1        1 0EU      0.061700
     49 H19         1.3560    4.0680   -1.4180 hc        1 0EU      0.067450
     50 H19A        1.8520    2.4210   -1.9800 hc        1 0EU      0.067450
     51 H20         0.1800    4.4630   -3.6230 h1        1 0EU      0.030700
     52 H21         1.8470    4.4270   -6.0610 h1        1 0EU      0.034200
     53 H21A        2.7180    2.9180   -5.5140 h1        1 0EU      0.034200
     54 H22         4.8120    4.1070   -5.2300 hc        1 0EU      0.056200
     55 H22A        4.1190    4.5210   -6.8520 hc        1 0EU      0.056200
     56 H23         5.0570    6.5280   -5.6120 hc        1 0EU      0.063200
     57 H23A        3.3010    6.6940   -6.0270 hc        1 0EU      0.063200
     58 H24         1.5380    6.2760   -4.1070 h1        1 0EU      0.047700
     59 H24A        2.1800    5.7430   -2.4830 h1        1 0EU      0.047700
     60 H28         4.4510    5.1840   -2.2250 hc        1 0EU      0.069700
     61 H28A        5.6480    5.4150   -3.5570 hc        1 0EU      0.069700
     62 H30         7.0460    8.5310   -2.3150 hc        1 0EU      0.051867
     63 H30A        7.4570    6.7590   -2.3570 hc        1 0EU      0.051867
     64 H30B        6.8220    7.5890   -3.8460 hc        1 0EU      0.051867
     65 H31         4.1700    6.9060   -0.4930 hc        1 0EU      0.051867
     66 H31A        5.8920    6.3230   -0.4060 hc        1 0EU      0.051867
     67 H31B        5.5210    8.1040   -0.3450 hc        1 0EU      0.051867
     68 H35        -5.8080   -1.5920   -2.3950 hx        1 0EU      0.104200
     69 H35A       -7.0010   -0.3680   -1.7320 hx        1 0EU      0.104200
     70 H36        -6.2820   -0.7750   -4.7460 hc        1 0EU      0.080033
     71 H36A       -7.7710   -1.3480   -3.8860 hc        1 0EU      0.080033
     72 H36B       -7.4780    0.4280   -4.0890 hc        1 0EU      0.080033
     73 H112       -4.4270    0.2210   -3.1450 hn        1 0EU      0.475800
@<TRIPOS>BOND
     1    1    2 ar  
     2    1    6 ar  
     3    1   13 1   
     4    2    3 ar  
     5    2   37 1   
     6    3    4 ar  
     7    3   38 1   
     8    4    5 ar  
     9    4   39 1   
    10    5    6 ar  
    11    5   40 1   
    12    6    7 1   
    13    7    8 1   
    14    8    9 1   
    15    8   13 2   
    16    9   10 1   
    17    9   41 1   
    18   10   11 2   
    19   10   12 1   
    20   12   35 1   
    21   12   42 1   
    22   12   73 1   
    23   13   14 1   
    24   14   15 1   
    25   14   16 2   
    26   15   17 1   
    27   15   19 1   
    28   17   18 1   
    29   17   43 1   
    30   17   44 1   
    31   18   21 1   
    32   18   45 1   
    33   18   46 1   
    34   19   20 1   
    35   19   47 1   
    36   19   48 1   
    37   20   21 1   
    38   20   49 1   
    39   20   50 1   
    40   21   22 1   
    41   21   51 1   
    42   22   23 1   
    43   22   26 1   
    44   23   24 1   
    45   23   52 1   
    46   23   53 1   
    47   24   25 1   
    48   24   54 1   
    49   24   55 1   
    50   25   27 1   
    51   25   56 1   
    52   25   57 1   
    53   26   27 1   
    54   26   58 1   
    55   26   59 1   
    56   27   28 1   
    57   27   31 1   
    58   28   29 2   
    59   28   30 1   
    60   30   32 1   
    61   31   32 1   
    62   31   60 1   
    63   31   61 1   
    64   32   33 1   
    65   32   34 1   
    66   33   62 1   
    67   33   63 1   
    68   33   64 1   
    69   34   65 1   
    70   34   66 1   
    71   34   67 1   
    72   35   36 1   
    73   35   68 1   
    74   35   69 1   
    75   36   70 1   
    76   36   71 1   
    77   36   72 1   
@<TRIPOS>SUBSTRUCTURE
     1 0EU         1 TEMP              0 ****  ****    0 ROOT
