@<TRIPOS>MOLECULE
0EU
   72    76     1     0     0
SMALL
bcc


@<TRIPOS>ATOM
      1 C1          2.4080    2.5830   -0.5730 ca        1 0EU     -0.021800
      2 C2          1.4910    3.4300   -1.2150 ca        1 0EU     -0.100000
      3 C3          1.4180    4.7580   -0.8300 ca        1 0EU     -0.123000
      4 C4          2.2510    5.2580    0.1880 ca        1 0EU     -0.132000
      5 C5          3.1700    4.4370    0.8210 ca        1 0EU     -0.084000
      6 C6          3.2610    3.0910    0.4430 ca        1 0EU     -0.136100
      7 S7          4.2970    1.9060    1.0360 ss        1 0EU      0.150500
      8 C8          3.6670    0.6920    0.0050 cc        1 0EU      0.110200
      9 N9          4.1530   -0.6020   -0.0460 n         1 0EU     -0.461100
     10 C10         5.1240   -1.0730    0.8640 c         1 0EU      0.758100
     11 O10         5.6190   -0.2920    1.7140 o         1 0EU     -0.620100
     12 N11         5.4790   -2.4260    0.8180 n         1 0EU     -0.545900
     13 C14         2.6420    1.1820   -0.8000 cd        1 0EU     -0.235400
     14 C15         1.8980    0.4240   -1.8240 c         1 0EU      0.683300
     15 N15         1.2960   -0.7950   -1.4440 n         1 0EU     -0.459800
     16 O15         1.8610    0.7960   -3.0120 o         1 0EU     -0.580100
     17 C16         0.5340   -1.5220   -2.4440 c3        1 0EU      0.069500
     18 C17        -0.9790   -1.3270   -2.3640 c3        1 0EU     -0.106400
     19 C18         0.7820   -0.9620   -0.1010 c3        1 0EU      0.069500
     20 C19        -0.7280   -0.7510    0.0410 c3        1 0EU     -0.106400
     21 C20        -1.4880   -1.6470   -0.9460 c3        1 0EU      0.190500
     22 N20        -2.9540   -1.5320   -0.8900 n3        1 0EU     -0.734600
     23 C21        -3.5940   -2.7530   -1.3670 c3        1 0EU      0.168800
     24 C22        -5.1160   -2.6520   -1.4120 c3        1 0EU     -0.077400
     25 C23        -5.6730   -2.2290   -0.0720 c3        1 0EU     -0.067400
     26 C24        -3.4750   -1.0950    0.3940 c3        1 0EU      0.183800
     27 C25        -5.0100   -0.9450    0.4070 c3        1 0EU     -0.129000
     28 C26        -5.4410   -0.6450    1.8350 c         1 0EU      0.715600
     29 O26        -5.3390   -1.3000    2.8660 o         1 0EU     -0.573500
     30 O27        -6.0480    0.5820    1.9510 os        1 0EU     -0.406900
     31 C28        -5.4780    0.2880   -0.3760 c3        1 0EU     -0.101400
     32 C29        -6.0930    1.2540    0.6580 c3        1 0EU      0.143800
     33 C30        -7.5520    1.5540    0.3620 c3        1 0EU     -0.100100
     34 C31        -5.2860    2.5340    0.7880 c3        1 0EU     -0.100100
     35 C35         6.6340   -2.8450    1.5800 c3        1 0EU      0.087000
     36 C36         6.8110   -4.3540    1.6010 c3        1 0EU     -0.108100
     37 H2          0.8620    3.0300   -2.0250 ha        1 0EU      0.149000
     38 H3          0.7070    5.4360   -1.3240 ha        1 0EU      0.132000
     39 H4          2.1710    6.3170    0.4760 ha        1 0EU      0.132000
     40 H5          3.8250    4.8320    1.6100 ha        1 0EU      0.136000
     41 HN9         3.6990   -1.2350   -0.6670 hn        1 0EU      0.340500
     42 HN11        5.2850   -2.9460   -0.0060 hn        1 0EU      0.303500
     43 H16         0.8850   -1.2210   -3.4720 h1        1 0EU      0.061200
     44 H16A        0.7700   -2.6150   -2.2950 h1        1 0EU      0.061200
     45 H17        -1.2470   -0.2740   -2.6350 hc        1 0EU      0.059700
     46 H17A       -1.4560   -2.0050   -3.1170 hc        1 0EU      0.059700
     47 H18         1.0280   -2.0180    0.2130 h1        1 0EU      0.061200
     48 H18A        1.3060   -0.2580    0.6040 h1        1 0EU      0.061200
     49 H19        -1.0040   -1.0040    1.0970 hc        1 0EU      0.059700
     50 H19A       -0.9810    0.3250   -0.1400 hc        1 0EU      0.059700
     51 H20        -1.1820   -2.7170   -0.7110 h1        1 0EU      0.024700
     52 H21        -3.2160   -2.9520   -2.4090 h1        1 0EU      0.034200
     53 H21A       -3.3160   -3.6430   -0.7270 h1        1 0EU      0.034200
     54 H22        -5.4250   -1.9170   -2.2010 hc        1 0EU      0.051700
     55 H22A       -5.5300   -3.6530   -1.6970 hc        1 0EU      0.051700
     56 H23        -6.7820   -2.0800   -0.1470 hc        1 0EU      0.057700
     57 H23A       -5.4880   -3.0330    0.6910 hc        1 0EU      0.057700
     58 H24        -3.1990   -1.8050    1.2300 h1        1 0EU      0.047200
     59 H24A       -3.0340   -0.0840    0.6270 h1        1 0EU      0.047200
     60 H28        -4.6230    0.7740   -0.9090 hc        1 0EU      0.072700
     61 H28A       -6.2400    0.0050   -1.1430 hc        1 0EU      0.072700
     62 H30        -7.9810    2.1890    1.1740 hc        1 0EU      0.050033
     63 H30A       -7.6320    2.0960   -0.6100 hc        1 0EU      0.050033
     64 H30B       -8.1390    0.6070    0.3040 hc        1 0EU      0.050033
     65 H31        -4.2180    2.2980    1.0110 hc        1 0EU      0.050033
     66 H31A       -5.3430    3.1110   -0.1650 hc        1 0EU      0.050033
     67 H31B       -5.6930    3.1570    1.6210 hc        1 0EU      0.050033
     68 H35         7.5690   -2.3680    1.1630 h1        1 0EU      0.057200
     69 H35A        6.5050   -2.4610    2.6340 h1        1 0EU      0.057200
     70 H36         5.9240   -4.8600    2.0510 hc        1 0EU      0.046033
     71 H36A        6.9700   -4.7600    0.5730 hc        1 0EU      0.046033
     72 H36B        7.7100   -4.5940    2.2190 hc        1 0EU      0.046033
@<TRIPOS>BOND
     1    1    2 ar  
     2    1    6 ar  
     3    1   13 1   
     4    2    3 ar  
     5    2   37 1   
     6    3    4 ar  
     7    3   38 1   
     8    4    5 ar  
     9    4   39 1   
    10    5    6 ar  
    11    5   40 1   
    12    6    7 1   
    13    7    8 1   
    14    8    9 1   
    15    8   13 2   
    16    9   10 1   
    17    9   41 1   
    18   10   11 2   
    19   10   12 1   
    20   12   35 1   
    21   12   42 1   
    22   13   14 1   
    23   14   15 1   
    24   14   16 2   
    25   15   17 1   
    26   15   19 1   
    27   17   18 1   
    28   17   43 1   
    29   17   44 1   
    30   18   21 1   
    31   18   45 1   
    32   18   46 1   
    33   19   20 1   
    34   19   47 1   
    35   19   48 1   
    36   20   21 1   
    37   20   49 1   
    38   20   50 1   
    39   21   22 1   
    40   21   51 1   
    41   22   23 1   
    42   22   26 1   
    43   23   24 1   
    44   23   52 1   
    45   23   53 1   
    46   24   25 1   
    47   24   54 1   
    48   24   55 1   
    49   25   27 1   
    50   25   56 1   
    51   25   57 1   
    52   26   27 1   
    53   26   58 1   
    54   26   59 1   
    55   27   28 1   
    56   27   31 1   
    57   28   29 2   
    58   28   30 1   
    59   30   32 1   
    60   31   32 1   
    61   31   60 1   
    62   31   61 1   
    63   32   33 1   
    64   32   34 1   
    65   33   62 1   
    66   33   63 1   
    67   33   64 1   
    68   34   65 1   
    69   34   66 1   
    70   34   67 1   
    71   35   36 1   
    72   35   68 1   
    73   35   69 1   
    74   36   70 1   
    75   36   71 1   
    76   36   72 1   
@<TRIPOS>SUBSTRUCTURE
     1 0EU         1 TEMP              0 ****  ****    0 ROOT
