@<TRIPOS>MOLECULE
0EU
   73    77     1     0     0
SMALL
bcc


@<TRIPOS>ATOM
      1 C1         -0.3340    0.0040    0.2180 ca        1 0EU     -0.055800
      2 C2          1.0250    0.2080   -0.0910 ca        1 0EU     -0.099000
      3 C3          1.9810   -0.0040    0.8830 ca        1 0EU     -0.107000
      4 C4          1.6150   -0.4240    2.1790 ca        1 0EU     -0.093000
      5 C5          0.2910   -0.6560    2.4980 ca        1 0EU     -0.089000
      6 C6         -0.6950   -0.4620    1.5170 ca        1 0EU     -0.106100
      7 S7         -2.3370   -0.7560    1.6470 ss        1 0EU      0.223500
      8 C8         -2.6350   -0.3330    0.0400 cc        1 0EU     -0.055800
      9 N9         -3.8970   -0.5690   -0.5520 n         1 0EU     -0.332100
     10 C10        -4.5820    0.5490   -1.0500 c         1 0EU      0.633100
     11 O10        -4.8480    1.6000   -0.4720 o         1 0EU     -0.444100
     12 N11        -5.1860    0.4450   -2.4590 n4        1 0EU     -0.685800
     13 C14        -1.4910    0.1300   -0.6200 cd        1 0EU     -0.131400
     14 C15        -1.5650    0.6010   -2.0220 c         1 0EU      0.701300
     15 N15        -0.8570    1.6830   -2.4740 n         1 0EU     -0.431800
     16 O15        -2.3620    0.0110   -2.8120 o         1 0EU     -0.737100
     17 C16        -0.8340    1.9830   -3.8970 c3        1 0EU      0.080500
     18 C17         0.5240    2.4790   -4.3910 c3        1 0EU     -0.094900
     19 C18        -0.2890    2.7050   -1.6180 c3        1 0EU      0.080500
     20 C19         1.0700    3.2180   -2.0890 c3        1 0EU     -0.094900
     21 C20         0.9970    3.6780   -3.5580 c3        1 0EU      0.190500
     22 N20         2.2800    4.2600   -3.9730 n3        1 0EU     -0.731600
     23 C21         2.6290    4.0270   -5.3670 c3        1 0EU      0.169800
     24 C22         3.9680    4.6480   -5.7610 c3        1 0EU     -0.078400
     25 C23         4.0260    6.1170   -5.4110 c3        1 0EU     -0.069400
     26 C24         2.3470    5.6690   -3.6030 c3        1 0EU      0.178800
     27 C25         3.6890    6.3370   -3.9420 c3        1 0EU     -0.130000
     28 C26         3.5530    7.8290   -3.6680 c         1 0EU      0.713600
     29 O26         2.7640    8.6570   -4.1070 o         1 0EU     -0.568500
     30 O27         4.4830    8.2810   -2.7660 os        1 0EU     -0.398900
     31 C28         4.8240    5.9040   -3.0070 c3        1 0EU     -0.100400
     32 C29         5.3440    7.1890   -2.3270 c3        1 0EU      0.144800
     33 C30         6.7590    7.5290   -2.7610 c3        1 0EU     -0.100600
     34 C31         5.2370    7.1190   -0.8140 c3        1 0EU     -0.100600
     35 C35        -6.2690   -0.5760   -2.5420 c3        1 0EU      0.111800
     36 C36        -6.9840   -0.5580   -3.8780 c3        1 0EU     -0.136100
     37 H2          1.3170    0.5190   -1.1060 ha        1 0EU      0.152000
     38 H3          3.0480    0.1480    0.6510 ha        1 0EU      0.154000
     39 H4          2.4010   -0.5750    2.9370 ha        1 0EU      0.157000
     40 H5          0.0050   -0.9980    3.5050 ha        1 0EU      0.155000
     41 HN9        -3.8280   -1.3430   -1.2000 hn        1 0EU      0.327500
     42 HN11       -5.5700    1.3680   -2.6970 hn        1 0EU      0.475800
     43 H16        -1.6120    2.7740   -4.1040 h1        1 0EU      0.061700
     44 H16A       -1.1130    1.0550   -4.4730 h1        1 0EU      0.061700
     45 H17         0.3950    2.7690   -5.4670 hc        1 0EU      0.067450
     46 H17A        1.2780    1.6510   -4.3400 hc        1 0EU      0.067450
     47 H18        -1.0140    3.5740   -1.6020 h1        1 0EU      0.061700
     48 H18A       -0.1930    2.3210   -0.5650 h1        1 0EU      0.061700
     49 H19         1.3570    4.0710   -1.4220 hc        1 0EU      0.067450
     50 H19A        1.8510    2.4220   -1.9810 hc        1 0EU      0.067450
     51 H20         0.1770    4.4620   -3.6250 h1        1 0EU      0.030700
     52 H21         2.7070    2.9140   -5.5230 h1        1 0EU      0.034200
     53 H21A        1.8340    4.4240   -6.0660 h1        1 0EU      0.034200
     54 H22         4.8020    4.1010   -5.2480 hc        1 0EU      0.056200
     55 H22A        4.1030    4.5170   -6.8670 hc        1 0EU      0.056200
     56 H23         5.0480    6.5220   -5.6300 hc        1 0EU      0.063200
     57 H23A        3.2910    6.6900   -6.0380 hc        1 0EU      0.063200
     58 H24         1.5360    6.2740   -4.1110 h1        1 0EU      0.047700
     59 H24A        2.1840    5.7390   -2.4900 h1        1 0EU      0.047700
     60 H28         4.4550    5.1780   -2.2400 hc        1 0EU      0.069700
     61 H28A        5.6470    5.4070   -3.5780 hc        1 0EU      0.069700
     62 H30         6.8210    7.5800   -3.8750 hc        1 0EU      0.051867
     63 H30A        7.4630    6.7490   -2.3880 hc        1 0EU      0.051867
     64 H30B        7.0550    8.5210   -2.3450 hc        1 0EU      0.051867
     65 H31         5.5400    8.0960   -0.3670 hc        1 0EU      0.051867
     66 H31A        5.9070    6.3150   -0.4290 hc        1 0EU      0.051867
     67 H31B        4.1860    6.9010   -0.5080 hc        1 0EU      0.051867
     68 H35        -7.0010   -0.3660   -1.7080 hx        1 0EU      0.104200
     69 H35A       -5.8090   -1.5910   -2.3710 hx        1 0EU      0.104200
     70 H36        -7.7740   -1.3520   -3.8590 hc        1 0EU      0.080033
     71 H36A       -6.2870   -0.7800   -4.7230 hc        1 0EU      0.080033
     72 H36B       -7.4830    0.4240   -4.0660 hc        1 0EU      0.080033
     73 H112       -4.4300    0.2200   -3.1280 hn        1 0EU      0.475800
@<TRIPOS>BOND
     1    1    2 ar  
     2    1    6 ar  
     3    1   13 1   
     4    2    3 ar  
     5    2   37 1   
     6    3    4 ar  
     7    3   38 1   
     8    4    5 ar  
     9    4   39 1   
    10    5    6 ar  
    11    5   40 1   
    12    6    7 1   
    13    7    8 1   
    14    8    9 1   
    15    8   13 2   
    16    9   10 1   
    17    9   41 1   
    18   10   11 2   
    19   10   12 1   
    20   12   35 1   
    21   12   42 1   
    22   12   73 1   
    23   13   14 1   
    24   14   15 1   
    25   14   16 2   
    26   15   17 1   
    27   15   19 1   
    28   17   18 1   
    29   17   43 1   
    30   17   44 1   
    31   18   21 1   
    32   18   45 1   
    33   18   46 1   
    34   19   20 1   
    35   19   47 1   
    36   19   48 1   
    37   20   21 1   
    38   20   49 1   
    39   20   50 1   
    40   21   22 1   
    41   21   51 1   
    42   22   23 1   
    43   22   26 1   
    44   23   24 1   
    45   23   52 1   
    46   23   53 1   
    47   24   25 1   
    48   24   54 1   
    49   24   55 1   
    50   25   27 1   
    51   25   56 1   
    52   25   57 1   
    53   26   27 1   
    54   26   58 1   
    55   26   59 1   
    56   27   28 1   
    57   27   31 1   
    58   28   29 2   
    59   28   30 1   
    60   30   32 1   
    61   31   32 1   
    62   31   60 1   
    63   31   61 1   
    64   32   33 1   
    65   32   34 1   
    66   33   62 1   
    67   33   63 1   
    68   33   64 1   
    69   34   65 1   
    70   34   66 1   
    71   34   67 1   
    72   35   36 1   
    73   35   68 1   
    74   35   69 1   
    75   36   70 1   
    76   36   71 1   
    77   36   72 1   
@<TRIPOS>SUBSTRUCTURE
     1 0EU         1 TEMP              0 ****  ****    0 ROOT
