@<TRIPOS>MOLECULE
0EV
   65    59     1     0     0
SMALL
bcc


@<TRIPOS>ATOM
      1 C1          3.4650    2.2550   -1.7890 c3        1 0EV     -0.070000
      2 N1          3.2970    2.1090   -0.3490 n3        1 0EV     -0.302000
      3 C2          2.0450    2.7480    0.0640 c3        1 0EV     -0.071000
      4 C3          1.4940    2.0410    1.3270 c3        1 0EV     -0.110000
      5 C4         -0.0710    2.1550    1.3510 c2        1 0EV     -0.061000
      6 C5         -0.6610    3.4370    1.4640 c2        1 0EV      0.041000
      7 N2          0.1780    4.6050    1.7110 n2        1 0EV     -0.190000
      8 C6         -0.4300    5.9170    1.8730 c1        1 0EV      0.064000
      9 N3         -1.8530    6.0620    1.7900 n2        1 0EV     -0.342000
     10 C7         -2.6610    4.9370    1.5520 c1        1 0EV      0.344000
     11 C8         -2.0350    3.5670    1.4560 c1        1 0EV     -0.176000
     12 C9         -2.8540    2.4200    1.3350 c1        1 0EV     -0.015000
     13 C10        -2.2630    1.1320    1.2210 c1        1 0EV     -0.065000
     14 C11        -0.8970    1.0010    1.2290 c1        1 0EV     -0.001000
     15 N4         -0.6040   -0.3230    1.1420 n1        1 0EV     -0.209500
     16 C12        -1.7850   -1.0160    1.0800 c1        1 0EV      0.116000
     17 N5         -2.8040   -0.1150    1.1290 n1        1 0EV     -0.209500
     18 N6         -1.9320   -2.4570    0.9440 n2        1 0EV     -0.252000
     19 C13        -3.2260   -3.0270    0.6240 c3        1 0EV     -0.055000
     20 O1         -3.8630    5.0700    1.4020 o         1 0EV     -0.347000
     21 H1          3.8360    3.1380   -1.9850 h1        1 0EV      0.069000
     22 H2          2.5960    2.1600   -2.2290 h1        1 0EV      0.069000
     23 H3          3.2720    1.2230   -0.1340 hn        1 0EV      0.146000
     24 H5          1.3950    2.6800   -0.6540 h1        1 0EV      0.076500
     25 H6          2.2120    3.6920    0.2660 h1        1 0EV      0.076500
     26 H7          1.7510    1.1010    1.3100 hc        1 0EV      0.095500
     27 H8          1.8660    2.4670    2.1290 hc        1 0EV      0.095500
     28 H9          0.1310    6.6970    2.0380 ha        1 0EV      0.182000
     29 H10        -2.2360    6.8890    1.8930 hn        1 0EV      0.252000
     30 H11        -3.8280    2.5120    1.3430 ha        1 0EV      0.176000
     31 H12         0.2310   -0.6870    1.1270 DU        1 0EV      0.249000
     32 H14        -1.2030   -2.9980    1.0230 hn        1 0EV      0.192000
     33 H15        -3.4000   -2.9230   -0.3320 h1        1 0EV      0.104500
     34 H16        -3.9210   -2.5640    1.1350 h1        1 0EV      0.104500
     35 C14         4.4270    1.1650   -2.3090 c3        1 0EV     -0.108000
     36 C15         3.6280    0.1320   -3.0780 c3        1 0EV     -0.152500
     37 C16         4.5130   -0.8830   -3.7790 c3        1 0EV     -0.155000
     38 C17         5.5830   -0.2280   -4.6300 c3        1 0EV     -0.155000
     39 C18         6.3820    0.8050   -3.8610 c3        1 0EV     -0.155000
     40 C19         5.4970    1.8200   -3.1600 c3        1 0EV     -0.152500
     41 C20        -3.2320   -4.5170    0.9860 c3        1 0EV     -0.130000
     42 C21        -4.4540   -4.8250    1.8510 c2        1 0EV     -0.079000
     43 C22        -5.6340   -5.2560    1.2560 c2        1 0EV     -0.124000
     44 C23        -6.7020   -5.6560    2.0440 c1        1 0EV     -0.128000
     45 C24        -6.5930   -5.6280    3.4260 c1        1 0EV     -0.126500
     46 C25        -5.4170   -5.1980    4.0200 c1        1 0EV     -0.126500
     47 C26        -4.3470   -4.7960    3.2320 c1        1 0EV     -0.122000
     48 H4          4.8520    0.7300   -1.5480 hc        1 0EV      0.104000
     49 H13         3.0820    0.5880   -3.7460 hc        1 0EV      0.077750
     50 H17         3.0370   -0.3410   -2.4540 hc        1 0EV      0.077750
     51 H18         4.9440   -1.4430   -3.1070 hc        1 0EV      0.079250
     52 H19         3.9540   -1.4490   -4.3530 hc        1 0EV      0.079250
     53 H20         6.1940   -0.9200   -4.9600 hc        1 0EV      0.078500
     54 H21         5.1560    0.2080   -5.3950 hc        1 0EV      0.078500
     55 H22         6.9300    0.3470   -3.1910 hc        1 0EV      0.079250
     56 H23         6.9730    1.2770   -4.4840 hc        1 0EV      0.079250
     57 H24         5.0650    2.3810   -3.8330 hc        1 0EV      0.077750
     58 H25         6.0550    2.3850   -2.5870 hc        1 0EV      0.077750
     59 H26        -3.2700   -5.0520    0.1650 hc        1 0EV      0.092500
     60 H27        -2.4200   -4.7350    1.4800 hc        1 0EV      0.092500
     61 H28        -5.7100   -5.2760    0.2820 ha        1 0EV      0.130000
     62 H29        -7.5310   -5.9590    1.6250 ha        1 0EV      0.132000
     63 H30        -7.3450   -5.9100    3.9800 ha        1 0EV      0.133500
     64 H31        -5.3410   -5.1780    4.9930 ha        1 0EV      0.133500
     65 H32        -3.5190   -4.4940    3.6500 ha        1 0EV      0.135000
@<TRIPOS>BOND
     1    1    2 1   
     2    1   21 1   
     3    1   22 1   
     4    1   35 1   
     5    2    3 1   
     6    2   23 1   
     7    3    4 1   
     8    3   24 1   
     9    3   25 1   
    10    4    5 1   
    11    4   26 1   
    12    4   27 1   
    13    5    6 1   
    14    5   14 1   
    15    6    7 1   
    16    6   11 1   
    17    7    8 1   
    18    8   28 1   
    19    9   10 1   
    20    9   29 1   
    21   10   20 1   
    22   12   13 1   
    23   12   30 1   
    24   15   16 1   
    25   16   17 1   
    26   18   19 1   
    27   18   32 1   
    28   19   33 1   
    29   19   34 1   
    30   19   41 1   
    31   35   36 1   
    32   35   40 1   
    33   35   48 1   
    34   36   37 1   
    35   36   49 1   
    36   36   50 1   
    37   37   38 1   
    38   37   51 1   
    39   37   52 1   
    40   38   39 1   
    41   38   53 1   
    42   38   54 1   
    43   39   40 1   
    44   39   55 1   
    45   39   56 1   
    46   40   57 1   
    47   40   58 1   
    48   41   42 1   
    49   41   59 1   
    50   41   60 1   
    51   42   43 1   
    52   42   47 1   
    53   43   44 1   
    54   43   61 1   
    55   44   62 1   
    56   45   46 1   
    57   45   63 1   
    58   46   64 1   
    59   47   65 1   
@<TRIPOS>SUBSTRUCTURE
     1 0EV         1 TEMP              0 ****  ****    0 ROOT
