@<TRIPOS>MOLECULE
0EV
   67    62     1     0     0
SMALL
bcc


@<TRIPOS>ATOM
      1 C1         16.3680  194.3480  -71.9020 c1        1 0EV     -0.364000
      2 N1         15.2930  193.6010  -71.4240 n4        1 0EV      0.321000
      3 C2         15.6460  192.5320  -70.6070 c1        1 0EV     -0.385000
      4 C3         16.0060  191.6210  -69.9090 c1        1 0EV      0.183000
      5 C4         16.3660  190.5700  -69.0720 ca        1 0EV     -0.150000
      6 C5         16.6660  190.7920  -67.6940 ca        1 0EV      0.157000
      7 N2         16.6120  192.0650  -67.1280 nh        1 0EV     -0.266000
      8 C6         16.8930  192.3200  -65.8070 c1        1 0EV      0.075000
      9 N3         17.2430  191.2960  -64.9930 n         1 0EV     -0.303000
     10 C7         17.3420  189.9500  -65.4230 c2        1 0EV      0.319000
     11 C8         17.0360  189.6990  -66.8530 ca        1 0EV     -0.214000
     12 C9         17.1240  188.3900  -67.3320 ca        1 0EV      0.076000
     13 C10        16.8390  188.1450  -68.6730 ca        1 0EV     -0.103000
     14 C11        16.4580  189.2450  -69.5460 ca        1 0EV      0.078000
     15 N4         16.2200  188.6910  -70.7930 na        1 0EV     -0.244000
     16 C12        16.4960  187.2790  -70.6710 c2        1 0EV      0.122000
     17 N5         16.8410  186.9390  -69.4000 n2        1 0EV     -0.131000
     18 N6         16.4870  186.4390  -71.8050 nh        1 0EV     -0.249000
     19 C13        15.2860  186.4330  -72.6020 c3        1 0EV     -0.118000
     20 O1         17.6680  189.0560  -64.6260 o         1 0EV     -0.307000
     21 H1         18.7730  185.7680  -62.6530 ha        1 0EV      0.000750
     22 H2         18.5030  185.6650  -62.0410 ha        1 0EV      0.000750
     23 H3         14.7670  193.2290  -72.2400 hn        1 0EV      0.277500
     24 H5         16.6230  185.8610  -60.3500 ha        1 0EV      0.000750
     25 H6         16.6520  186.2950  -60.8700 ha        1 0EV      0.000750
     26 H7         18.8020  188.1920  -60.7460 ha        1 0EV      0.000750
     27 H8         18.4910  187.5990  -60.8550 ha        1 0EV      0.000750
     28 H9         16.3630  192.8440  -67.6930 hn        1 0EV      0.255000
     29 H10        17.4430  191.5020  -64.0300 hn        1 0EV      0.292000
     30 H11        17.4160  187.5710  -66.6440 ha        1 0EV      0.203000
     31 H12        16.0540  189.1720  -71.6360 hn        1 0EV      0.262000
     32 H14       -73.8160 -729.3230  250.7640 ha        1 0EV      0.290000
     33 H15        15.1110  187.4530  -73.0340 h1        1 0EV      0.090000
     34 H16        14.3700  186.1250  -72.0280 h1        1 0EV      0.090000
     35 C14        17.3160  194.9700  -72.2970 c1        1 0EV      0.183000
     36 C15        18.0630  190.7340  -61.8950 c1        1 0EV     -0.230500
     37 C16        18.0070  191.8390  -61.4420 c1        1 0EV     -0.230500
     38 C17        19.3070  197.9280  -71.8210 c2        1 0EV     -0.131000
     39 C18        18.8340  196.8190  -72.2940 c1        1 0EV     -0.061000
     40 C19        18.3940  195.6960  -72.8130 c2        1 0EV     -0.110000
     41 C20       -74.0520 -729.2320  249.7150 c1        1 0EV      0.224000
     42 C21       -74.3450 -729.0990  248.4780 c2        1 0EV     -0.101000
     43 C22       -73.8570 -729.8990  247.3380 cx        1 0EV     -0.117000
     44 C23       -73.8930 -729.2740  245.9440 cx        1 0EV     -0.091000
     45 C24       -74.8380 -730.3210  246.3150 cu        1 0EV     -0.150000
     46 C25       -75.7920 -731.1260  246.0240 c1        1 0EV     -0.058000
     47 C26       -76.7580 -731.9320  245.7060 c2        1 0EV     -0.102000
     48 H4         19.3140  187.9550  -63.0740 ha        1 0EV      0.000750
     49 H13        18.1140  189.7440  -62.2930 ha        1 0EV      0.231500
     50 H17        19.6840  188.2300  -63.5710 ha        1 0EV      0.000750
     51 H18        20.1050  197.9510  -71.0590 ha        1 0EV      0.175000
     52 H19        17.9620  192.8160  -61.0270 ha        1 0EV      0.231500
     53 H20        18.9440  198.9150  -72.1560 ha        1 0EV      0.175000
     54 H21        18.1530  186.6930  -64.6320 ha        1 0EV      0.000750
     55 H22        18.8770  195.2560  -73.7120 ha        1 0EV      0.193000
     56 H23        17.9940  186.1870  -65.0540 ha        1 0EV      0.000750
     57 H24        16.6820  187.9640  -62.6470 ha        1 0EV      0.000750
     58 H25        17.1380  187.4910  -62.8130 ha        1 0EV      0.000750
     59 H26        15.4440  185.7100  -73.4470 h1        1 0EV      0.090000
     60 H27       -75.0730 -728.2870  248.1750 ha        1 0EV      0.297000
     61 H28       -73.0200 -730.5810  247.6000 hc        1 0EV      0.169000
     62 H29       -73.0520 -729.5070  245.2590 hc        1 0EV      0.149000
     63 H30       -74.2550 -728.2350  245.8210 hc        1 0EV      0.149000
     64 H31       -76.5680 -732.9380  245.2940 ha        1 0EV      0.171000
     65 H32       -77.8200 -731.6570  245.8200 ha        1 0EV      0.171000
     66 H121       14.6750  194.2360  -70.8790 hn        1 0EV      0.277500
     67 H62        16.8070  185.5140  -71.5720 hn        1 0EV      0.230000
@<TRIPOS>BOND
     1    1    2 1   
     2    1   35 1   
     3    2    3 1   
     4    2   23 1   
     5    2   66 1   
     6    3    4 1   
     7    4    5 1   
     8    5    6 1   
     9    5   14 1   
    10    6    7 1   
    11    6   11 1   
    12    7    8 1   
    13    7   28 1   
    14    8    9 1   
    15    9   10 1   
    16    9   29 1   
    17   10   11 1   
    18   10   20 1   
    19   11   12 1   
    20   12   13 1   
    21   12   30 1   
    22   13   14 1   
    23   13   17 1   
    24   14   15 1   
    25   15   16 1   
    26   15   31 1   
    27   16   17 1   
    28   16   18 1   
    29   18   19 1   
    30   18   67 1   
    31   19   33 1   
    32   19   34 1   
    33   19   59 1   
    34   21   22 1   
    35   24   25 1   
    36   26   27 1   
    37   32   41 1   
    38   35   40 1   
    39   36   37 1   
    40   36   49 1   
    41   37   52 1   
    42   38   39 1   
    43   38   51 1   
    44   38   53 1   
    45   39   40 1   
    46   40   55 1   
    47   41   42 1   
    48   42   43 1   
    49   42   60 1   
    50   43   44 1   
    51   43   45 1   
    52   43   61 1   
    53   44   45 1   
    54   44   62 1   
    55   44   63 1   
    56   45   46 1   
    57   46   47 1   
    58   47   64 1   
    59   47   65 1   
    60   48   50 1   
    61   54   56 1   
    62   57   58 1   
@<TRIPOS>SUBSTRUCTURE
     1 0EV         1 TEMP              0 ****  ****    0 ROOT
