@<TRIPOS>MOLECULE
0EV
   65    69     1     0     0
SMALL
bcc


@<TRIPOS>ATOM
      1 C1         -0.5030    3.9060    0.7200 c3        1 0EV      0.164800
      2 N1         -0.5520    2.8770   -0.2990 n3        1 0EV     -0.828200
      3 C2         -1.3640    1.7390    0.0880 c3        1 0EV      0.162800
      4 C3         -1.5790    0.7460   -1.0600 c3        1 0EV     -0.033100
      5 C4         -2.2050   -0.5020   -0.5520 ca        1 0EV     -0.069300
      6 C5         -3.5950   -0.7550   -0.6190 ca        1 0EV      0.178400
      7 N2         -4.4510    0.2170   -1.1690 nc        1 0EV     -0.623100
      8 C6         -5.7320   -0.0440   -1.2230 cd        1 0EV      0.487800
      9 N3         -6.3520   -1.2080   -0.7840 n         1 0EV     -0.503400
     10 C7         -5.5810   -2.2380   -0.2180 c         1 0EV      0.707100
     11 C8         -4.1260   -1.9920   -0.1290 ca        1 0EV     -0.197600
     12 C9         -3.3250   -2.9860    0.4370 ca        1 0EV     -0.013000
     13 C10        -1.9550   -2.7520    0.5270 ca        1 0EV      0.072400
     14 C11        -1.4130   -1.4990    0.0260 ca        1 0EV     -0.040200
     15 N4         -0.0290   -1.5690    0.2210 na        1 0EV     -0.292300
     16 C12         0.2180   -2.8140    0.8840 cc        1 0EV      0.599700
     17 N5         -0.9190   -3.5550    1.0420 nd        1 0EV     -0.601100
     18 N6          1.4990   -3.1560    1.3690 nh        1 0EV     -0.767200
     19 C13         2.6240   -2.7980    0.5240 c3        1 0EV      0.172800
     20 O1         -6.1540   -3.2730    0.1670 o         1 0EV     -0.622500
     21 H1         -1.5300    4.1320    1.1400 h1        1 0EV      0.030200
     22 H2          0.1200    3.5040    1.5690 h1        1 0EV      0.030200
     23 H3         -0.8730    3.2570   -1.1710 hn        1 0EV      0.356800
     24 H5         -0.8260    1.2190    0.9310 h1        1 0EV      0.034200
     25 H6         -2.3780    2.0460    0.4810 h1        1 0EV      0.034200
     26 H7         -2.2140    1.2220   -1.8530 hc        1 0EV      0.062200
     27 H8         -0.5940    0.5000   -1.5440 hc        1 0EV      0.062200
     28 H9         -6.4010    0.7300   -1.6590 h5        1 0EV      0.049800
     29 H10        -7.3360   -1.3240   -0.8660 hn        1 0EV      0.337500
     30 H11        -3.7770   -3.9240    0.7990 ha        1 0EV      0.176000
     31 H12         0.5930   -0.8040    0.1740 hn        1 0EV      0.313700
     32 H14         1.5300   -4.1070    1.6890 hn        1 0EV      0.419800
     33 H15         2.4020   -2.9710   -0.5690 h1        1 0EV      0.049200
     34 H16         2.8130   -1.6940    0.6640 h1        1 0EV      0.049200
     35 C14         0.1080    5.2270    0.2370 c3        1 0EV     -0.064700
     36 C15        -0.0490    6.2730    1.3330 c3        1 0EV     -0.072400
     37 C16         0.5730    7.5930    0.9240 c3        1 0EV     -0.076900
     38 C17         2.0300    7.4230    0.5480 c3        1 0EV     -0.077400
     39 C18         2.1970    6.3760   -0.5340 c3        1 0EV     -0.076900
     40 C19         1.5750    5.0560   -0.1280 c3        1 0EV     -0.072400
     41 C20         3.9010   -3.5620    0.8870 c3        1 0EV     -0.044100
     42 C21         5.0360   -3.0830    0.0520 ca        1 0EV     -0.089300
     43 C22         5.6810   -1.8810    0.3680 ca        1 0EV     -0.124000
     44 C23         6.7510   -1.4350   -0.4050 ca        1 0EV     -0.127000
     45 C24         7.1850   -2.1840   -1.4980 ca        1 0EV     -0.126000
     46 C25         6.5470   -3.3820   -1.8170 ca        1 0EV     -0.127000
     47 C26         5.4760   -3.8310   -1.0450 ca        1 0EV     -0.124000
     48 H4         -0.4480    5.5840   -0.6740 hc        1 0EV      0.046700
     49 H13        -1.1370    6.4250    1.5540 hc        1 0EV      0.043200
     50 H17         0.4390    5.9040    2.2720 hc        1 0EV      0.043200
     51 H18         0.0090    8.0170    0.0510 hc        1 0EV      0.038700
     52 H19         0.4850    8.3240    1.7690 hc        1 0EV      0.038700
     53 H20         2.4430    8.4030    0.1920 hc        1 0EV      0.039200
     54 H21         2.6170    7.1200    1.4550 hc        1 0EV      0.039200
     55 H22         1.7190    6.7400   -1.4820 hc        1 0EV      0.038700
     56 H23         3.2880    6.2250   -0.7450 hc        1 0EV      0.038700
     57 H24         2.1280    4.6330    0.7500 hc        1 0EV      0.043200
     58 H25         1.6710    4.3230   -0.9710 hc        1 0EV      0.043200
     59 H26         4.1430   -3.4080    1.9740 hc        1 0EV      0.059200
     60 H27         3.7440   -4.6630    0.7300 hc        1 0EV      0.059200
     61 H28         5.3420   -1.2910    1.2330 ha        1 0EV      0.133000
     62 H29         7.2540   -0.4900   -0.1510 ha        1 0EV      0.134000
     63 H30         8.0300   -1.8310   -2.1080 ha        1 0EV      0.134000
     64 H31         6.8880   -3.9770   -2.6770 ha        1 0EV      0.134000
     65 H32         4.9760   -4.7780   -1.2990 ha        1 0EV      0.133000
@<TRIPOS>BOND
     1    1    2 1   
     2    1   21 1   
     3    1   22 1   
     4    1   35 1   
     5    2    3 1   
     6    2   23 1   
     7    3    4 1   
     8    3   24 1   
     9    3   25 1   
    10    4    5 1   
    11    4   26 1   
    12    4   27 1   
    13    5    6 ar  
    14    5   14 ar  
    15    6    7 1   
    16    6   11 ar  
    17    7    8 2   
    18    8    9 1   
    19    8   28 1   
    20    9   10 1   
    21    9   29 1   
    22   10   11 1   
    23   10   20 2   
    24   11   12 ar  
    25   12   13 ar  
    26   12   30 1   
    27   13   14 ar  
    28   13   17 1   
    29   14   15 1   
    30   15   16 1   
    31   15   31 1   
    32   16   17 2   
    33   16   18 1   
    34   18   19 1   
    35   18   32 1   
    36   19   33 1   
    37   19   34 1   
    38   19   41 1   
    39   35   36 1   
    40   35   40 1   
    41   35   48 1   
    42   36   37 1   
    43   36   49 1   
    44   36   50 1   
    45   37   38 1   
    46   37   51 1   
    47   37   52 1   
    48   38   39 1   
    49   38   53 1   
    50   38   54 1   
    51   39   40 1   
    52   39   55 1   
    53   39   56 1   
    54   40   57 1   
    55   40   58 1   
    56   41   42 1   
    57   41   59 1   
    58   41   60 1   
    59   42   43 ar  
    60   42   47 ar  
    61   43   44 ar  
    62   43   61 1   
    63   44   45 ar  
    64   44   62 1   
    65   45   46 ar  
    66   45   63 1   
    67   46   47 ar  
    68   46   64 1   
    69   47   65 1   
@<TRIPOS>SUBSTRUCTURE
     1 0EV         1 TEMP              0 ****  ****    0 ROOT
