@<TRIPOS>MOLECULE
0EV
   66    65     1     0     0
SMALL
bcc


@<TRIPOS>ATOM
      1 C1         -0.7120    0.3840    2.2300 c2        1 0EV     -0.214000
      2 N1         -1.5180    0.9030    1.1250 ny        1 0EV     -0.039000
      3 C2         -2.1670   -0.2050    0.4340 c1        1 0EV      0.190000
      4 C3         -1.9110   -0.3860   -1.0040 c3        1 0EV     -0.232000
      5 C4         -3.1840   -0.1130   -1.7350 ca        1 0EV     -0.104000
      6 C5         -3.7650    1.1800   -1.7000 ca        1 0EV      0.046000
      7 N2         -3.1910    2.1730   -0.8850 n2        1 0EV     -0.324000
      8 C6         -3.7210    3.3780   -0.9170 c2        1 0EV      0.110000
      9 N3         -4.8120    3.7690   -1.6630 ns        1 0EV     -0.327000
     10 C7         -5.4830    2.8290   -2.4820 c2        1 0EV      0.344000
     11 C8         -4.9210    1.4620   -2.4890 ca        1 0EV     -0.173000
     12 C9         -5.5450    0.4950   -3.2810 ca        1 0EV      0.015000
     13 C10        -5.0050   -0.7880   -3.3020 ca        1 0EV     -0.049000
     14 C11        -3.8110   -1.0840   -2.5160 ca        1 0EV      0.032000
     15 N4         -3.5360   -2.4360   -2.7260 na        1 0EV     -0.263000
     16 C12        -4.5190   -2.9060   -3.6680 c2        1 0EV      0.158000
     17 N5         -5.4270   -1.9370   -3.9930 n2        1 0EV     -0.162000
     18 N6         -4.4550   -4.1900   -4.2210 nu        1 0EV     -0.263000
     19 C13        -3.9410   -5.2640   -3.3950 c3        1 0EV     -0.052000
     20 O1         -6.4720    3.2010   -3.1260 o         1 0EV     -0.293000
     21 H1         -1.3000   -0.2210    2.9470 hx        1 0EV      0.212000
     22 H2          1.2100   -1.5870   -3.5340 hc        1 0EV      0.071667
     23 H3         -0.9500    1.5290    0.5330 hn        1 0EV      0.251000
     24 H5         -0.3580   -3.0650   -2.2730 ha        1 0EV      0.001250
     25 H6         -0.7160   -3.5360   -1.9410 ha        1 0EV      0.001250
     26 H7         -1.0890    0.2460   -1.4510 hc        1 0EV      0.143000
     27 H8         -1.5950   -1.4670   -1.1260 hc        1 0EV      0.143000
     28 H9         -3.2540    4.1650   -0.2830 h5        1 0EV      0.181000
     29 H10        -5.1420    4.7090   -1.6360 hn        1 0EV      0.269000
     30 H11        -6.4410    0.7530   -3.8730 ha        1 0EV      0.194000
     31 H12        -2.6960   -2.9030   -2.5010 hn        1 0EV      0.260000
     32 H14        -5.2690   -4.4270   -4.7580 hn        1 0EV      0.239000
     33 H15        -4.3510   -5.2100   -2.3440 h1        1 0EV      0.083500
     34 H16        -2.8210   -5.1410   -3.3340 h1        1 0EV      0.083500
     35 C14         0.6100    0.6150    2.3560 c2        1 0EV      0.074000
     36 C15         1.3950    1.3450    1.4630 c1        1 0EV     -0.276000
     37 C16         2.1420    1.9500    0.7410 c1        1 0EV      0.007000
     38 C17         3.0240    2.6640   -0.1190 c3        1 0EV     -0.153000
     39 C18         2.6600   -0.3510   -2.5100 c3        1 0EV     -0.215000
     40 C19         1.2420   -0.7500   -2.7930 c3        1 0EV     -0.215000
     41 C20        -4.2510   -6.6490   -3.9700 c3        1 0EV     -0.138000
     42 C21        -3.6800   -7.6960   -3.0880 c2        1 0EV     -0.188000
     43 C22        -2.9170   -8.6980   -3.5330 c2        1 0EV     -0.163000
     44 C23        -2.3580   -9.7560   -2.6550 c3        1 0EV     -0.184000
     45 C24        -2.6020  -11.1500   -2.9890 c1        1 0EV     -0.033000
     46 C25        -3.3810  -11.5500   -4.1000 c2        1 0EV     -0.541000
     47 C26        -3.5730  -12.8390   -4.3670 c1        1 0EV      0.390000
     48 H4          0.7350   -1.0990   -1.8590 hc        1 0EV      0.071667
     49 H13         0.6610    0.1080   -3.2100 hc        1 0EV      0.071667
     50 H17         1.1350    0.1960    3.2420 ha        1 0EV      0.195000
     51 H18         3.9530    2.0620   -0.3090 hc        1 0EV      0.127667
     52 H19         2.5350    2.8820   -1.1050 hc        1 0EV      0.127667
     53 H20         2.6990    0.4890   -1.7730 hc        1 0EV      0.071667
     54 H21         3.3270    3.6380    0.3530 hc        1 0EV      0.127667
     55 H22         3.1680   -0.0160   -3.4470 hc        1 0EV      0.071667
     56 H23         3.2330   -1.2140   -2.0910 hc        1 0EV      0.071667
     57 H24         1.9130   -3.2160   -1.9010 ha        1 0EV      0.001250
     58 H25         2.4190   -3.6480   -1.7710 ha        1 0EV      0.001250
     59 H26        -3.8390   -6.7320   -5.0110 hc        1 0EV      0.102500
     60 H27        -5.3640   -6.7950   -4.0350 hc        1 0EV      0.102500
     61 H28        -2.6510   -8.7830   -4.6000 ha        1 0EV      0.125000
     62 H29        -2.7180   -9.6310   -1.5900 hc        1 0EV      0.142000
     63 H30        -1.2320   -9.6420   -2.6190 hc        1 0EV      0.142000
     64 H31        -3.8580  -10.8030   -4.7740 ha        1 0EV      0.171000
     65 H32        -3.9500   -7.6120   -2.0220 ha        1 0EV      0.124000
     66 H121       -2.2920    1.4610    1.5310 hn        1 0EV      0.251000
@<TRIPOS>BOND
     1    1    2 1   
     2    1   21 1   
     3    1   35 1   
     4    2    3 1   
     5    2   23 1   
     6    2   66 1   
     7    3    4 1   
     8    4    5 1   
     9    4   26 1   
    10    4   27 1   
    11    5    6 1   
    12    5   14 1   
    13    6    7 1   
    14    6   11 1   
    15    7    8 1   
    16    8    9 1   
    17    8   28 1   
    18    9   10 1   
    19    9   29 1   
    20   10   11 1   
    21   10   20 1   
    22   11   12 1   
    23   12   13 1   
    24   12   30 1   
    25   13   14 1   
    26   13   17 1   
    27   14   15 1   
    28   15   16 1   
    29   15   31 1   
    30   16   17 1   
    31   16   18 1   
    32   18   19 1   
    33   18   32 1   
    34   19   33 1   
    35   19   34 1   
    36   19   41 1   
    37   22   40 1   
    38   24   25 1   
    39   35   36 1   
    40   35   50 1   
    41   36   37 1   
    42   37   38 1   
    43   38   51 1   
    44   38   52 1   
    45   38   54 1   
    46   39   40 1   
    47   39   53 1   
    48   39   55 1   
    49   39   56 1   
    50   40   48 1   
    51   40   49 1   
    52   41   42 1   
    53   41   59 1   
    54   41   60 1   
    55   42   43 1   
    56   42   65 1   
    57   43   44 1   
    58   43   61 1   
    59   44   45 1   
    60   44   62 1   
    61   44   63 1   
    62   45   46 1   
    63   46   47 1   
    64   46   64 1   
    65   57   58 1   
@<TRIPOS>SUBSTRUCTURE
     1 0EV         1 TEMP              0 ****  ****    0 ROOT
