@<TRIPOS>MOLECULE
0EX
   61    52     1     0     0
SMALL
bcc


@<TRIPOS>ATOM
      1 N1         -1.4910   -0.1300    2.6030 n2        1 0EX     -0.243000
      2 C3         -0.1240   -0.1590    2.5950 c1        1 0EX     -0.068000
      3 C2          0.8320   -0.1750    3.6450 c1        1 0EX     -0.052000
      4 C4          2.2110   -0.1750    3.3450 c1        1 0EX     -0.179000
      5 C5          2.6300   -0.1610    2.0350 c1        1 0EX      0.061000
      6 C6          1.6750   -0.1460    0.9870 c1        1 0EX     -0.016000
      7 C7          2.0950    0.1670   -0.5160 c2        1 0EX     -0.109000
      8 C8          2.4760   -1.1760   -1.2440 c3        1 0EX     -0.070000
      9 N2          2.9490   -0.8840   -2.5890 n3        1 0EX     -0.301000
     10 C9          3.1440   -2.1270   -3.3200 c3        1 0EX     -0.037000
     11 C10         3.6150   -1.8060   -4.7640 c1        1 0EX     -0.085000
     12 C11         4.9740   -1.7900   -5.0640 c1        1 0EX     -0.129667
     13 C12         5.4010   -1.4590   -6.3530 c1        1 0EX     -0.129667
     14 C13         4.4660   -1.1460   -7.3380 c1        1 0EX     -0.129667
     15 C14         3.1020   -1.1620   -7.0360 c1        1 0EX     -0.129667
     16 C15         2.6760   -1.4910   -5.7520 c1        1 0EX     -0.110000
     17 C16         0.2910   -0.1450    1.2900 c1        1 0EX     -0.016000
     18 N3         -0.8200   -0.1070    0.4950 n1        1 0EX     -0.192000
     19 C17        -1.9210   -0.0990    1.3070 c1        1 0EX      0.136000
     20 N4         -3.2800    0.0020    0.7960 n2        1 0EX     -0.260000
     21 C1         -4.2850    0.7030    1.5560 c3        1 0EX     -0.058000
     22 N5          4.0430   -0.1310    1.7310 n2        1 0EX     -0.249000
     23 C18         5.0170   -0.1150    2.8060 c1        1 0EX      0.208000
     24 N6          6.3660   -0.0800    2.5140 n3        1 0EX     -0.320000
     25 N7          4.5870   -0.1940    4.1600 n2        1 0EX     -0.345000
     26 C19         3.2240   -0.2360    4.4570 c2        1 0EX      0.356000
     27 O1          2.8530   -0.3070    5.6190 o         1 0EX     -0.356000
     28 H1         -2.0300   -0.1320    3.3530 DU        1 0EX      0.249000
     29 H2          0.5330   -0.1530    4.5830 ha        1 0EX      0.163000
     30 H3          2.8600    0.7680   -0.5210 ha        1 0EX      0.104500
     31 H4          1.3440    0.5910   -0.9840 ha        1 0EX      0.104500
     32 H5          1.6930   -1.7520   -1.2930 h1        1 0EX      0.076500
     33 H6          3.1830   -1.6300   -0.7400 h1        1 0EX      0.076500
     34 H7          3.7460   -0.4300   -2.5410 hn        1 0EX      0.153000
     35 H9          3.8280   -2.6720   -2.8650 h1        1 0EX      0.076500
     36 H10         2.2980   -2.6250   -3.3540 h1        1 0EX      0.076500
     37 H11         5.6300   -2.0100   -4.3720 ha        1 0EX      0.131000
     38 H12         6.3560   -1.4480   -6.5640 ha        1 0EX      0.131000
     39 H13         4.7700   -0.9110   -8.2550 ha        1 0EX      0.131000
     40 H14         2.4460   -0.9420   -7.7270 ha        1 0EX      0.131000
     41 H15         1.7130   -1.5010   -5.5390 ha        1 0EX      0.148000
     42 H17        -3.5050   -0.4070    0.0070 hn        1 0EX      0.220000
     43 H18        -4.0510    1.6630    1.6060 h1        1 0EX      0.089500
     44 H19        -4.3290    0.3260    2.4680 h1        1 0EX      0.089500
     45 H21         6.9740   -0.0260    3.1850 hn        1 0EX      0.204500
     46 H22         6.6390   -0.0930    1.6630 hn        1 0EX      0.204500
     47 H23         5.2060   -0.1840    4.8420 hn        1 0EX      0.250000
     48 C20        -5.6570    0.5430    0.8680 c3        1 0EX     -0.131000
     49 C21        -6.6250    1.4740    1.4830 c2        1 0EX     -0.083000
     50 C22        -6.8760    2.7170    0.8890 c2        1 0EX     -0.122000
     51 C23        -7.8160    3.5760    1.4460 c1        1 0EX     -0.127000
     52 C24        -8.5060    3.2010    2.5890 c1        1 0EX     -0.129667
     53 C25        -8.2560    1.9630    3.1810 c1        1 0EX     -0.129667
     54 C26        -7.3130    1.1020    2.6230 c1        1 0EX     -0.125000
     55 H8         -5.5700    0.7450   -0.0830 hc        1 0EX      0.099000
     56 H16        -5.9760   -0.3840    0.9790 hc        1 0EX      0.099000
     57 H20        -6.3900    2.9800    0.0850 ha        1 0EX      0.133000
     58 H24        -7.9950    4.4580    1.0240 ha        1 0EX      0.134000
     59 H25        -9.1570    3.7950    2.9750 ha        1 0EX      0.131000
     60 H26        -8.7380    1.7020    3.9800 ha        1 0EX      0.131000
     61 H27        -7.1360    0.2250    3.0430 ha        1 0EX      0.133000
@<TRIPOS>BOND
     1    1    2 1   
     2    1   19 1   
     3    2    3 1   
     4    3   29 1   
     5    4    5 1   
     6    4   26 1   
     7    5   22 1   
     8    6   17 1   
     9    7    8 1   
    10    7   30 1   
    11    7   31 1   
    12    8    9 1   
    13    8   32 1   
    14    8   33 1   
    15    9   10 1   
    16    9   34 1   
    17   10   11 1   
    18   10   35 1   
    19   10   36 1   
    20   11   16 1   
    21   12   13 1   
    22   12   37 1   
    23   13   38 1   
    24   14   15 1   
    25   14   39 1   
    26   15   40 1   
    27   16   41 1   
    28   18   19 1   
    29   20   21 1   
    30   20   42 1   
    31   21   43 1   
    32   21   44 1   
    33   21   48 1   
    34   22   23 1   
    35   23   24 1   
    36   24   45 1   
    37   24   46 1   
    38   25   26 1   
    39   25   47 1   
    40   26   27 1   
    41   48   49 1   
    42   48   55 1   
    43   48   56 1   
    44   49   50 1   
    45   49   54 1   
    46   50   51 1   
    47   50   57 1   
    48   51   58 1   
    49   52   53 1   
    50   52   59 1   
    51   53   60 1   
    52   54   61 1   
@<TRIPOS>SUBSTRUCTURE
     1 0EX         1 TEMP              0 ****  ****    0 ROOT
