@<TRIPOS>MOLECULE
0EX
   63    65     1     0     0
SMALL
bcc


@<TRIPOS>ATOM
      1 N1          0.1400    0.2440    0.0050 na        1 0EX     -0.256000
      2 C3          1.5540    0.2810    0.0040 c2        1 0EX     -0.059000
      3 C2          2.4590    0.1000    0.9950 c2        1 0EX      0.020000
      4 C4          3.8510    0.2780    0.6670 c2        1 0EX     -0.160000
      5 C5          4.3010    0.5940   -0.6060 c2        1 0EX      0.113000
      6 C6          3.3800    0.6670   -1.8110 c3        1 0EX     -0.063000
      7 C7          3.8700   -0.3050   -2.8020 c1        1 0EX     -0.019000
      8 C8          3.0340   -1.0720   -3.7000 c3        1 0EX     -0.137000
      9 N2          3.6470   -2.3050   -4.1570 n7        1 0EX     -0.274000
     10 C9          3.0100   -2.8810   -5.3250 c3        1 0EX     -0.092000
     11 C10         3.2750   -2.2040   -6.6680 c3        1 0EX     -0.113000
     12 C11         4.7560   -2.4430   -7.1640 c3        1 0EX     -0.060000
     13 C12         4.5560   -3.0890   -8.4560 cu        1 0EX     -0.187000
     14 C13         4.1580   -3.6630   -9.5860 cu        1 0EX      0.033000
     15 C14         3.0880   -3.2540   -8.7210 cu        1 0EX     -0.140000
     16 C15         2.3380   -2.7780   -7.7360 c2        1 0EX     -0.203000
     17 C16         1.9460    0.6080   -1.4060 c2        1 0EX      0.047000
     18 N3          0.8770    0.7780   -2.1750 n2        1 0EX     -0.124000
     19 C17        -0.2770    0.5540   -1.3000 c2        1 0EX      0.279000
     20 N4         -1.5470    0.6410   -1.7120 nv        1 0EX     -0.255000
     21 C1         -1.9130    0.1760    2.6280 c1        1 0EX     -0.207000
     22 N5          5.6480    0.8380   -0.8670 n2        1 0EX     -0.127000
     23 C18         6.5090    0.6760    0.1360 c2        1 0EX      0.121000
     24 N6          7.9530    0.9070   -0.2010 nz        1 0EX     -0.039000
     25 N7          6.1890    0.3250    1.4400 ns        1 0EX     -0.317000
     26 C19         4.8140    0.1240    1.7760 c2        1 0EX      0.352000
     27 O1          4.5470   -0.1620    2.9420 o         1 0EX     -0.226000
     28 H1         -0.4430    0.0590    0.7980 hn        1 0EX      0.320000
     29 H2          2.1940   -0.1580    2.0380 ha        1 0EX      0.209000
     30 H3          0.0880   -2.5190   -3.5720 ha        1 0EX      0.001500
     31 H4          3.5540    1.6760   -2.3360 hc        1 0EX      0.226000
     32 H5          2.0200   -1.3590   -3.2830 h1        1 0EX      0.131000
     33 H6         -0.0510   -3.1070   -3.8780 ha        1 0EX      0.001500
     34 H7          2.8240   -0.3290   -4.5510 h1        1 0EX      0.131000
     35 H9          1.8970   -2.9070   -5.1480 h1        1 0EX      0.114000
     36 H10         3.3700   -3.9500   -5.3760 h1        1 0EX      0.114000
     37 H11         5.3210   -3.1000   -6.4570 hc        1 0EX      0.107000
     38 H12         5.2970   -1.4700   -7.2670 hc        1 0EX      0.107000
     39 H13         4.3860   -4.1280  -10.5280 ha        1 0EX      0.220000
     40 H14         1.2590   -2.7450   -7.6200 ha        1 0EX      0.158000
     41 H15         3.0970   -1.1000   -6.5920 hc        1 0EX      0.078000
     42 H17        -1.7500    0.8720   -2.6680 hn        1 0EX      0.301500
     43 H18        -3.7310    1.4000   -3.5740 ha        1 0EX      0.001500
     44 H19        -2.3220    0.4690   -1.0900 hn        1 0EX      0.301500
     45 H21         8.4890    0.0430   -0.0330 hn        1 0EX      0.292000
     46 H22         8.0400    1.1630   -1.2010 hn        1 0EX      0.292000
     47 H23         6.8730    0.1900    2.1590 hn        1 0EX      0.287000
     48 C20        -2.6520   -0.1240    1.7320 c1        1 0EX     -0.142000
     49 C21        -3.5580   -0.4860    0.7150 ca        1 0EX     -0.041000
     50 C22        -4.3260    0.5010    0.0700 ca        1 0EX     -0.125000
     51 C23        -5.2580    0.1350   -0.8990 ca        1 0EX     -0.126000
     52 C24        -5.4430   -1.2110   -1.2240 ca        1 0EX     -0.099000
     53 C25        -4.6890   -2.1930   -0.5820 ca        1 0EX     -0.126000
     54 C26        -3.7490   -1.8390    0.3850 ca        1 0EX     -0.125000
     55 H8         -4.0450    1.1770   -3.0160 ha        1 0EX      0.001500
     56 H16        -1.3090    0.4420    3.4620 ha        1 0EX      0.241000
     57 H20        -4.2270    1.5560    0.3680 ha        1 0EX      0.150000
     58 H24        -5.8720    0.9080   -1.3870 ha        1 0EX      0.160000
     59 H25        -6.1980   -1.4970   -1.9740 ha        1 0EX      0.162000
     60 H26        -4.8500   -3.2570   -0.8230 ha        1 0EX      0.160000
     61 H27        -3.1790   -2.6190    0.9110 ha        1 0EX      0.150000
     62 H221        4.6320   -2.1760   -4.3110 hn        1 0EX      0.173000
     63 H63         8.3310    1.6720    0.3750 hn        1 0EX      0.292000
@<TRIPOS>BOND
     1    1    2 1   
     2    1   19 1   
     3    1   28 1   
     4    2    3 1   
     5    2   17 1   
     6    3    4 1   
     7    3   29 1   
     8    4    5 1   
     9    4   26 1   
    10    5    6 1   
    11    5   22 1   
    12    6    7 1   
    13    6   17 1   
    14    6   31 1   
    15    7    8 1   
    16    8    9 1   
    17    8   32 1   
    18    8   34 1   
    19    9   10 1   
    20    9   62 1   
    21   10   11 1   
    22   10   35 1   
    23   10   36 1   
    24   11   12 1   
    25   11   16 1   
    26   11   41 1   
    27   12   13 1   
    28   12   37 1   
    29   12   38 1   
    30   13   14 1   
    31   13   15 1   
    32   14   15 1   
    33   14   39 1   
    34   15   16 1   
    35   16   40 1   
    36   17   18 1   
    37   18   19 1   
    38   19   20 1   
    39   20   42 1   
    40   20   44 1   
    41   21   48 1   
    42   21   56 1   
    43   22   23 1   
    44   23   24 1   
    45   23   25 1   
    46   24   45 1   
    47   24   46 1   
    48   24   63 1   
    49   25   26 1   
    50   25   47 1   
    51   26   27 1   
    52   30   33 1   
    53   43   55 1   
    54   48   49 1   
    55   49   50 1   
    56   49   54 1   
    57   50   51 1   
    58   50   57 1   
    59   51   52 1   
    60   51   58 1   
    61   52   53 1   
    62   52   59 1   
    63   53   54 1   
    64   53   60 1   
    65   54   61 1   
@<TRIPOS>SUBSTRUCTURE
     1 0EX         1 TEMP              0 ****  ****    0 ROOT
