@<TRIPOS>MOLECULE
0EX
   64    65     1     0     0
SMALL
bcc


@<TRIPOS>ATOM
      1 N1        183.4940   -0.8490  -57.2260 na        1 0EX     -0.260000
      2 C3        184.2950   -1.6510  -58.0470 ca        1 0EX     -0.030000
      3 C2        184.6420   -1.5560  -59.3790 ca        1 0EX     -0.009000
      4 C4        185.4840   -2.5530  -59.9040 ca        1 0EX     -0.168000
      5 C5        185.9760   -3.6320  -59.1170 ca        1 0EX      0.074000
      6 C6        185.6230   -3.7370  -57.7440 ca        1 0EX     -0.023000
      7 C7        186.0650   -4.7680  -56.9070 c1        1 0EX      0.159000
      8 C8        186.3880   -5.6140  -56.1200 c1        1 0EX     -0.309000
      9 N2        186.7390   -6.5720  -55.1820 n4        1 0EX      0.122000
     10 C9        187.0870   -5.9710  -53.8390 c3        1 0EX     -0.112000
     11 C10       187.4180   -7.0560  -52.8250 c3        1 0EX     -0.113000
     12 C11       186.1280   -7.7580  -52.2430 c3        1 0EX     -0.074000
     13 C12       186.3840   -9.1640  -52.5330 cu        1 0EX     -0.176000
     14 C13       186.8170  -10.3840  -52.8450 cu        1 0EX      0.057000
     15 C14       187.6970   -9.3160  -53.2270 cu        1 0EX     -0.122000
     16 C15       188.3030   -8.1490  -53.4380 c2        1 0EX     -0.286000
     17 C16       184.7790   -2.7470  -57.1960 ca        1 0EX      0.070000
     18 N3        184.2920   -2.6150  -55.9080 n2        1 0EX     -0.235000
     19 C17       183.5070   -1.4540  -55.9340 c2        1 0EX      0.256000
     20 N4        182.8300   -0.9400  -54.8720 nh        1 0EX     -0.336000
     21 C1        181.4000    1.8060  -56.3140 c3        1 0EX     -0.288000
     22 N5        186.8150   -4.6070  -59.6840 n2        1 0EX     -0.159000
     23 C18       187.1240   -4.4810  -60.9640 c2        1 0EX      0.102000
     24 N6        188.0240   -5.5430  -61.5370 n4        1 0EX     -0.039000
     25 N7        186.7080   -3.4760  -61.8310 n         1 0EX     -0.341000
     26 C19       185.8530   -2.4500  -61.3240 c2        1 0EX      0.363000
     27 O1        185.5020   -1.5750  -62.1170 o         1 0EX     -0.244000
     28 H1        183.0150   -0.0240  -57.4950 hn        1 0EX      0.293000
     29 H2        184.2880   -0.7400  -60.0350 ha        1 0EX      0.195000
     30 H3        189.7110   -6.1640  -55.2800 ha        1 0EX      0.002250
     31 H4        190.3400   -5.9640  -55.1260 ha        1 0EX      0.002250
     32 H5        189.2530   -8.3190  -56.1660 ha        1 0EX      0.002250
     33 H6        188.9390   -8.0880  -56.7210 ha        1 0EX      0.002250
     34 H7        185.9500   -7.2270  -55.0580 hn        1 0EX      0.266500
     35 H9        186.2130   -5.3470  -53.5010 hx        1 0EX      0.152500
     36 H10       187.9810   -5.3020  -54.0010 hx        1 0EX      0.152500
     37 H11       185.1920   -7.3820  -52.7250 hc        1 0EX      0.130000
     38 H12       186.0540   -7.5730  -51.1390 hc        1 0EX      0.130000
     39 H13       186.6930  -11.4540  -52.8380 ha        1 0EX      0.236000
     40 H14       189.2900   -7.9260  -53.8350 ha        1 0EX      0.174000
     41 H15       187.9710   -6.5580  -51.9820 hc        1 0EX      0.156000
     42 H17       182.8730   -1.4080  -53.9960 hn        1 0EX      0.274000
     43 H18       181.0550    1.8390  -55.2570 hc        1 0EX      0.073500
     44 H19       182.5100    1.8660  -56.3480 hc        1 0EX      0.073500
     45 H21       188.8870   -5.1080  -61.8890 hn        1 0EX      0.281000
     46 H22       188.2660   -6.2290  -60.8080 hn        1 0EX      0.281000
     47 H23       186.9770   -3.4350  -62.7930 hn        1 0EX      0.275000
     48 C20      -797.9730   12.3920  230.7300 c1        1 0EX      0.378000
     49 C21      -798.5700   13.3640  231.4050 c2        1 0EX     -0.549000
     50 C22      -796.0560   16.6460  233.4170 c1        1 0EX      0.197000
     51 C23      -796.9830   15.8590  233.3420 c1        1 0EX     -0.229000
     52 C24      -797.9890   14.9880  233.2590 cu        1 0EX      0.304000
     53 C25      -799.3970   14.6930  233.4700 cx        1 0EX     -0.201000
     54 C26      -798.4850   13.6590  232.8240 cx        1 0EX     -0.009000
     55 H8        181.0480    0.8660  -56.7950 hc        1 0EX      0.073500
     56 H16       180.9710    2.6760  -56.8590 hc        1 0EX      0.073500
     57 H20      -795.2390   17.3410  233.4840 ha        1 0EX      0.287000
     58 H24      -799.2590   14.0000  230.8000 ha        1 0EX      0.215000
     59 H25      -799.7790   14.5110  234.5020 hc        1 0EX      0.206000
     60 H26      -800.1620   15.2400  232.8720 hc        1 0EX      0.206000
     61 H27      -798.1820   12.7820  233.4500 hc        1 0EX      0.195000
     62 H221      187.5620   -7.1140  -55.5190 hn        1 0EX      0.266500
     63 H42       182.2880   -0.1100  -54.9620 hn        1 0EX      0.274000
     64 H63       187.5390   -6.0250  -62.3050 hn        1 0EX      0.281000
@<TRIPOS>BOND
     1    1    2 1   
     2    1   19 1   
     3    1   28 1   
     4    2    3 1   
     5    2   17 1   
     6    3    4 1   
     7    3   29 1   
     8    4    5 1   
     9    4   26 1   
    10    5    6 1   
    11    5   22 1   
    12    6    7 1   
    13    6   17 1   
    14    7    8 1   
    15    8    9 1   
    16    9   10 1   
    17    9   34 1   
    18    9   62 1   
    19   10   11 1   
    20   10   35 1   
    21   10   36 1   
    22   11   12 1   
    23   11   16 1   
    24   11   41 1   
    25   12   13 1   
    26   12   37 1   
    27   12   38 1   
    28   13   14 1   
    29   13   15 1   
    30   14   15 1   
    31   14   39 1   
    32   15   16 1   
    33   16   40 1   
    34   17   18 1   
    35   18   19 1   
    36   19   20 1   
    37   20   42 1   
    38   20   63 1   
    39   21   43 1   
    40   21   44 1   
    41   21   55 1   
    42   21   56 1   
    43   22   23 1   
    44   23   24 1   
    45   23   25 1   
    46   24   45 1   
    47   24   46 1   
    48   24   64 1   
    49   25   26 1   
    50   25   47 1   
    51   26   27 1   
    52   30   31 1   
    53   32   33 1   
    54   48   49 1   
    55   49   54 1   
    56   49   58 1   
    57   50   51 1   
    58   50   57 1   
    59   51   52 1   
    60   52   53 1   
    61   52   54 1   
    62   53   54 1   
    63   53   59 1   
    64   53   60 1   
    65   54   61 1   
@<TRIPOS>SUBSTRUCTURE
     1 0EX         1 TEMP              0 ****  ****    0 ROOT
