@<TRIPOS>MOLECULE
0EX
   61    65     1     0     0
SMALL
bcc


@<TRIPOS>ATOM
      1 N1          2.5660    1.2330    0.5190 na        1 0EX     -0.285300
      2 C3          1.2960    1.8380    0.4500 ca        1 0EX     -0.114200
      3 C2          0.9040    3.1050    0.0550 ca        1 0EX     -0.052000
      4 C4         -0.4690    3.3740    0.0400 ca        1 0EX     -0.199600
      5 C5         -1.4500    2.4000    0.3970 ca        1 0EX      0.200400
      6 C6         -1.0480    1.0950    0.7980 ca        1 0EX     -0.041300
      7 C7         -2.0340    0.0490    1.1800 c3        1 0EX     -0.024100
      8 C8         -2.5610   -0.6680   -0.0680 c3        1 0EX      0.166800
      9 N2         -3.5940   -1.6390    0.2390 n3        1 0EX     -0.822200
     10 C9         -4.1990   -2.2070   -0.9520 c3        1 0EX      0.208100
     11 C10        -5.4420   -2.9990   -0.6740 ca        1 0EX     -0.092300
     12 C11        -6.5900   -2.7850   -1.4440 ca        1 0EX     -0.118500
     13 C12        -7.7380   -3.5430   -1.2160 ca        1 0EX     -0.134500
     14 C13        -7.7480   -4.5150   -0.2170 ca        1 0EX     -0.130000
     15 C14        -6.6060   -4.7300    0.5540 ca        1 0EX     -0.134500
     16 C15        -5.4550   -3.9770    0.3270 ca        1 0EX     -0.118500
     17 C16         0.3230    0.8210    0.8280 ca        1 0EX      0.141400
     18 N3          0.9970   -0.3660    1.1790 nc        1 0EX     -0.619100
     19 C17         2.3280   -0.0820    1.0440 cd        1 0EX      0.614700
     20 N4          3.3800   -0.9420    1.4110 nh        1 0EX     -0.774200
     21 C1          4.6080   -0.8490    0.6450 c3        1 0EX      0.178800
     22 N5         -2.8120    2.7080    0.3690 nc        1 0EX     -0.676100
     23 C18        -3.1960    3.9240   -0.0290 cd        1 0EX      0.654800
     24 N6         -4.5810    4.2070   -0.1870 nh        1 0EX     -0.881800
     25 N7         -2.2930    4.9580   -0.3690 n         1 0EX     -0.505400
     26 C19        -0.9110    4.7170   -0.3720 c         1 0EX      0.719100
     27 O1         -0.1550    5.6470   -0.7090 o         1 0EX     -0.631500
     28 H1          3.3990    1.7400    0.6800 hn        1 0EX      0.298700
     29 H2          1.6200    3.8870   -0.2410 ha        1 0EX      0.163000
     30 H3         -1.5550   -0.7020    1.8640 hc        1 0EX      0.066200
     31 H4         -2.8850    0.5110    1.7490 hc        1 0EX      0.066200
     32 H5         -2.9180    0.1110   -0.8050 h1        1 0EX      0.036200
     33 H6         -1.7090   -1.2240   -0.5530 h1        1 0EX      0.036200
     34 H7         -4.2940   -1.2350    0.8330 hn        1 0EX      0.358800
     35 H9         -4.4360   -1.4140   -1.7250 h1        1 0EX      0.037200
     36 H10        -3.4330   -2.8970   -1.4150 h1        1 0EX      0.037200
     37 H11        -6.5890   -2.0170   -2.2320 ha        1 0EX      0.139000
     38 H12        -8.6370   -3.3720   -1.8260 ha        1 0EX      0.129500
     39 H13        -8.6540   -5.1120   -0.0380 ha        1 0EX      0.129000
     40 H14        -6.6110   -5.4970    1.3430 ha        1 0EX      0.129500
     41 H15        -4.5520   -4.1490    0.9330 ha        1 0EX      0.139000
     42 H17         3.0660   -1.8830    1.5610 hn        1 0EX      0.424800
     43 H18         4.4070   -0.7440   -0.4610 h1        1 0EX      0.049700
     44 H19         5.1490    0.0810    0.9850 h1        1 0EX      0.049700
     45 H21        -5.1760    3.4690    0.1300 hn        1 0EX      0.409300
     46 H22        -4.8540    5.1010    0.1620 hn        1 0EX      0.409300
     47 H23        -2.6230    5.8320   -0.7120 hn        1 0EX      0.336500
     48 C20         5.5260   -2.0580    0.8560 c3        1 0EX     -0.044100
     49 C21         6.7800   -1.8860    0.0740 ca        1 0EX     -0.090300
     50 C22         7.9710   -1.5280    0.7150 ca        1 0EX     -0.123500
     51 C23         9.1470   -1.3810   -0.0210 ca        1 0EX     -0.127000
     52 C24         9.1410   -1.5900   -1.4000 ca        1 0EX     -0.126000
     53 C25         7.9560   -1.9480   -2.0430 ca        1 0EX     -0.127000
     54 C26         6.7800   -2.0960   -1.3100 ca        1 0EX     -0.123500
     55 H8          5.7620   -2.1710    1.9480 hc        1 0EX      0.059700
     56 H16         5.0040   -2.9960    0.5250 hc        1 0EX      0.059700
     57 H20         7.9820   -1.3650    1.8030 ha        1 0EX      0.133500
     58 H24        10.0800   -1.1000    0.4890 ha        1 0EX      0.134500
     59 H25        10.0690   -1.4740   -1.9790 ha        1 0EX      0.134000
     60 H26         7.9490   -2.1150   -3.1300 ha        1 0EX      0.134500
     61 H27         5.8470   -2.3820   -1.8190 ha        1 0EX      0.133500
@<TRIPOS>BOND
     1    1    2 1   
     2    1   19 1   
     3    1   28 1   
     4    2    3 ar  
     5    2   17 ar  
     6    3    4 ar  
     7    3   29 1   
     8    4    5 ar  
     9    4   26 1   
    10    5    6 ar  
    11    5   22 1   
    12    6    7 1   
    13    6   17 ar  
    14    7    8 1   
    15    7   30 1   
    16    7   31 1   
    17    8    9 1   
    18    8   32 1   
    19    8   33 1   
    20    9   10 1   
    21    9   34 1   
    22   10   11 1   
    23   10   35 1   
    24   10   36 1   
    25   11   12 ar  
    26   11   16 ar  
    27   12   13 ar  
    28   12   37 1   
    29   13   14 ar  
    30   13   38 1   
    31   14   15 ar  
    32   14   39 1   
    33   15   16 ar  
    34   15   40 1   
    35   16   41 1   
    36   17   18 1   
    37   18   19 2   
    38   19   20 1   
    39   20   21 1   
    40   20   42 1   
    41   21   43 1   
    42   21   44 1   
    43   21   48 1   
    44   22   23 2   
    45   23   24 1   
    46   23   25 1   
    47   24   45 1   
    48   24   46 1   
    49   25   26 1   
    50   25   47 1   
    51   26   27 2   
    52   48   49 1   
    53   48   55 1   
    54   48   56 1   
    55   49   50 ar  
    56   49   54 ar  
    57   50   51 ar  
    58   50   57 1   
    59   51   52 ar  
    60   51   58 1   
    61   52   53 ar  
    62   52   59 1   
    63   53   54 ar  
    64   53   60 1   
    65   54   61 1   
@<TRIPOS>SUBSTRUCTURE
     1 0EX         1 TEMP              0 ****  ****    0 ROOT
