@<TRIPOS>MOLECULE
0EY
   38    40     1     0     0
SMALL
bcc


@<TRIPOS>ATOM
      1 C4          5.0440   -1.4230   -0.2830 c         1 0EY      0.715700
      2 C5          4.4040   -0.8760   -1.4840 cc        1 0EY     -0.321200
      3 C6          3.5860    0.2040   -1.4010 cd        1 0EY      0.059600
      4 C8          0.9770    1.5190   -0.2700 cc        1 0EY      0.202600
      5 C9         -0.0210    1.4340    0.7170 cd        1 0EY     -0.166600
      6 N1          3.3500    0.8630   -0.2020 n         1 0EY     -0.373000
      7 N3          4.7500   -0.7650    0.9280 n         1 0EY     -0.584500
      8 C2          3.8970    0.3440    1.0050 c         1 0EY      0.806500
      9 O4          5.8070   -2.4020   -0.2600 o         1 0EY     -0.609500
     10 N5          0.3740    1.1180   -1.4920 nc        1 0EY     -0.350000
     11 N6         -0.8420    0.8260   -1.2950 nd        1 0EY     -0.151800
     12 N7         -1.1600    1.0160    0.0130 na        1 0EY      0.019400
     13 C1'        -2.4330    0.6670    0.6370 c3        1 0EY      0.271800
     14 O4'        -2.5600   -0.7480    0.7610 os        1 0EY     -0.415600
     15 C4'        -3.4840   -1.2650   -0.2150 c3        1 0EY      0.098100
     16 C5'        -4.2230   -2.4270    0.4460 c3        1 0EY      0.135400
     17 O5'        -3.3590   -3.5160    0.6830 oh        1 0EY     -0.588800
     18 C3'        -4.4230   -0.1060   -0.5950 c3        1 0EY      0.087100
     19 O3'        -4.6070   -0.1520   -1.9940 oh        1 0EY     -0.571800
     20 C2'        -3.6780    1.1770   -0.1550 c3        1 0EY      0.078100
     21 O2'        -4.4320    1.9260    0.7790 oh        1 0EY     -0.589800
     22 H1          4.6170   -1.3850   -2.4320 ha        1 0EY      0.180000
     23 H2          3.0710    0.6290   -2.2860 h4        1 0EY      0.180000
     24 H3          2.6430    2.6770   -0.9580 h1        1 0EY      0.088200
     25 H4          2.5180    2.4670    0.8630 h1        1 0EY      0.088200
     26 H5         -0.0110    1.6330    1.7880 h4        1 0EY      0.204000
     27 H6          5.1400   -1.0980    1.7830 hn        1 0EY      0.351500
     28 H7         -2.4180    1.0730    1.6920 h2        1 0EY      0.117700
     29 H8         -2.8960   -1.6160   -1.1070 h1        1 0EY      0.104700
     30 H9         -4.6970   -2.0880    1.4050 h1        1 0EY      0.057700
     31 H10        -5.0050   -2.8200   -0.2580 h1        1 0EY      0.057700
     32 H11        -2.6400   -3.1950    1.2430 ho        1 0EY      0.414000
     33 H12        -5.4080   -0.1850   -0.0600 h1        1 0EY      0.063700
     34 H13        -5.2710    0.5140   -2.2130 ho        1 0EY      0.405000
     35 H14        -3.4090    1.8040   -1.0460 h1        1 0EY      0.087700
     36 H15        -5.1180    2.3870    0.2810 ho        1 0EY      0.414000
     37 C7          2.3920    1.9470   -0.1330 c3        1 0EY      0.086700
     38 O2          3.6480    0.8800    2.1080 o         1 0EY     -0.652500
@<TRIPOS>BOND
     1    1    2 1   
     2    1    7 1   
     3    1    9 2   
     4    2    3 2   
     5    2   22 1   
     6    3    6 1   
     7    3   23 1   
     8    4    5 2   
     9    4   10 1   
    10    4   37 1   
    11    5   12 1   
    12    5   26 1   
    13    6    8 1   
    14    6   37 1   
    15    7    8 1   
    16    7   27 1   
    17    8   38 2   
    18   10   11 2   
    19   11   12 1   
    20   12   13 1   
    21   13   14 1   
    22   13   20 1   
    23   13   28 1   
    24   14   15 1   
    25   15   16 1   
    26   15   18 1   
    27   15   29 1   
    28   16   17 1   
    29   16   30 1   
    30   16   31 1   
    31   17   32 1   
    32   18   19 1   
    33   18   20 1   
    34   18   33 1   
    35   19   34 1   
    36   20   21 1   
    37   20   35 1   
    38   21   36 1   
    39   24   37 1   
    40   25   37 1   
@<TRIPOS>SUBSTRUCTURE
     1 0EY         1 TEMP              0 ****  ****    0 ROOT
