@<TRIPOS>MOLECULE
0EY
   38    36     1     0     0
SMALL
bcc


@<TRIPOS>ATOM
      1 C4         -0.6130   -0.8260    0.2690 c2        1 0EY      0.394000
      2 C5          0.7830   -0.9730   -0.1800 c2        1 0EY     -0.565000
      3 C6          1.3310   -2.0330   -0.7400 c1        1 0EY      0.317000
      4 C8          2.5010    1.3200    3.9900 c2        1 0EY     -0.246000
      5 C9          1.5740    2.0410    4.7870 c2        1 0EY     -0.031000
      6 N1          1.3470   -0.3690    2.5870 ns        1 0EY     -0.213000
      7 N3         -0.8990   -0.3050    1.5340 ns        1 0EY     -0.379000
      8 C2         -0.0370    0.0210    2.5960 c2        1 0EY      0.340000
      9 O4         -1.5740   -1.1340   -0.4540 o         1 0EY     -0.309000
     10 N5          3.7760    1.9330    4.2260 n2        1 0EY     -0.016000
     11 N6          3.6480    2.8850    5.0390 n2        1 0EY     -0.013000
     12 N7          2.3460    2.9940    5.4450 na        1 0EY     -0.204000
     13 C1'         1.8450    4.0330    6.3490 c3        1 0EY      0.090000
     14 O4'         1.3950    5.1570    5.6100 os        1 0EY     -0.245000
     15 C4'         2.3880    6.1140    5.2490 c3        1 0EY     -0.069000
     16 C5'         3.3630    8.1240    2.8630 c1        1 0EY     -0.091000
     17 O5'         4.5670    7.8750    3.3070 oh        1 0EY     -0.219000
     18 C3'         2.3980    7.2590    6.2610 c3        1 0EY     -0.043000
     19 O3'         3.1090    8.3630    5.7390 oh        1 0EY     -0.353000
     20 C2'         2.7950    4.4720    7.4600 c1        1 0EY      0.017000
     21 O2'         3.4490    3.4840    8.0200 oh        1 0EY     -0.197000
     22 H1          1.4110   -0.0520   -0.1120 ha        1 0EY      0.231000
     23 H2          1.5500   -1.1920    2.0480 hn        1 0EY      0.265000
     24 H3          3.2820    1.0510    0.3570 ha        1 0EY      0.001500
     25 H4          3.4460    0.9250    1.0030 ha        1 0EY      0.001500
     26 H5          0.4950    1.9310    4.9330 h4        1 0EY      0.225000
     27 H6         -1.8690   -0.1130    1.7130 hn        1 0EY      0.265000
     28 H7          0.8900    3.6370    6.8260 h2        1 0EY      0.151000
     29 H8          3.4040    5.6540    5.1620 h1        1 0EY      0.107000
     30 H9          3.4000    8.1970    1.7470 ha        1 0EY      0.041000
     31 H10         2.0630    6.4920    4.2380 h1        1 0EY      0.107000
     32 H11         4.5430    7.8100    4.2870 ho        1 0EY      0.266000
     33 H12         1.3470    7.5500    6.5220 h1        1 0EY      0.102000
     34 H13         2.6090    8.6930    4.9760 ho        1 0EY      0.225000
     35 H14         2.9470    6.9620    7.1950 h1        1 0EY      0.102000
     36 H15         4.0000    3.8560    8.7360 ho        1 0EY      0.273000
     37 C7          2.4080    0.1600    3.1590 c1        1 0EY      0.029000
     38 O2         -0.5410    0.6430    3.5550 o         1 0EY     -0.358000
@<TRIPOS>BOND
     1    1    2 1   
     2    1    7 1   
     3    1    9 1   
     4    2    3 1   
     5    2   22 1   
     6    4    5 1   
     7    4   10 1   
     8    4   37 1   
     9    5   12 1   
    10    5   26 1   
    11    6    8 1   
    12    6   23 1   
    13    6   37 1   
    14    7    8 1   
    15    7   27 1   
    16    8   38 1   
    17   10   11 1   
    18   11   12 1   
    19   12   13 1   
    20   13   14 1   
    21   13   20 1   
    22   13   28 1   
    23   14   15 1   
    24   15   18 1   
    25   15   29 1   
    26   15   31 1   
    27   16   17 1   
    28   16   30 1   
    29   17   32 1   
    30   18   19 1   
    31   18   33 1   
    32   18   35 1   
    33   19   34 1   
    34   20   21 1   
    35   21   36 1   
    36   24   25 1   
@<TRIPOS>SUBSTRUCTURE
     1 0EY         1 TEMP              0 ****  ****    0 ROOT
