@<TRIPOS>MOLECULE
0EY
   38    37     1     0     0
SMALL
bcc


@<TRIPOS>ATOM
      1 C4         -0.4810   -0.6160   -0.0050 c2        1 0EY      0.433000
      2 C5          0.8820   -0.9060   -0.3290 c1        1 0EY     -0.244000
      3 C6          1.9950   -1.1680   -0.6820 c1        1 0EY     -0.067000
      4 C8          2.4800    1.7210    3.8380 c2        1 0EY     -0.236000
      5 C9          1.5180    2.5170    4.5120 c2        1 0EY     -0.035000
      6 N1          1.3950    0.0460    2.3560 n         1 0EY     -0.206000
      7 N3         -0.8030    0.0230    1.1960 n         1 0EY     -0.376000
      8 C2          0.0230    0.4570    2.2490 c2        1 0EY      0.344000
      9 O4         -1.4200   -0.9050   -0.7690 o         1 0EY     -0.300000
     10 N5          3.7560    2.2690    4.1980 n2        1 0EY     -0.020000
     11 N6          3.5990    3.2490    4.9730 n2        1 0EY     -0.007000
     12 N7          2.2700    3.4540    5.2150 na        1 0EY     -0.181000
     13 C1'         1.7220    4.4620    6.1210 c3        1 0EY      0.084000
     14 O4'         1.5820    5.7390    5.5100 os        1 0EY     -0.282000
     15 C4'         2.7520    6.4140    5.0400 c3        1 0EY     -0.052000
     16 C5'         2.2000    7.6170    4.2580 c3        1 0EY     -0.032000
     17 O5'         1.4890    7.1990    3.1150 oh        1 0EY     -0.325500
     18 C3'         3.6420    6.9090    6.1780 c3        1 0EY     -0.032000
     19 O3'         4.2310    5.8510    6.9090 oh        1 0EY     -0.325500
     20 C2'         2.4500    4.4310    7.4770 c1        1 0EY      0.057000
     21 O2'         2.1630    5.5020    8.1860 oh        1 0EY     -0.225000
     22 H1          2.9910   -1.3960   -0.9810 ha        1 0EY      0.244000
     23 H2          1.6370   -0.7870    1.8460 hn        1 0EY      0.267000
     24 H3          3.7920   -1.6210    1.2120 ha        1 0EY      0.000500
     25 H4          3.9620   -1.2690    1.7670 ha        1 0EY      0.000500
     26 H5          0.4260    2.4700    4.5440 h4        1 0EY      0.224000
     27 H6         -1.7700    0.2760    1.3010 hn        1 0EY      0.265000
     28 H7          0.6350    4.1730    6.3140 h2        1 0EY      0.143000
     29 H8          3.3340    5.7540    4.3420 h1        1 0EY      0.116000
     30 H9          1.5450    8.2360    4.9250 h1        1 0EY      0.099750
     31 H10         3.0510    8.2340    3.8660 h1        1 0EY      0.099750
     32 H11         0.7640    6.6380    3.4200 ho        1 0EY      0.220000
     33 H12         4.4410    7.5780    5.7600 h1        1 0EY      0.099750
     34 H13         4.7470    5.3090    6.2970 ho        1 0EY      0.220000
     35 H14         3.0310    7.4670    6.9400 h1        1 0EY      0.099750
     36 H15         2.6630    5.4350    9.0220 ho        1 0EY      0.272000
     37 C7          2.4140    0.5550    3.0140 c1        1 0EY      0.025000
     38 O2         -0.5130    1.1960    3.1020 o         1 0EY     -0.366000
@<TRIPOS>BOND
     1    1    2 1   
     2    1    7 1   
     3    1    9 1   
     4    2    3 1   
     5    3   22 1   
     6    4    5 1   
     7    4   10 1   
     8    4   37 1   
     9    5   12 1   
    10    5   26 1   
    11    6    8 1   
    12    6   23 1   
    13    6   37 1   
    14    7    8 1   
    15    7   27 1   
    16    8   38 1   
    17   10   11 1   
    18   11   12 1   
    19   12   13 1   
    20   13   14 1   
    21   13   20 1   
    22   13   28 1   
    23   14   15 1   
    24   15   16 1   
    25   15   18 1   
    26   15   29 1   
    27   16   17 1   
    28   16   30 1   
    29   16   31 1   
    30   17   32 1   
    31   18   19 1   
    32   18   33 1   
    33   18   35 1   
    34   19   34 1   
    35   20   21 1   
    36   21   36 1   
    37   24   25 1   
@<TRIPOS>SUBSTRUCTURE
     1 0EY         1 TEMP              0 ****  ****    0 ROOT
