@<TRIPOS>MOLECULE
0EY
   38    36     1     0     0
SMALL
bcc


@<TRIPOS>ATOM
      1 C4         -3.1220   -4.9670    0.4910 c1        1 0EY      0.354000
      2 C5         -3.4660   -4.4700   -0.8500 c2        1 0EY     -0.304000
      3 C6         -3.4990   -3.0280   -1.1070 c1        1 0EY      0.058000
      4 C7         -3.2350   -0.7140   -0.3130 c3        1 0EY      0.066000
      5 C8         -1.8030   -0.1480   -0.4010 c2        1 0EY     -0.219000
      6 C9         -1.3760    1.0430    0.1230 c1        1 0EY     -0.078000
      7 N1         -3.1770   -2.1160   -0.0700 n2        1 0EY     -0.266000
      8 N3         -2.8000   -4.0500    1.5260 n2        1 0EY     -0.365000
      9 O2         -2.5260   -1.8350    2.1430 o         1 0EY     -0.376000
     10 C2         -2.8330   -2.6140    1.2670 c2        1 0EY      0.396000
     11 O4         -3.0190   -6.1670    0.6870 o         1 0EY     -0.334000
     12 N5         -0.7690   -0.7200   -1.0240 n2        1 0EY     -0.088000
     13 N6          0.3080    0.1040   -0.8950 n2        1 0EY      0.018000
     14 N7         -0.0780    1.1890   -0.1860 n2        1 0EY     -0.192000
     15 C1'         0.7470    2.3620    0.1100 c2        1 0EY      0.173000
     16 O4'         1.4790    2.6530   -0.8880 os        1 0EY     -0.267000
     17 C4'         2.8680    1.8790   -0.6680 c3        1 0EY     -0.055000
     18 C5'         3.9850    2.5740   -1.4520 c3        1 0EY     -0.018000
     19 O5'         3.7290    2.4640   -2.8270 oh        1 0EY     -0.317000
     20 C3'         3.1130    1.9300    0.5850 c3        1 0EY     -0.026000
     21 O3'         3.7980    0.6740    1.0320 oh        1 0EY     -0.311000
     22 C2'         1.7320    2.0500    1.2540 c3        1 0EY      0.008000
     23 O2'         1.7350    3.0560    2.1590 oh        1 0EY     -0.320000
     24 H1         -3.6860   -5.0970   -1.5600 ha        1 0EY      0.180000
     25 H2         -3.7290   -2.6940   -2.0010 ha        1 0EY      0.180000
     26 H3         -3.7180   -0.2730    0.4240 h1        1 0EY      0.128500
     27 H4         -3.7050   -0.5490   -1.1570 h1        1 0EY      0.128500
     28 H5         -1.9220    1.6770    0.6330 DU        1 0EY      0.203000
     29 H6         -2.5860   -4.3580    2.3580 hn        1 0EY      0.265000
     30 H7          0.1850    3.1200    0.3480 h4        1 0EY      0.159000
     31 H8          2.7840    0.9510   -0.9550 h1        1 0EY      0.131000
     32 H9          4.0190    3.5160   -1.2040 h1        1 0EY      0.096500
     33 H10         4.8400    2.1520   -1.2450 h1        1 0EY      0.096500
     34 H11         4.3790    2.8940   -3.2920 ho        1 0EY      0.214000
     35 H12         3.6590    2.7070    0.7930 h1        1 0EY      0.105000
     36 H13         4.5280    0.8840    1.5000 ho        1 0EY      0.214000
     37 H14         1.4890    1.1980    1.6900 h1        1 0EY      0.140000
     38 H15         1.6720    2.7200    2.9730 ho        1 0EY      0.223000
@<TRIPOS>BOND
     1    1    2 1   
     2    1   11 1   
     3    2    3 1   
     4    2   24 1   
     5    3   25 1   
     6    4    5 1   
     7    4    7 1   
     8    4   26 1   
     9    4   27 1   
    10    5    6 1   
    11    5   12 1   
    12    6   14 1   
    13    7   10 1   
    14    8   10 1   
    15    8   29 1   
    16    9   10 1   
    17   12   13 1   
    18   13   14 1   
    19   15   16 1   
    20   15   22 1   
    21   15   30 1   
    22   16   17 1   
    23   17   18 1   
    24   17   20 1   
    25   17   31 1   
    26   18   19 1   
    27   18   32 1   
    28   18   33 1   
    29   19   34 1   
    30   20   21 1   
    31   20   22 1   
    32   20   35 1   
    33   21   36 1   
    34   22   23 1   
    35   22   37 1   
    36   23   38 1   
@<TRIPOS>SUBSTRUCTURE
     1 0EY         1 TEMP              0 ****  ****    0 ROOT
