@<TRIPOS>MOLECULE
0EZ
   91    93     1     0     0
SMALL
bcc


@<TRIPOS>ATOM
      1 O1          3.9640    0.0270    2.0060 o         1 0EZ     -0.598000
      2 C           4.4490   -0.7590    1.1740 c         1 0EZ      0.740100
      3 O2          5.0420   -1.9350    1.5630 os        1 0EZ     -0.446900
      4 CT          5.3070   -2.1660    2.9720 c3        1 0EZ      0.185800
      5 C1          4.0050   -2.2970    3.7440 c3        1 0EZ     -0.114100
      6 C2          6.0540   -3.5000    2.9570 c3        1 0EZ     -0.114100
      7 C3          6.1910   -1.0700    3.5430 c3        1 0EZ     -0.114100
      8 N           4.5130   -0.5830   -0.2010 n         1 0EZ     -0.515900
      9 CA          3.6560    0.4090   -0.8190 c3        1 0EZ      0.077700
     10 C4          2.2220   -0.1280   -1.0750 c3        1 0EZ      0.062100
     11 OXT         2.1850   -1.0600   -2.1380 oh        1 0EZ     -0.592800
     12 CB          4.2760    0.9330   -2.1280 c3        1 0EZ     -0.042100
     13 CG          5.5240    1.7080   -1.8930 ca        1 0EZ     -0.077300
     14 CD1         6.7630    1.1940   -2.2900 ca        1 0EZ     -0.120500
     15 CD2         5.4660    2.9700   -1.2890 ca        1 0EZ     -0.120500
     16 CE1         7.9280    1.9320   -2.0850 ca        1 0EZ     -0.126000
     17 CE2         6.6320    3.7050   -1.0850 ca        1 0EZ     -0.126000
     18 CZ          7.8650    3.1880   -1.4830 ca        1 0EZ     -0.127000
     19 CM          1.2320    1.0290   -1.3100 c3        1 0EZ      0.128800
     20 N1         -0.1530    0.6440   -1.4570 n3        1 0EZ     -0.813200
     21 CA1        -0.8580    0.4050   -0.1990 c3        1 0EZ      0.104500
     22 C5         -2.1550   -0.3910   -0.4920 c         1 0EZ      0.666100
     23 O          -2.1980   -1.6070   -0.2140 o         1 0EZ     -0.626100
     24 CB1        -1.1340    1.7160    0.5660 c3        1 0EZ     -0.036100
     25 CG1        -2.2260    1.5340    1.5580 ca        1 0EZ     -0.115300
     26 CD11       -2.0600    0.6670    2.6450 ca        1 0EZ     -0.111000
     27 CD21       -3.4520    2.1860    1.3720 ca        1 0EZ     -0.111000
     28 CE11       -3.1420    0.3410    3.4570 ca        1 0EZ     -0.141500
     29 CE21       -4.5440    1.8710    2.1740 ca        1 0EZ     -0.141500
     30 CZ1        -4.3960    0.9020    3.1760 ca        1 0EZ      0.103100
     31 OH         -5.4950    0.4890    3.9190 os        1 0EZ     -0.347900
     32 N2         -3.1980    0.2800   -1.0800 n         1 0EZ     -0.548900
     33 CA2        -4.4110   -0.3130   -1.5800 c3        1 0EZ      0.050700
     34 C6         -5.4330   -0.6530   -0.4600 c         1 0EZ      0.643100
     35 O3         -6.5290   -0.0550   -0.4440 o         1 0EZ     -0.631100
     36 CB2        -4.2160   -1.5500   -2.4890 c3        1 0EZ     -0.078700
     37 CG11       -3.2940   -1.2120   -3.6540 c3        1 0EZ     -0.073400
     38 CG2        -5.5660   -2.0160   -2.9960 c3        1 0EZ     -0.096100
     39 CD12       -3.0510   -2.3960   -4.5570 c3        1 0EZ     -0.093100
     40 N3         -5.1170   -1.6310    0.4470 n         1 0EZ     -0.560900
     41 CA3        -6.0610   -2.1290    1.4110 c3        1 0EZ      0.093000
     42 C7         -5.8430   -1.6860    2.8580 c3        1 0EZ     -0.135400
     43 C8         -6.4080   -0.3040    3.1410 c3        1 0EZ      0.125400
     44 H11         3.3350   -3.0340    3.2420 hc        1 0EZ      0.052256
     45 H12         4.2240   -2.6510    4.7800 hc        1 0EZ      0.052256
     46 H13         3.4830   -1.3120    3.7990 hc        1 0EZ      0.052256
     47 H21         6.9940   -3.4080    2.3640 hc        1 0EZ      0.052256
     48 H22         6.3040   -3.7870    4.0050 hc        1 0EZ      0.052256
     49 H23         5.4170   -4.2920    2.4980 hc        1 0EZ      0.052256
     50 H31         5.6310   -0.1050    3.5940 hc        1 0EZ      0.052256
     51 H32         6.5170   -1.3560    4.5710 hc        1 0EZ      0.052256
     52 H33         7.0920   -0.9300    2.9000 hc        1 0EZ      0.052256
     53 H           4.7310   -1.3850   -0.7490 hn        1 0EZ      0.320500
     54 HA          3.5680    1.2740   -0.0920 h1        1 0EZ      0.095700
     55 HC          1.8880   -0.7330   -0.1790 h1        1 0EZ      0.091700
     56 HOR         2.3640   -0.5790   -2.9560 ho        1 0EZ      0.400000
     57 HB2         4.4780    0.0760   -2.8250 hc        1 0EZ      0.054200
     58 HB3         3.5190    1.6000   -2.6220 hc        1 0EZ      0.054200
     59 HD1         6.8200    0.2010   -2.7620 ha        1 0EZ      0.129500
     60 HD2         4.4960    3.3790   -0.9710 ha        1 0EZ      0.129500
     61 HE1         8.8990    1.5200   -2.3980 ha        1 0EZ      0.132500
     62 HE2         6.5780    4.6940   -0.6070 ha        1 0EZ      0.132500
     63 HZ          8.7840    3.7690   -1.3210 ha        1 0EZ      0.132000
     64 HM2         1.3340    1.7640   -0.4650 h1        1 0EZ      0.063200
     65 HM3         1.5070    1.5560   -2.2680 h1        1 0EZ      0.063200
     66 H1         -0.2170   -0.1740   -2.0390 hn        1 0EZ      0.380800
     67 HA1        -0.2610   -0.2660    0.4960 h1        1 0EZ      0.063700
     68 HB21       -0.1910    2.0230    1.0940 hc        1 0EZ      0.060700
     69 HB31       -1.3960    2.5390   -0.1510 hc        1 0EZ      0.060700
     70 HD11       -1.0760    0.2100    2.8330 ha        1 0EZ      0.134000
     71 HD21       -3.5640    2.9300    0.5690 ha        1 0EZ      0.134000
     72 HE11       -3.0320   -0.3640    4.2930 ha        1 0EZ      0.149500
     73 HE21       -5.5230    2.3440    2.0080 ha        1 0EZ      0.149500
     74 H2         -3.1110    1.2650   -1.1880 hn        1 0EZ      0.328500
     75 HA2        -4.9250    0.4850   -2.2040 h1        1 0EZ      0.085700
     76 HB         -3.7390   -2.3730   -1.8850 hc        1 0EZ      0.080700
     77 HG12       -3.7370   -0.3700   -4.2480 hc        1 0EZ      0.039200
     78 HG13       -2.3050   -0.8600   -3.2570 hc        1 0EZ      0.039200
     79 HG21       -6.2830   -2.1710   -2.1540 hc        1 0EZ      0.042700
     80 HG22       -6.0040   -1.2650   -3.6970 hc        1 0EZ      0.042700
     81 HG23       -5.4520   -2.9850   -3.5390 hc        1 0EZ      0.042700
     82 HD12       -2.2500   -2.1530   -5.2970 hc        1 0EZ      0.035700
     83 HD13       -2.7260   -3.2850   -3.9640 hc        1 0EZ      0.035700
     84 HD14       -3.9760   -2.6660   -5.1210 hc        1 0EZ      0.035700
     85 H3         -4.1910   -1.9970    0.4690 hn        1 0EZ      0.342500
     86 HA21       -7.1000   -1.8260    1.0890 h1        1 0EZ      0.057200
     87 HA3        -6.0010   -3.2570    1.3850 h1        1 0EZ      0.057200
     88 H14        -7.3120   -0.3600    3.8050 h1        1 0EZ      0.066200
     89 H24        -6.6660    0.2340    2.1900 h1        1 0EZ      0.066200
     90 H89        -6.3490   -2.4350    3.5210 hc        1 0EZ      0.058700
     91 H99        -4.7500   -1.7040    3.1160 hc        1 0EZ      0.058700
@<TRIPOS>BOND
     1    1    2 2   
     2    2    3 1   
     3    2    8 1   
     4    3    4 1   
     5    4    5 1   
     6    4    6 1   
     7    4    7 1   
     8    5   44 1   
     9    5   45 1   
    10    5   46 1   
    11    6   47 1   
    12    6   48 1   
    13    6   49 1   
    14    7   50 1   
    15    7   51 1   
    16    7   52 1   
    17    8    9 1   
    18    8   53 1   
    19    9   10 1   
    20    9   12 1   
    21    9   54 1   
    22   10   11 1   
    23   10   19 1   
    24   10   55 1   
    25   11   56 1   
    26   12   13 1   
    27   12   57 1   
    28   12   58 1   
    29   13   14 ar  
    30   13   15 ar  
    31   14   16 ar  
    32   14   59 1   
    33   15   17 ar  
    34   15   60 1   
    35   16   18 ar  
    36   16   61 1   
    37   17   18 ar  
    38   17   62 1   
    39   18   63 1   
    40   19   20 1   
    41   19   64 1   
    42   19   65 1   
    43   20   21 1   
    44   20   66 1   
    45   21   22 1   
    46   21   24 1   
    47   21   67 1   
    48   22   23 2   
    49   22   32 1   
    50   24   25 1   
    51   24   68 1   
    52   24   69 1   
    53   25   26 ar  
    54   25   27 ar  
    55   26   28 ar  
    56   26   70 1   
    57   27   29 ar  
    58   27   71 1   
    59   28   30 ar  
    60   28   72 1   
    61   29   30 ar  
    62   29   73 1   
    63   30   31 1   
    64   31   43 1   
    65   32   33 1   
    66   32   74 1   
    67   33   34 1   
    68   33   36 1   
    69   33   75 1   
    70   34   35 2   
    71   34   40 1   
    72   36   37 1   
    73   36   38 1   
    74   36   76 1   
    75   37   39 1   
    76   37   77 1   
    77   37   78 1   
    78   38   79 1   
    79   38   80 1   
    80   38   81 1   
    81   39   82 1   
    82   39   83 1   
    83   39   84 1   
    84   40   41 1   
    85   40   85 1   
    86   41   42 1   
    87   41   86 1   
    88   41   87 1   
    89   42   43 1   
    90   42   90 1   
    91   42   91 1   
    92   43   88 1   
    93   43   89 1   
@<TRIPOS>SUBSTRUCTURE
     1 0EZ         1 TEMP              0 ****  ****    0 ROOT
