@<TRIPOS>MOLECULE
0EZ
   91    88     1     0     0
SMALL
bcc


@<TRIPOS>ATOM
      1 O1          2.3230   -4.3730    2.5730 o         1 0EZ     -0.404000
      2 C           1.8150   -5.0480    1.6730 c1        1 0EZ      0.391000
      3 O2          2.3580   -6.3630    1.3520 o         1 0EZ     -0.288000
      4 CT          2.6860   -7.1460    2.4920 c3        1 0EZ      0.114000
      5 C1          3.0710   -8.5640    2.0470 c3        1 0EZ     -0.232000
      6 C2          3.8490   -6.5130    3.2170 c3        1 0EZ     -0.232000
      7 C3          1.4960   -7.2130    3.4120 c3        1 0EZ     -0.232000
      8 N           0.6230   -4.5590    0.9760 n3        1 0EZ     -0.322000
      9 CA          0.7120   -3.4030    0.1410 c3        1 0EZ      0.034000
     10 C4         -0.3970   -2.4250    0.5020 c3        1 0EZ      0.001000
     11 OXT        -1.6070   -2.9760    0.1940 oh        1 0EZ     -0.336000
     12 CB          0.5670   -3.8120   -1.3100 c3        1 0EZ     -0.124000
     13 CG          1.5700   -4.9560   -1.6320 c2        1 0EZ     -0.066000
     14 CD1         1.1160   -6.2720   -1.7290 c2        1 0EZ     -0.119000
     15 CD2         2.8920   -4.6540   -1.9340 c1        1 0EZ     -0.126000
     16 CE1         1.9920   -7.2860   -2.1320 c1        1 0EZ     -0.129000
     17 CE2         3.7670   -5.6700   -2.3370 c1        1 0EZ     -0.129000
     18 CZ          3.3150   -6.9820   -2.4340 c1        1 0EZ     -0.129000
     19 CM         -0.2090   -1.1180   -0.2980 c3        1 0EZ     -0.120000
     20 N1         -0.4500    0.0510    0.5950 n3        1 0EZ     -0.288000
     21 CA1        -1.2690    0.9810   -0.0570 c3        1 0EZ     -0.029000
     22 C5         -0.9540    2.4080    0.4690 c2        1 0EZ      0.268000
     23 O          -1.1290    2.6730    1.6300 o         1 0EZ     -0.368000
     24 CB1        -2.7270    0.6480    0.2140 c3        1 0EZ     -0.117000
     25 CG1        -3.6370    1.8480   -0.2330 c2        1 0EZ     -0.107000
     26 CD11       -4.2550    2.6470    0.7260 c2        1 0EZ     -0.096000
     27 CD21       -3.9470    2.0480   -1.6770 c1        1 0EZ     -0.129000
     28 CE11       -5.0250    3.7600    0.3240 c1        1 0EZ     -0.153000
     29 CE21       -4.2590    3.5310   -1.9290 c1        1 0EZ     -0.149000
     30 CZ1        -4.8710    4.2830   -0.9450 c1        1 0EZ      0.063000
     31 OH         -5.4430    5.5520   -1.2700 os        1 0EZ     -0.227000
     32 N2         -0.3230    3.4110   -0.4370 n         1 0EZ     -0.374000
     33 CA2        -0.0130    4.6120    0.3040 c3        1 0EZ      0.008000
     34 C6         -1.2590    5.4870    0.3860 c2        1 0EZ      0.293000
     35 O3         -1.4140    6.2510    1.3290 o         1 0EZ     -0.359000
     36 CB2         1.0960    5.3690   -0.3990 c3        1 0EZ     -0.114000
     37 CG11        2.4170    4.5970   -0.2570 c3        1 0EZ     -0.159000
     38 CG2         1.2450    6.7150    0.2140 c3        1 0EZ     -0.219000
     39 CD12        3.5340    5.3130   -1.0920 c3        1 0EZ     -0.212000
     40 N3         -1.6770    5.8860   -0.9590 n         1 0EZ     -0.383000
     41 CA3        -2.2520    7.2370   -0.9240 c3        1 0EZ     -0.028000
     42 C7         -3.6500    7.2170   -1.5730 c3        1 0EZ     -0.206000
     43 C8         -4.6940    6.6120   -0.5920 c3        1 0EZ     -0.020000
     44 H11         3.7520   -8.5100    1.3260 hc        1 0EZ      0.090778
     45 H12         3.4440   -9.0630    2.8180 hc        1 0EZ      0.090778
     46 H13         2.2700   -9.0310    1.7100 hc        1 0EZ      0.090778
     47 H21         3.5150   -5.9140    3.9030 hc        1 0EZ      0.090778
     48 H22         4.3930   -7.2100    3.6290 hc        1 0EZ      0.090778
     49 H23         4.3930   -6.0070    2.5790 hc        1 0EZ      0.090778
     50 H31         0.7030   -7.5360    2.9050 hc        1 0EZ      0.090778
     51 H32         1.6880   -7.8330    4.1500 hc        1 0EZ      0.090778
     52 H33         1.3110   -6.3190    3.7750 hc        1 0EZ      0.090778
     53 H          -0.2090   -4.9510    1.1430 hn        1 0EZ      0.236000
     54 HA          1.6020   -2.9620    0.2750 h1        1 0EZ      0.133000
     55 HC         -0.3610   -2.2260    1.4820 h1        1 0EZ      0.091000
     56 HOR        -2.1840   -2.8270    0.8660 ho        1 0EZ      0.218000
     57 HB2        -0.3290   -4.1190   -1.4670 hc        1 0EZ      0.100500
     58 HB3         0.7550   -3.0390   -1.8880 hc        1 0EZ      0.100500
     59 HD1         0.1710   -6.4880   -1.5130 ha        1 0EZ      0.131000
     60 HD2         3.2100   -3.7310   -1.8670 ha        1 0EZ      0.129000
     61 HE1         1.6730   -8.2100   -2.2000 ha        1 0EZ      0.130000
     62 HE2         4.6830   -5.4600   -2.5460 ha        1 0EZ      0.130000
     63 HZ          3.9390   -7.7040   -2.7210 ha        1 0EZ      0.130000
     64 HM2        -0.8490   -1.0970   -1.0490 h1        1 0EZ      0.092000
     65 HM3         0.7020   -1.0780   -0.6470 h1        1 0EZ      0.092000
     66 H1          0.3410    0.4390    0.8050 hn        1 0EZ      0.174000
     67 HA1        -1.1010    0.9450   -1.0140 h1        1 0EZ      0.109000
     68 HB21       -2.8490    0.4870    1.1590 hc        1 0EZ      0.109500
     69 HB31       -2.9820   -0.1720   -0.3000 hc        1 0EZ      0.109500
     70 HD11       -4.1900    2.4150    1.6690 ha        1 0EZ      0.144000
     71 HD21       -3.8650    1.3770   -2.3570 ha        1 0EZ      0.134000
     72 HE11       -5.7340    4.0820    0.8910 ha        1 0EZ      0.149000
     73 HE21       -4.1060    3.9200   -2.8180 ha        1 0EZ      0.147000
     74 H2          0.2220    3.1380   -1.1070 hn        1 0EZ      0.230000
     75 HA2         0.2770    4.3730    1.2020 h1        1 0EZ      0.163000
     76 HB          0.8780    5.4650   -1.3380 hc        1 0EZ      0.082000
     77 HG12        2.6820    4.5720    0.6950 hc        1 0EZ      0.091000
     78 HG13        2.2960    3.6710   -0.5910 hc        1 0EZ      0.091000
     79 HG21        2.1000    7.1090   -0.0660 hc        1 0EZ      0.084000
     80 HG22        1.2290    6.6320    1.1810 hc        1 0EZ      0.084000
     81 HG23        0.5180    7.2840   -0.0740 hc        1 0EZ      0.084000
     82 HD12        4.3550    4.7910   -1.0490 hc        1 0EZ      0.073000
     83 HD13        3.6960    6.2090   -0.7220 hc        1 0EZ      0.073000
     84 HD14        3.2460    5.3910   -2.0220 hc        1 0EZ      0.073000
     85 H3         -1.2000    5.6190   -1.6760 hn        1 0EZ      0.219000
     86 HA21       -1.6610    7.8620   -1.4320 h1        1 0EZ      0.097500
     87 HA3        -2.3240    7.5350   -0.0050 h1        1 0EZ      0.097500
     88 H14        -4.2380    6.2420    0.1790 h1        1 0EZ      0.101000
     89 H24        -5.3090    7.3100   -0.3030 h1        1 0EZ      0.101000
     90 H89        -3.9140    8.1330   -1.8010 hc        1 0EZ      0.099000
     91 H99        -3.6210    6.6790   -2.3840 hc        1 0EZ      0.099000
@<TRIPOS>BOND
     1    1    2 1   
     2    2    8 1   
     3    3    4 1   
     4    4    5 1   
     5    4    6 1   
     6    4    7 1   
     7    5   44 1   
     8    5   45 1   
     9    5   46 1   
    10    6   47 1   
    11    6   48 1   
    12    6   49 1   
    13    7   50 1   
    14    7   51 1   
    15    7   52 1   
    16    8    9 1   
    17    8   53 1   
    18    9   10 1   
    19    9   12 1   
    20    9   54 1   
    21   10   11 1   
    22   10   19 1   
    23   10   55 1   
    24   11   56 1   
    25   12   13 1   
    26   12   57 1   
    27   12   58 1   
    28   13   14 1   
    29   13   15 1   
    30   14   16 1   
    31   14   59 1   
    32   15   60 1   
    33   16   61 1   
    34   17   18 1   
    35   17   62 1   
    36   18   63 1   
    37   19   20 1   
    38   19   64 1   
    39   19   65 1   
    40   20   21 1   
    41   20   66 1   
    42   21   22 1   
    43   21   24 1   
    44   21   67 1   
    45   22   23 1   
    46   22   32 1   
    47   24   25 1   
    48   24   68 1   
    49   24   69 1   
    50   25   26 1   
    51   25   27 1   
    52   26   28 1   
    53   26   70 1   
    54   27   71 1   
    55   28   72 1   
    56   29   30 1   
    57   29   73 1   
    58   30   31 1   
    59   31   43 1   
    60   32   33 1   
    61   32   74 1   
    62   33   34 1   
    63   33   36 1   
    64   33   75 1   
    65   34   35 1   
    66   34   40 1   
    67   36   37 1   
    68   36   38 1   
    69   36   76 1   
    70   37   39 1   
    71   37   77 1   
    72   37   78 1   
    73   38   79 1   
    74   38   80 1   
    75   38   81 1   
    76   39   82 1   
    77   39   83 1   
    78   39   84 1   
    79   40   41 1   
    80   40   85 1   
    81   41   42 1   
    82   41   86 1   
    83   41   87 1   
    84   42   43 1   
    85   42   90 1   
    86   42   91 1   
    87   43   88 1   
    88   43   89 1   
@<TRIPOS>SUBSTRUCTURE
     1 0EZ         1 TEMP              0 ****  ****    0 ROOT
