@<TRIPOS>MOLECULE
0F0
   66    69     1     0     0
SMALL
bcc


@<TRIPOS>ATOM
      1 C01        -9.6800    1.6300    1.3640 ca        1 0F0      0.415200
      2 N02       -10.8820    2.1980    1.1670 nb        1 0F0     -0.668000
      3 C03       -11.5620    1.8460    0.0570 ca        1 0F0      0.404200
      4 C04       -11.0740    0.9290   -0.8910 ca        1 0F0     -0.254300
      5 C05        -9.8240    0.3470   -0.6780 ca        1 0F0     -0.051000
      6 C06        -9.1050    0.6920    0.4750 cp        1 0F0     -0.273800
      7 C07        -7.7900    0.1040    0.7740 cp        1 0F0      0.535800
      8 N08        -6.9380   -0.1350   -0.2500 nb        1 0F0     -0.748000
      9 C09        -7.4530   -0.1860    2.1150 ca        1 0F0     -0.408600
     10 C10        -6.1790   -0.7350    2.3440 ca        1 0F0      0.460200
     11 N11        -5.2970   -0.9970    1.3700 nb        1 0F0     -0.727000
     12 C12        -5.7100   -0.6990    0.0760 ca        1 0F0      0.866900
     13 N13        -4.8790   -1.0440   -1.0140 nh        1 0F0     -0.694300
     14 C14        -3.4790   -1.1890   -0.8470 ca        1 0F0      0.088600
     15 C15        -2.9410   -2.2110   -0.0410 ca        1 0F0     -0.104500
     16 C16        -1.5680   -2.3890    0.0500 ca        1 0F0     -0.162500
     17 C17        -2.5890   -0.3600   -1.5610 ca        1 0F0     -0.104500
     18 C18        -1.2150   -0.5430   -1.4820 ca        1 0F0     -0.162500
     19 C19        -0.6730   -1.5600   -0.6700 ca        1 0F0      0.067600
     20 N20         0.7040   -1.8010   -0.5470 n         1 0F0     -0.468100
     21 C21         1.7450   -1.0690   -1.1050 c         1 0F0      0.681700
     22 O22         1.5720   -0.0760   -1.8340 o         1 0F0     -0.574100
     23 C23         3.1180   -1.5620   -0.7690 ca        1 0F0     -0.121600
     24 C24         3.4610   -2.9010   -0.9630 ca        1 0F0     -0.137000
     25 C25         4.7590   -3.3180   -0.6740 ca        1 0F0     -0.108000
     26 C26         5.7020   -2.4200   -0.1870 ca        1 0F0     -0.167000
     27 C27         5.3600   -1.0600    0.0150 ca        1 0F0      0.069600
     28 C28         4.0480   -0.6380   -0.2920 ca        1 0F0     -0.107000
     29 N29         6.3470   -0.1860    0.4950 n         1 0F0     -0.475100
     30 C30         6.1600    1.0930    1.0070 c         1 0F0      0.666100
     31 O31         5.0410    1.6230    1.1070 o         1 0F0     -0.579100
     32 C32         7.4120    1.8220    1.4680 c3        1 0F0     -0.158400
     33 C33         8.3800    2.0630    0.3290 c3        1 0F0     -0.081400
     34 C34         9.5010    2.9900    0.8020 c3        1 0F0      0.170800
     35 N35        10.6220    3.0730   -0.1240 n3        1 0F0     -0.739600
     36 C36        10.2650    3.6290   -1.4100 c3        1 0F0      0.155100
     37 C37        11.7690    3.7240    0.4690 c3        1 0F0      0.155100
     38 H1         -9.1420    1.9470    2.2760 h4        1 0F0      0.027100
     39 H2        -12.5470    2.3290   -0.0740 h4        1 0F0      0.024100
     40 H3        -11.6670    0.6810   -1.7810 ha        1 0F0      0.147000
     41 H4         -9.4100   -0.3710   -1.4030 ha        1 0F0      0.157000
     42 H5         -8.1520   -0.0000    2.9370 ha        1 0F0      0.157000
     43 H6         -5.8400   -0.9790    3.3680 h4        1 0F0      0.028100
     44 H7         -5.1330   -0.5980   -1.8750 hn        1 0F0      0.433800
     45 H8         -3.6040   -2.8800    0.5300 ha        1 0F0      0.145000
     46 H9         -1.1850   -3.1940    0.6960 ha        1 0F0      0.153500
     47 H10        -2.9740    0.4490   -2.2020 ha        1 0F0      0.145000
     48 H11        -0.5560    0.1280   -2.0600 ha        1 0F0      0.153500
     49 H12         0.9570   -2.5500    0.0590 hn        1 0F0      0.320500
     50 H13         2.7270   -3.6190   -1.3570 ha        1 0F0      0.140000
     51 H14         5.0430   -4.3690   -0.8330 ha        1 0F0      0.138000
     52 H15         6.7180   -2.7790    0.0340 ha        1 0F0      0.133000
     53 H16         3.7450    0.4170   -0.1670 ha        1 0F0      0.190000
     54 H17         7.2770   -0.5420    0.4920 hn        1 0F0      0.319500
     55 H18         7.0800    2.8030    1.9040 hc        1 0F0      0.075700
     56 H19         7.9070    1.2360    2.2860 hc        1 0F0      0.075700
     57 H20         8.8130    1.0920   -0.0280 hc        1 0F0      0.055700
     58 H21         9.0550    4.0080    1.0080 h1        1 0F0      0.032700
     59 H22         9.9000    2.5940    1.7800 h1        1 0F0      0.032700
     60 H24         9.8520    4.6730   -1.3430 h1        1 0F0      0.032700
     61 H25        11.1750    3.6480   -2.0660 h1        1 0F0      0.032700
     62 H26         9.4940    2.9710   -1.8890 h1        1 0F0      0.032700
     63 H27        12.0680    3.1670    1.3950 h1        1 0F0      0.032700
     64 H28        12.6210    3.6890   -0.2600 h1        1 0F0      0.032700
     65 H29        11.5780    4.7980    0.7440 h1        1 0F0      0.032700
     66 H30         7.8360    2.5290   -0.5340 hc        1 0F0      0.055700
@<TRIPOS>BOND
     1    1    2 ar  
     2    1    6 ar  
     3    1   38 1   
     4    2    3 ar  
     5    3    4 ar  
     6    3   39 1   
     7    4    5 ar  
     8    4   40 1   
     9    5    6 ar  
    10    5   41 1   
    11    6    7 1   
    12    7    8 ar  
    13    7    9 ar  
    14    8   12 ar  
    15    9   10 ar  
    16    9   42 1   
    17   10   11 ar  
    18   10   43 1   
    19   11   12 ar  
    20   12   13 1   
    21   13   14 1   
    22   13   44 1   
    23   14   15 ar  
    24   14   17 ar  
    25   15   16 ar  
    26   15   45 1   
    27   16   19 ar  
    28   16   46 1   
    29   17   18 ar  
    30   17   47 1   
    31   18   19 ar  
    32   18   48 1   
    33   19   20 1   
    34   20   21 1   
    35   20   49 1   
    36   21   22 2   
    37   21   23 1   
    38   23   24 ar  
    39   23   28 ar  
    40   24   25 ar  
    41   24   50 1   
    42   25   26 ar  
    43   25   51 1   
    44   26   27 ar  
    45   26   52 1   
    46   27   28 ar  
    47   27   29 1   
    48   28   53 1   
    49   29   30 1   
    50   29   54 1   
    51   30   31 2   
    52   30   32 1   
    53   32   33 1   
    54   32   55 1   
    55   32   56 1   
    56   33   34 1   
    57   33   57 1   
    58   33   66 1   
    59   34   35 1   
    60   34   58 1   
    61   34   59 1   
    62   35   36 1   
    63   35   37 1   
    64   36   60 1   
    65   36   61 1   
    66   36   62 1   
    67   37   63 1   
    68   37   64 1   
    69   37   65 1   
@<TRIPOS>SUBSTRUCTURE
     1 0F0         1 TEMP              0 ****  ****    0 ROOT
