@<TRIPOS>MOLECULE
0F0
   66    55     1     0     0
SMALL
bcc


@<TRIPOS>ATOM
      1 C01        10.7580    0.4610   -1.2720 c1        1 0F0     -0.094000
      2 N02        12.0320    0.7670   -1.6670 n1        1 0F0     -0.141000
      3 C03        12.2400    1.7230   -2.6070 c1        1 0F0     -0.060000
      4 C04        11.1630    2.3900   -3.1690 c1        1 0F0     -0.118500
      5 C05         9.8900    2.0850   -2.7750 c1        1 0F0     -0.118500
      6 C06         9.6820    1.1250   -1.8310 c1        1 0F0     -0.100000
      7 C07         8.2890    0.8370   -1.3480 c1        1 0F0      0.100000
      8 N08         7.5430   -0.1000   -1.9620 n1        1 0F0     -0.224000
      9 C09         7.7920    1.5070   -0.2820 c2        1 0F0     -0.278000
     10 C10         6.5340    1.2340    0.1700 c1        1 0F0     -0.004000
     11 N11         5.7870    0.2960   -0.4450 n1        1 0F0     -0.200000
     12 C12         6.2840   -0.3750   -1.5110 c1        1 0F0      0.149000
     13 N13         5.5260   -1.4020   -2.1180 n2        1 0F0     -0.218000
     14 C14         4.0970   -1.3280   -2.1220 c1        1 0F0      0.012000
     15 C15         3.3910   -1.5290   -0.9490 c1        1 0F0     -0.118500
     16 C16         2.0010   -1.4880   -0.9560 c1        1 0F0     -0.118500
     17 C17         3.4190   -1.0850   -3.3040 c1        1 0F0     -0.136000
     18 C18         2.0340   -1.0440   -3.3130 c1        1 0F0     -0.173000
     19 C19         1.3250   -1.2470   -2.1330 c1        1 0F0      0.072000
     20 N20        -0.1170   -1.2180   -2.1430 n3        1 0F0     -0.321000
     21 C21        -0.8090    0.0380   -2.1120 c1        1 0F0      0.354000
     22 O22        -0.1790    1.0800   -2.0780 o         1 0F0     -0.346000
     23 C23        -2.3710    0.0670   -2.0470 c1        1 0F0     -0.100000
     24 C24        -3.1210   -0.3920   -3.1310 c1        1 0F0     -0.118500
     25 C25        -4.5170   -0.4960   -3.0250 c1        1 0F0     -0.118500
     26 C26        -5.1570   -0.1390   -1.8340 c1        1 0F0     -0.135000
     27 C27        -4.4140    0.3170   -0.7550 c1        1 0F0      0.076000
     28 C28        -3.0120    0.4220   -0.8580 c1        1 0F0     -0.094000
     29 N29        -5.0760    0.7290    0.4480 n         1 0F0     -0.326000
     30 C30        -6.4690    0.3620    0.6750 c2        1 0F0      0.313000
     31 O31        -7.0710   -0.2950   -0.1590 o         1 0F0     -0.348000
     32 C32        -7.1880    0.8270    1.9540 c3        1 0F0     -0.188000
     33 C33        -7.0040   -0.2310    3.0580 c3        1 0F0     -0.160000
     34 C34        -7.9040    0.1230    4.2730 c3        1 0F0     -0.064000
     35 N35        -7.9430   -0.9730    5.1640 n3        1 0F0     -0.266000
     36 C36        -7.2760   -0.6200    6.3950 c3        1 0F0     -0.118500
     37 C37        -9.3020   -1.3150    5.4410 c3        1 0F0     -0.118500
     38 H1         10.6090   -0.2260   -0.5960 ha        1 0F0      0.158000
     39 H2         13.1630    1.9450   -2.8930 ha        1 0F0      0.161000
     40 H3         11.3120    3.0770   -3.8450 ha        1 0F0      0.152333
     41 H4          9.1330    2.5530   -3.1700 ha        1 0F0      0.152333
     42 H5          8.3390    2.1940    0.1670 ha        1 0F0      0.157000
     43 H6          6.1790    1.7120    0.9300 ha        1 0F0      0.167000
     44 H7          5.9460   -2.1300   -2.4700 hn        1 0F0      0.230000
     45 H8          3.8660   -1.6990   -0.1200 ha        1 0F0      0.152333
     46 H9          1.5020   -1.6310   -0.1260 ha        1 0F0      0.152333
     47 H10         3.9150   -0.9430   -4.1310 ha        1 0F0      0.132000
     48 H11         1.5650   -0.8770   -4.1320 ha        1 0F0      0.131000
     49 H12        -0.5890   -1.9990   -2.0920 hn        1 0F0      0.234000
     50 H13        -2.6740   -0.6410   -3.9640 ha        1 0F0      0.152333
     51 H14        -5.0370   -0.8140   -3.7760 ha        1 0F0      0.152333
     52 H15        -6.1460   -0.2130   -1.7600 ha        1 0F0      0.178000
     53 H16        -2.4880    0.7440   -0.0990 ha        1 0F0      0.158000
     54 H17        -4.6040    1.1540    1.1050 hn        1 0F0      0.234000
     55 H18        -8.1450    0.9430    1.7690 hc        1 0F0      0.115500
     56 H19        -6.8000    1.6930    2.2560 hc        1 0F0      0.115500
     57 H20        -6.0750   -0.2480    3.3370 hc        1 0F0      0.095000
     58 H21        -8.8070    0.3210    3.9620 h1        1 0F0      0.072000
     59 H22        -7.5430    0.8940    4.7270 h1        1 0F0      0.072000
     60 H24        -7.3950    0.3410    6.5700 h1        1 0F0      0.071667
     61 H25        -7.6630   -1.1390    7.1370 h1        1 0F0      0.071667
     62 H26        -6.3220   -0.8210    6.3190 h1        1 0F0      0.071667
     63 H27        -9.7920   -0.5110    5.7190 h1        1 0F0      0.071667
     64 H28        -9.3290   -1.9810    6.1620 h1        1 0F0      0.071667
     65 H29        -9.7190   -1.6900    4.6300 h1        1 0F0      0.071667
     66 H30        -7.2580   -1.1170    2.7090 hc        1 0F0      0.095000
@<TRIPOS>BOND
     1    1    6 1   
     2    1   38 1   
     3    2    3 1   
     4    3   39 1   
     5    4    5 1   
     6    4   40 1   
     7    5   41 1   
     8    7    8 1   
     9    7    9 1   
    10    9   10 1   
    11    9   42 1   
    12   10   43 1   
    13   11   12 1   
    14   13   14 1   
    15   13   44 1   
    16   14   17 1   
    17   15   16 1   
    18   15   45 1   
    19   16   46 1   
    20   17   47 1   
    21   18   19 1   
    22   18   48 1   
    23   19   20 1   
    24   20   21 1   
    25   20   49 1   
    26   21   22 1   
    27   23   28 1   
    28   24   25 1   
    29   24   50 1   
    30   25   51 1   
    31   26   27 1   
    32   26   52 1   
    33   27   29 1   
    34   28   53 1   
    35   29   30 1   
    36   29   54 1   
    37   30   31 1   
    38   30   32 1   
    39   32   33 1   
    40   32   55 1   
    41   32   56 1   
    42   33   34 1   
    43   33   57 1   
    44   33   66 1   
    45   34   35 1   
    46   34   58 1   
    47   34   59 1   
    48   35   36 1   
    49   35   37 1   
    50   36   60 1   
    51   36   61 1   
    52   36   62 1   
    53   37   63 1   
    54   37   64 1   
    55   37   65 1   
@<TRIPOS>SUBSTRUCTURE
     1 0F0         1 TEMP              0 ****  ****    0 ROOT
