@<TRIPOS>MOLECULE
0F0
   67    70     1     0     0
SMALL
bcc


@<TRIPOS>ATOM
      1 C01         0.2590    0.8550    0.4480 ca        1 0F0      0.416200
      2 N02         1.6020    0.8940    0.5070 nb        1 0F0     -0.666000
      3 C03         2.2140    0.0210    1.3320 ca        1 0F0      0.408200
      4 C04         1.5200   -0.9100    2.1260 ca        1 0F0     -0.253300
      5 C05         0.1260   -0.9400    2.0590 ca        1 0F0     -0.049000
      6 C06        -0.5290   -0.0470    1.1990 cp        1 0F0     -0.279800
      7 C07        -1.9930   -0.0320    1.0640 cp        1 0F0      0.538800
      8 N08        -2.7510   -0.2460    2.1650 nb        1 0F0     -0.745000
      9 C09        -2.5670    0.2120   -0.2050 ca        1 0F0     -0.403600
     10 C10        -3.9690    0.2310   -0.2740 ca        1 0F0      0.460200
     11 N11        -4.7690    0.0240    0.7830 nb        1 0F0     -0.733000
     12 C12        -4.1290   -0.2290    1.9890 ca        1 0F0      0.865900
     13 N13        -4.8980   -0.5610    3.1280 nu        1 0F0     -0.699300
     14 C14        -6.2550   -0.1740    3.2370 ca        1 0F0      0.106600
     15 C15        -7.2300   -0.6570    2.3400 ca        1 0F0     -0.109000
     16 C16        -8.5670   -0.3290    2.5080 ca        1 0F0     -0.154500
     17 C17        -6.6770    0.6370    4.3110 ca        1 0F0     -0.109000
     18 C18        -8.0170    0.9570    4.4900 ca        1 0F0     -0.154500
     19 C19        -8.9900    0.4850    3.5860 ca        1 0F0      0.050600
     20 N20       -10.3620    0.7660    3.7150 ns        1 0F0     -0.461100
     21 C21       -10.9460    1.7060    4.5470 c         1 0F0      0.677700
     22 O22       -10.3050    2.4330    5.3280 o         1 0F0     -0.583100
     23 C23       -12.4380    1.8200    4.4550 ca        1 0F0     -0.120600
     24 C24       -13.2610    0.6950    4.4060 ca        1 0F0     -0.115000
     25 C25       -14.6450    0.8610    4.3570 ca        1 0F0     -0.108000
     26 C26       -15.2090    2.1320    4.3540 ca        1 0F0     -0.149000
     27 C27       -14.3800    3.2770    4.4130 ca        1 0F0      0.038600
     28 C28       -12.9830    3.1070    4.4660 ca        1 0F0     -0.095000
     29 N29       -14.9890    4.5500    4.4510 ns        1 0F0     -0.456100
     30 C30       -14.3790    5.7480    4.1510 c         1 0F0      0.664100
     31 O31       -13.1960    5.8570    3.7770 o         1 0F0     -0.588100
     32 C32       -15.2440    7.0010    4.3030 c3        1 0F0     -0.159400
     33 C33       -14.3570    8.2210    4.1460 c3        1 0F0     -0.105400
     34 C34       -15.1900    9.4900    4.2440 c3        1 0F0      0.105800
     35 N35       -14.3530   10.7380    4.1950 nx        1 0F0     -0.679400
     36 C36       -13.8520   11.0040    2.8200 c3        1 0F0      0.081100
     37 C37       -15.1200   11.9030    4.7070 c3        1 0F0      0.081100
     38 H1         -0.2130    1.5900   -0.2300 h4        1 0F0      0.025100
     39 H2          3.3170    0.0760    1.3550 h4        1 0F0      0.027100
     40 H3          2.0670   -1.5970    2.7840 ha        1 0F0      0.150000
     41 H4         -0.4480   -1.6530    2.6700 ha        1 0F0      0.157000
     42 H5         -1.9470    0.3700   -1.0940 ha        1 0F0      0.160000
     43 H6         -4.4900    0.4240   -1.2310 h4        1 0F0      0.028100
     44 H7         -4.3930   -0.5060    3.9920 hn        1 0F0      0.436800
     45 H8         -6.9420   -1.3020    1.4940 ha        1 0F0      0.148500
     46 H9         -9.2990   -0.7210    1.7840 ha        1 0F0      0.151500
     47 H10        -5.9440    1.0280    5.0350 ha        1 0F0      0.148500
     48 H11        -8.3030    1.5910    5.3450 ha        1 0F0      0.151500
     49 H12       -10.9590    0.2870    3.0780 hn        1 0F0      0.320500
     50 H13       -12.8340   -0.3200    4.4250 ha        1 0F0      0.150000
     51 H14       -15.3010   -0.0230    4.3210 ha        1 0F0      0.149000
     52 H15       -16.3050    2.2320    4.3140 ha        1 0F0      0.136000
     53 H16       -12.2990    3.9730    4.5250 ha        1 0F0      0.184000
     54 H17       -15.9600    4.5570    4.6690 hn        1 0F0      0.322500
     55 H18       -15.7410    7.0080    5.3080 hc        1 0F0      0.076200
     56 H19       -16.0420    6.9910    3.5150 hc        1 0F0      0.076200
     57 H20       -13.8300    8.1580    3.1550 hc        1 0F0      0.088700
     58 H21       -15.9330    9.5400    3.3980 hx        1 0F0      0.102200
     59 H22       -15.7550    9.4980    5.2210 hx        1 0F0      0.102200
     60 H24       -14.7200   11.1800    2.1310 hx        1 0F0      0.107200
     61 H25       -13.2600   10.1180    2.4610 hx        1 0F0      0.107200
     62 H26       -13.1940   11.9140    2.8350 hx        1 0F0      0.107200
     63 H27       -14.4810   12.8250    4.6440 hx        1 0F0      0.107200
     64 H28       -16.0440   12.0460    4.0860 hx        1 0F0      0.107200
     65 H29       -15.4090   11.7210    5.7770 hx        1 0F0      0.107200
     66 H30       -13.5630    8.1970    4.9420 hc        1 0F0      0.088700
     67 H351      -13.5370   10.5910    4.8070 hn        1 0F0      0.454800
@<TRIPOS>BOND
     1    1    2 ar  
     2    1    6 ar  
     3    1   38 1   
     4    2    3 ar  
     5    3    4 ar  
     6    3   39 1   
     7    4    5 ar  
     8    4   40 1   
     9    5    6 ar  
    10    5   41 1   
    11    6    7 1   
    12    7    8 ar  
    13    7    9 ar  
    14    8   12 ar  
    15    9   10 ar  
    16    9   42 1   
    17   10   11 ar  
    18   10   43 1   
    19   11   12 ar  
    20   12   13 1   
    21   13   14 1   
    22   13   44 1   
    23   14   15 ar  
    24   14   17 ar  
    25   15   16 ar  
    26   15   45 1   
    27   16   19 ar  
    28   16   46 1   
    29   17   18 ar  
    30   17   47 1   
    31   18   19 ar  
    32   18   48 1   
    33   19   20 1   
    34   20   21 1   
    35   20   49 1   
    36   21   22 2   
    37   21   23 1   
    38   23   24 ar  
    39   23   28 ar  
    40   24   25 ar  
    41   24   50 1   
    42   25   26 ar  
    43   25   51 1   
    44   26   27 ar  
    45   26   52 1   
    46   27   28 ar  
    47   27   29 1   
    48   28   53 1   
    49   29   30 1   
    50   29   54 1   
    51   30   31 2   
    52   30   32 1   
    53   32   33 1   
    54   32   55 1   
    55   32   56 1   
    56   33   34 1   
    57   33   57 1   
    58   33   66 1   
    59   34   35 1   
    60   34   58 1   
    61   34   59 1   
    62   35   36 1   
    63   35   37 1   
    64   35   67 1   
    65   36   60 1   
    66   36   61 1   
    67   36   62 1   
    68   37   63 1   
    69   37   64 1   
    70   37   65 1   
@<TRIPOS>SUBSTRUCTURE
     1 0F0         1 TEMP              0 ****  ****    0 ROOT
