@<TRIPOS>MOLECULE
0F0
   70    73     1     0     0
SMALL
bcc


@<TRIPOS>ATOM
      1 C01         0.3410   -0.4340    0.3040 ca        1 0F0      0.456200
      2 N02         1.6670   -0.2840    0.4390 nb        1 0F0     -0.637000
      3 C03         2.1580   -0.0840    1.6790 ca        1 0F0      0.471200
      4 C04         1.3430   -0.0340    2.8300 ca        1 0F0     -0.245300
      5 C05        -0.0310   -0.1910    2.6840 ca        1 0F0     -0.033000
      6 C06        -0.5650   -0.3870    1.3950 cp        1 0F0     -0.356800
      7 C07        -1.9920   -0.5570    1.1590 cp        1 0F0      0.591800
      8 N08        -2.7780   -1.0980    2.1390 nb        1 0F0     -0.686000
      9 C09        -2.5660   -0.1800   -0.0900 ca        1 0F0     -0.297600
     10 C10        -3.9380   -0.3900   -0.2880 ca        1 0F0      0.460200
     11 N11        -4.7410   -0.9370    0.6570 nb        1 0F0     -0.705000
     12 C12        -4.0930   -1.2660    1.8160 ca        1 0F0      0.694900
     13 N13        -4.9170   -1.9600    2.8730 n4        1 0F0     -0.627100
     14 C14        -6.1900   -1.2890    3.1530 ca        1 0F0      0.045600
     15 C15        -7.2890   -1.4800    2.2930 ca        1 0F0     -0.062000
     16 C16        -8.5200   -0.9040    2.6030 ca        1 0F0     -0.078000
     17 C17        -6.3180   -0.4780    4.2940 ca        1 0F0     -0.062000
     18 C18        -7.5510    0.0960    4.6060 ca        1 0F0     -0.078000
     19 C19        -8.6600   -0.1360    3.7730 ca        1 0F0     -0.023400
     20 N20        -9.9880    0.3710    4.1520 n4        1 0F0     -0.545200
     21 C21       -10.1470    1.8870    4.1320 c         1 0F0      0.561700
     22 O22        -9.1610    2.5510    4.4020 o         1 0F0     -0.365100
     23 C23       -11.5070    2.3980    3.8540 ca        1 0F0     -0.170600
     24 C24       -12.3350    1.8440    2.8700 ca        1 0F0     -0.038000
     25 C25       -13.5940    2.3980    2.6300 ca        1 0F0     -0.079000
     26 C26       -14.0380    3.5020    3.3550 ca        1 0F0     -0.036000
     27 C27       -13.1960    4.0750    4.3310 ca        1 0F0     -0.035400
     28 C28       -11.9230    3.5310    4.5760 ca        1 0F0     -0.027000
     29 N29       -13.6710    5.2270    5.1090 n4        1 0F0     -0.559200
     30 C30       -13.8000    6.5420    4.3210 c         1 0F0      0.542100
     31 O31       -13.0960    6.6610    3.3380 o         1 0F0     -0.355100
     32 C32       -14.7890    7.5220    4.8990 c3        1 0F0     -0.148400
     33 C33       -14.7430    8.8370    4.1320 c3        1 0F0     -0.107400
     34 C34       -15.7780    9.8010    4.7140 c3        1 0F0      0.102800
     35 N35       -15.7720   11.1600    4.0830 n4        1 0F0     -0.677400
     36 C36       -16.4080   11.1500    2.7360 c3        1 0F0      0.077600
     37 C37       -16.4630   12.1460    4.9690 c3        1 0F0      0.077600
     38 H1         -0.0070   -0.6230   -0.7290 h4        1 0F0      0.034100
     39 H2          3.2590    0.0360    1.7480 h4        1 0F0      0.064100
     40 H3          1.7960    0.1240    3.8200 ha        1 0F0      0.175000
     41 H4         -0.6860   -0.1520    3.5670 ha        1 0F0      0.143000
     42 H5         -1.9460    0.2740   -0.8810 ha        1 0F0      0.209000
     43 H6         -4.4400   -0.1220   -1.2410 h4        1 0F0      0.075100
     44 H7         -5.1040   -2.9170    2.5290 hn        1 0F0      0.492800
     45 H8         -7.1980   -2.0790    1.3640 ha        1 0F0      0.206500
     46 H9         -9.3660   -1.0830    1.9140 ha        1 0F0      0.184500
     47 H10        -5.4600   -0.2820    4.9670 ha        1 0F0      0.206500
     48 H11        -7.6270    0.7310    5.5080 ha        1 0F0      0.184500
     49 H12       -10.6930   -0.0560    3.5350 hn        1 0F0      0.477300
     50 H13       -12.0130    0.9920    2.2460 ha        1 0F0      0.170000
     51 H14       -14.2490    1.9590    1.8510 ha        1 0F0      0.214000
     52 H15       -15.0450    3.9080    3.1470 ha        1 0F0      0.186000
     53 H16       -11.2340    3.9780    5.3180 ha        1 0F0      0.183000
     54 H17       -13.0220    5.3950    5.8900 hn        1 0F0      0.475800
     55 H18       -15.8220    7.0770    4.8360 hc        1 0F0      0.119200
     56 H19       -14.5530    7.7020    5.9850 hc        1 0F0      0.119200
     57 H20       -13.7100    9.2760    4.2040 hc        1 0F0      0.095700
     58 H21       -15.5790    9.9390    5.8180 hx        1 0F0      0.114200
     59 H22       -16.8160    9.3740    4.5930 hx        1 0F0      0.114200
     60 H24       -17.4940   10.8760    2.8300 hx        1 0F0      0.118867
     61 H25       -16.3280   12.1790    2.2840 hx        1 0F0      0.118867
     62 H26       -15.8810   10.4120    2.0760 hx        1 0F0      0.118867
     63 H27       -17.5230   11.8190    5.1440 hx        1 0F0      0.118867
     64 H28       -16.4630   13.1530    4.4650 hx        1 0F0      0.118867
     65 H29       -15.9180   12.2200    5.9490 hx        1 0F0      0.118867
     66 H30       -14.9510    8.6440    3.0440 hc        1 0F0      0.095700
     67 H132       -4.3560   -2.0240    3.7410 hn        1 0F0      0.492800
     68 H202      -10.1750    0.0560    5.1180 hn        1 0F0      0.477300
     69 H292      -14.5930    4.9880    5.5040 hn        1 0F0      0.475800
     70 H351      -14.7930   11.4640    3.9730 hn        1 0F0      0.456800
@<TRIPOS>BOND
     1    1    2 ar  
     2    1    6 ar  
     3    1   38 1   
     4    2    3 ar  
     5    3    4 ar  
     6    3   39 1   
     7    4    5 ar  
     8    4   40 1   
     9    5    6 ar  
    10    5   41 1   
    11    6    7 1   
    12    7    8 ar  
    13    7    9 ar  
    14    8   12 ar  
    15    9   10 ar  
    16    9   42 1   
    17   10   11 ar  
    18   10   43 1   
    19   11   12 ar  
    20   12   13 1   
    21   13   14 1   
    22   13   44 1   
    23   13   67 1   
    24   14   15 ar  
    25   14   17 ar  
    26   15   16 ar  
    27   15   45 1   
    28   16   19 ar  
    29   16   46 1   
    30   17   18 ar  
    31   17   47 1   
    32   18   19 ar  
    33   18   48 1   
    34   19   20 1   
    35   20   21 1   
    36   20   49 1   
    37   20   68 1   
    38   21   22 2   
    39   21   23 1   
    40   23   24 ar  
    41   23   28 ar  
    42   24   25 ar  
    43   24   50 1   
    44   25   26 ar  
    45   25   51 1   
    46   26   27 ar  
    47   26   52 1   
    48   27   28 ar  
    49   27   29 1   
    50   28   53 1   
    51   29   30 1   
    52   29   54 1   
    53   29   69 1   
    54   30   31 2   
    55   30   32 1   
    56   32   33 1   
    57   32   55 1   
    58   32   56 1   
    59   33   34 1   
    60   33   57 1   
    61   33   66 1   
    62   34   35 1   
    63   34   58 1   
    64   34   59 1   
    65   35   36 1   
    66   35   37 1   
    67   35   70 1   
    68   36   60 1   
    69   36   61 1   
    70   36   62 1   
    71   37   63 1   
    72   37   64 1   
    73   37   65 1   
@<TRIPOS>SUBSTRUCTURE
     1 0F0         1 TEMP              0 ****  ****    0 ROOT
