@<TRIPOS>MOLECULE
0F0
   67    70     1     0     0
SMALL
bcc


@<TRIPOS>ATOM
      1 C01         0.2690    0.8480    0.4550 ca        1 0F0      0.416200
      2 N02         1.6110    0.8850    0.5170 nb        1 0F0     -0.666000
      3 C03         2.2200    0.0120    1.3450 ca        1 0F0      0.408200
      4 C04         1.5230   -0.9160    2.1380 ca        1 0F0     -0.253300
      5 C05         0.1300   -0.9450    2.0680 ca        1 0F0     -0.049000
      6 C06        -0.5220   -0.0520    1.2060 cp        1 0F0     -0.279800
      7 C07        -1.9850   -0.0360    1.0670 cp        1 0F0      0.538800
      8 N08        -2.7460   -0.2480    2.1660 nb        1 0F0     -0.745000
      9 C09        -2.5560    0.2070   -0.2040 ca        1 0F0     -0.403600
     10 C10        -3.9580    0.2270   -0.2770 ca        1 0F0      0.460200
     11 N11        -4.7610    0.0230    0.7790 nb        1 0F0     -0.733000
     12 C12        -4.1240   -0.2300    1.9870 ca        1 0F0      0.865900
     13 N13        -4.8960   -0.5580    3.1250 nh        1 0F0     -0.699300
     14 C14        -6.2530   -0.1710    3.2290 ca        1 0F0      0.106600
     15 C15        -7.2260   -0.6550    2.3310 ca        1 0F0     -0.109000
     16 C16        -8.5640   -0.3250    2.4950 ca        1 0F0     -0.154500
     17 C17        -6.6770    0.6420    4.3010 ca        1 0F0     -0.109000
     18 C18        -8.0180    0.9620    4.4760 ca        1 0F0     -0.154500
     19 C19        -8.9880    0.4900    3.5710 ca        1 0F0      0.050600
     20 N20       -10.3610    0.7720    3.6960 n         1 0F0     -0.461100
     21 C21       -10.9480    1.7080    4.5300 c         1 0F0      0.677700
     22 O22       -10.3090    2.4310    5.3160 o         1 0F0     -0.583100
     23 C23       -12.4400    1.8210    4.4340 ca        1 0F0     -0.120600
     24 C24       -13.2610    0.6950    4.3770 ca        1 0F0     -0.115000
     25 C25       -14.6460    0.8620    4.3240 ca        1 0F0     -0.108000
     26 C26       -15.2110    2.1320    4.3260 ca        1 0F0     -0.149000
     27 C27       -14.3820    3.2770    4.3930 ca        1 0F0      0.038600
     28 C28       -12.9850    3.1080    4.4500 ca        1 0F0     -0.095000
     29 N29       -14.9920    4.5490    4.4360 n         1 0F0     -0.456100
     30 C30       -14.3830    5.7500    4.1460 c         1 0F0      0.664100
     31 O31       -13.1980    5.8620    3.7780 o         1 0F0     -0.588100
     32 C32       -15.2490    7.0010    4.3020 c3        1 0F0     -0.159400
     33 C33       -14.3620    8.2230    4.1570 c3        1 0F0     -0.105400
     34 C34       -15.1970    9.4900    4.2590 c3        1 0F0      0.105800
     35 N35       -14.3610   10.7400    4.2230 n4        1 0F0     -0.679400
     36 C36       -13.8530   11.0150    2.8530 c3        1 0F0      0.081100
     37 C37       -15.1320   11.9010    4.7390 c3        1 0F0      0.081100
     38 H1         -0.2010    1.5810   -0.2260 h4        1 0F0      0.025100
     39 H2          3.3240    0.0660    1.3710 h4        1 0F0      0.027100
     40 H3          2.0690   -1.6030    2.7990 ha        1 0F0      0.150000
     41 H4         -0.4470   -1.6560    2.6790 ha        1 0F0      0.157000
     42 H5         -1.9340    0.3620   -1.0920 ha        1 0F0      0.160000
     43 H6         -4.4770    0.4190   -1.2350 h4        1 0F0      0.028100
     44 H7         -4.3940   -0.5030    3.9900 hn        1 0F0      0.436800
     45 H8         -6.9360   -1.3000    1.4860 ha        1 0F0      0.148500
     46 H9         -9.2930   -0.7170    1.7690 ha        1 0F0      0.151500
     47 H10        -5.9460    1.0330    5.0270 ha        1 0F0      0.148500
     48 H11        -8.3050    1.5980    5.3310 ha        1 0F0      0.151500
     49 H12       -10.9560    0.2940    3.0550 hn        1 0F0      0.320500
     50 H13       -12.8350   -0.3190    4.3920 ha        1 0F0      0.150000
     51 H14       -15.3010   -0.0230    4.2820 ha        1 0F0      0.149000
     52 H15       -16.3060    2.2320    4.2820 ha        1 0F0      0.136000
     53 H16       -12.3030    3.9740    4.5150 ha        1 0F0      0.184000
     54 H17       -15.9640    4.5550    4.6500 hn        1 0F0      0.322500
     55 H18       -15.7510    7.0010    5.3040 hc        1 0F0      0.076200
     56 H19       -16.0430    6.9950    3.5100 hc        1 0F0      0.076200
     57 H20       -13.5730    8.1940    4.9560 hc        1 0F0      0.088700
     58 H21       -15.9360    9.5450    3.4100 hx        1 0F0      0.102200
     59 H22       -15.7680    9.4910    5.2330 hx        1 0F0      0.102200
     60 H24       -13.1960   11.9250    2.8770 hx        1 0F0      0.107200
     61 H25       -14.7170   11.1950    2.1600 hx        1 0F0      0.107200
     62 H26       -13.2580   10.1330    2.4910 hx        1 0F0      0.107200
     63 H27       -14.4930   12.8230    4.6860 hx        1 0F0      0.107200
     64 H28       -15.4270   11.7100    5.8060 hx        1 0F0      0.107200
     65 H29       -16.0530   12.0460    4.1140 hx        1 0F0      0.107200
     66 H30       -13.8310    8.1670    3.1670 hc        1 0F0      0.088700
     67 H351      -13.5480   10.5900    4.8380 hn        1 0F0      0.454800
@<TRIPOS>BOND
     1    1    2 ar  
     2    1    6 ar  
     3    1   38 1   
     4    2    3 ar  
     5    3    4 ar  
     6    3   39 1   
     7    4    5 ar  
     8    4   40 1   
     9    5    6 ar  
    10    5   41 1   
    11    6    7 1   
    12    7    8 ar  
    13    7    9 ar  
    14    8   12 ar  
    15    9   10 ar  
    16    9   42 1   
    17   10   11 ar  
    18   10   43 1   
    19   11   12 ar  
    20   12   13 1   
    21   13   14 1   
    22   13   44 1   
    23   14   15 ar  
    24   14   17 ar  
    25   15   16 ar  
    26   15   45 1   
    27   16   19 ar  
    28   16   46 1   
    29   17   18 ar  
    30   17   47 1   
    31   18   19 ar  
    32   18   48 1   
    33   19   20 1   
    34   20   21 1   
    35   20   49 1   
    36   21   22 2   
    37   21   23 1   
    38   23   24 ar  
    39   23   28 ar  
    40   24   25 ar  
    41   24   50 1   
    42   25   26 ar  
    43   25   51 1   
    44   26   27 ar  
    45   26   52 1   
    46   27   28 ar  
    47   27   29 1   
    48   28   53 1   
    49   29   30 1   
    50   29   54 1   
    51   30   31 2   
    52   30   32 1   
    53   32   33 1   
    54   32   55 1   
    55   32   56 1   
    56   33   34 1   
    57   33   57 1   
    58   33   66 1   
    59   34   35 1   
    60   34   58 1   
    61   34   59 1   
    62   35   36 1   
    63   35   37 1   
    64   35   67 1   
    65   36   60 1   
    66   36   61 1   
    67   36   62 1   
    68   37   63 1   
    69   37   64 1   
    70   37   65 1   
@<TRIPOS>SUBSTRUCTURE
     1 0F0         1 TEMP              0 ****  ****    0 ROOT
