@<TRIPOS>MOLECULE
0F1
   17    18     1     0     0
SMALL
bcc


@<TRIPOS>ATOM
      1 CL1        -4.6520   -0.3790   -0.1880 cl        1 0F1     -0.141400
      2 C2         -2.9860   -0.0080   -0.0920 ca        1 0F1      0.000400
      3 C1         -2.5980    1.3320    0.1120 ca        1 0F1     -0.143000
      4 C6         -1.2550    1.6570    0.1930 ca        1 0F1     -0.091000
      5 C3         -2.0500   -1.0250   -0.2140 ca        1 0F1     -0.083000
      6 C4         -0.6920   -0.7030   -0.1330 ca        1 0F1     -0.108100
      7 C5         -0.2890    0.6490    0.0720 ca        1 0F1     -0.052800
      8 C8          1.1500    0.7500    0.1240 cc        1 0F1     -0.034800
      9 CL2         1.9250    2.2290    0.3570 cl        1 0F1     -0.087400
     10 S           0.6520   -1.7130   -0.2440 ss        1 0F1      0.050500
     11 C7          1.7720   -0.4630   -0.0350 cd        1 0F1     -0.057600
     12 C9          3.2720   -0.7450   -0.0370 c         1 0F1      0.932800
     13 O1          3.8010   -1.0210    1.0690 o         1 0F1     -0.794300
     14 O2          3.8580   -0.7010   -1.1490 o         1 0F1     -0.794300
     15 H1         -3.3660    2.1130    0.2050 ha        1 0F1      0.129000
     16 H2         -0.9380    2.6980    0.3510 ha        1 0F1      0.138000
     17 H3         -2.3630   -2.0670   -0.3730 ha        1 0F1      0.137000
@<TRIPOS>BOND
     1    1    2 1   
     2    2    3 ar  
     3    2    5 ar  
     4    3    4 ar  
     5    3   15 1   
     6    4    7 ar  
     7    4   16 1   
     8    5    6 ar  
     9    5   17 1   
    10    6    7 ar  
    11    6   10 1   
    12    7    8 1   
    13    8    9 1   
    14    8   11 2   
    15   10   11 1   
    16   11   12 1   
    17   12   13 1   
    18   12   14 1   
@<TRIPOS>SUBSTRUCTURE
     1 0F1         1 TEMP              0 ****  ****    0 ROOT
