@<TRIPOS>MOLECULE
0F1
   17    10     1     0     0
SMALL
bcc


@<TRIPOS>ATOM
      1 CL1        -4.1710   -0.8370    1.1190 cl        1 0F1     -0.063000
      2 C2         -2.4370   -0.7100    0.9860 c1        1 0F1     -0.078000
      3 C1         -1.5220   -0.8840    2.0480 c1        1 0F1     -0.117000
      4 C6         -0.1560   -0.6460    1.8440 c1        1 0F1     -0.117000
      5 C3         -1.9810   -0.3000   -0.2720 c1        1 0F1     -0.083000
      6 C4         -0.6300   -0.0640   -0.4770 c1        1 0F1     -0.188000
      7 C5          0.2980   -0.2400    0.5990 c1        1 0F1     -0.188000
      8 C8          1.7570    0.1960    0.0870 c1        1 0F1     -0.131000
      9 CL2         3.3100    0.3190    0.8700 cl        1 0F1     -0.003000
     10 S           0.1660    0.4830   -1.7140 s         1 0F1      0.518000
     11 C7          1.6480    0.6210   -1.2900 c1        1 0F1     -0.279000
     12 C9          2.4260    1.2000   -2.4520 c1        1 0F1      0.383000
     13 O1          2.8780    2.3740   -2.3840 os        1 0F1     -0.529000
     14 O2          2.6190    0.5100   -3.4880 o         1 0F1     -0.529000
     15 H1         -1.9560   -1.1970    2.8650 ha        1 0F1      0.133500
     16 H2          0.2680   -0.7490    2.7190 ha        1 0F1      0.133500
     17 H3         -2.5150   -0.0760   -1.0590 ha        1 0F1      0.137000
@<TRIPOS>BOND
     1    1    2 1   
     2    2    5 1   
     3    3    4 1   
     4    3   15 1   
     5    4   16 1   
     6    5   17 1   
     7    6    7 1   
     8    8   11 1   
     9   10   11 1   
    10   12   14 1   
@<TRIPOS>SUBSTRUCTURE
     1 0F1         1 TEMP              0 ****  ****    0 ROOT
