@<TRIPOS>MOLECULE
0F1
   17    18     1     0     0
SMALL
bcc


@<TRIPOS>ATOM
      1 Cl1         0.0480   -0.3400   -0.0490 cl        1 0F1     -0.141400
      2 C2          1.7490   -0.1700   -0.0210 ca        1 0F1      0.000400
      3 C1          2.3780    0.1780    1.1920 ca        1 0F1     -0.143000
      4 C6          3.7530    0.3210    1.2400 ca        1 0F1     -0.091000
      5 C3          2.4770   -0.3770   -1.1840 ca        1 0F1     -0.083000
      6 C4          3.8670   -0.2340   -1.1420 ca        1 0F1     -0.108100
      7 C5          4.5130    0.1180    0.0790 ca        1 0F1     -0.052800
      8 C8          5.9420    0.2110   -0.1070 cc        1 0F1     -0.034800
      9 Cl2         6.9740    0.6120    1.1630 cl        1 0F1     -0.087400
     10 S           4.9960   -0.4190   -2.3790 ss        1 0F1      0.050500
     11 C7          6.3250   -0.0590   -1.3970 cd        1 0F1     -0.057600
     12 C9          7.7420   -0.0570   -1.9640 c         1 0F1      0.932800
     13 O1          8.1620    1.0250   -2.4460 o         1 0F1     -0.794300
     14 O2          8.3720   -1.1450   -1.9260 o         1 0F1     -0.794300
     15 H1          1.7710    0.3340    2.0950 ha        1 0F1      0.129000
     16 H2          4.2580    0.5920    2.1790 ha        1 0F1      0.138000
     17 H3          1.9770   -0.6480   -2.1250 ha        1 0F1      0.137000
@<TRIPOS>BOND
     1    1    2 1   
     2    2    3 ar  
     3    2    5 ar  
     4    3    4 ar  
     5    3   15 1   
     6    4    7 ar  
     7    4   16 1   
     8    5    6 ar  
     9    5   17 1   
    10    6    7 ar  
    11    6   10 1   
    12    7    8 1   
    13    8    9 1   
    14    8   11 2   
    15   10   11 1   
    16   11   12 1   
    17   12   13 1   
    18   12   14 1   
@<TRIPOS>SUBSTRUCTURE
     1 0F1         1 TEMP              0 ****  ****    0 ROOT
