@<TRIPOS>MOLECULE
0F1
   17    18     1     0     0
SMALL
bcc


@<TRIPOS>ATOM
      1 CL1         0.0360    0.1780   -0.0800 cl        1 0F1     -0.141400
      2 C2          1.7440    0.0860   -0.0370 ca        1 0F1      0.000400
      3 C1          2.3820   -0.1070    1.2040 ca        1 0F1     -0.143000
      4 C6          3.7630   -0.1850    1.2660 ca        1 0F1     -0.091000
      5 C3          2.4650    0.2020   -1.2160 ca        1 0F1     -0.083000
      6 C4          3.8600    0.1240   -1.1610 ca        1 0F1     -0.108100
      7 C5          4.5170   -0.0710    0.0890 ca        1 0F1     -0.052800
      8 C8          5.9490   -0.1210   -0.0880 cc        1 0F1     -0.034800
      9 CL2         6.9940   -0.3420    1.2150 cl        1 0F1     -0.087400
     10 S           4.9840    0.2290   -2.4120 ss        1 0F1      0.050500
     11 C7          6.3240    0.0300   -1.3990 cd        1 0F1     -0.057600
     12 C9          7.7420    0.0310   -1.9650 c         1 0F1      0.932800
     13 O1          8.2110   -1.0770   -2.3300 o         1 0F1     -0.794300
     14 O2          8.3230    1.1440   -2.0430 o         1 0F1     -0.794300
     15 H1          1.7800   -0.1950    2.1190 ha        1 0F1      0.129000
     16 H2          4.2750   -0.3350    2.2270 ha        1 0F1      0.138000
     17 H3          1.9570    0.3520   -2.1800 ha        1 0F1      0.137000
@<TRIPOS>BOND
     1    1    2 1   
     2    2    3 ar  
     3    2    5 ar  
     4    3    4 ar  
     5    3   15 1   
     6    4    7 ar  
     7    4   16 1   
     8    5    6 ar  
     9    5   17 1   
    10    6    7 ar  
    11    6   10 1   
    12    7    8 1   
    13    8    9 1   
    14    8   11 2   
    15   10   11 1   
    16   11   12 1   
    17   12   13 1   
    18   12   14 1   
@<TRIPOS>SUBSTRUCTURE
     1 0F1         1 TEMP              0 ****  ****    0 ROOT
