@<TRIPOS>MOLECULE
0F2
   62    66     1     0     0
SMALL
bcc


@<TRIPOS>ATOM
      1 CAN         0.7060    0.6120   -0.0420 c3        1 0F2      0.137800
      2 CAO         2.1810    0.4280    0.3310 c3        1 0F2      0.126400
      3 OAP         2.3330   -0.3000    1.5440 os        1 0F2     -0.416600
      4 CAQ         1.6370    0.3100    2.6240 c3        1 0F2      0.126400
      5 CAR         0.1480    0.4860    2.3080 c3        1 0F2      0.137800
      6 NAM        -0.0730    1.1830    1.0480 n3        1 0F2     -0.732600
      7 CAL        -1.4810    1.3330    0.7240 c3        1 0F2      0.171800
      8 CAK        -2.1210    2.5630    1.3860 c3        1 0F2      0.128400
      9 OAJ        -1.9440    3.6330    0.4500 os        1 0F2     -0.315900
     10 CAD        -2.3890    4.8730    0.8550 ca        1 0F2      0.183100
     11 CAA        -3.0680    5.1280    2.0460 ca        1 0F2     -0.240000
     12 CAB        -3.4940    6.4330    2.3710 ca        1 0F2     -0.019300
     13 CAS        -4.2280    6.6410    3.6780 c3        1 0F2      0.200100
     14 CBB        -5.5540    5.8630    3.6830 c3        1 0F2     -0.102900
     15 CBD        -6.5360    6.3850    2.6670 c3        1 0F2     -0.096100
     16 CBC        -3.3320    6.1690    4.8390 c3        1 0F2     -0.102900
     17 CBE        -3.7670    6.6790    6.1880 c3        1 0F2     -0.096100
     18 OBF        -4.4810    8.0430    3.8070 oh        1 0F2     -0.597800
     19 CAC        -3.2440    7.5070    1.5240 ca        1 0F2     -0.150000
     20 CAF        -2.5590    7.2560    0.3260 ca        1 0F2     -0.027200
     21 NAG        -2.1150    8.1580   -0.6600 na        1 0F2     -0.180400
     22 CAE        -2.1280    5.9310   -0.0330 ca        1 0F2     -0.129800
     23 CAI        -1.4840    6.0320   -1.3230 cc        1 0F2     -0.075200
     24 CAH        -1.5260    7.3720   -1.6970 cd        1 0F2     -0.159900
     25 CAT        -0.9960    7.9730   -2.8910 cd        1 0F2      0.507100
     26 CAW        -0.4710    9.2800   -3.0430 cd        1 0F2     -0.879600
     27 S1          0.0220   10.6510   -2.3170 sx        1 0F2      0.549300
     28 CAZ         0.5300   11.4020   -3.7640 ce        1 0F2     -0.275300
     29 CAY         0.4840   10.5580   -4.8410 cf        1 0F2      0.018200
     30 CAX        -0.0850    9.2990   -4.4740 cd        1 0F2      0.205100
     31 NAV        -0.3770    8.0760   -5.0280 nc        1 0F2     -0.248000
     32 NAU        -0.8930    7.3100   -4.1280 nc        1 0F2     -0.372000
     33 H1          0.2930   -0.3870   -0.3690 h1        1 0F2      0.039950
     34 H2          0.6450    1.3190   -0.9150 h1        1 0F2      0.039950
     35 H3          2.6970   -0.2030   -0.4400 h1        1 0F2      0.054700
     36 H4          2.6930    1.4220    0.4230 h1        1 0F2      0.054700
     37 H5          2.1110    1.2980    2.8670 h1        1 0F2      0.054700
     38 H6          1.7680   -0.4030    3.4800 h1        1 0F2      0.054700
     39 H7         -0.3240    1.0970    3.1260 h1        1 0F2      0.039950
     40 H8         -0.3390   -0.5330    2.3110 h1        1 0F2      0.039950
     41 H10        -1.5950    1.4490   -0.3930 h1        1 0F2      0.051200
     42 H11        -2.0840    0.4320    1.0410 h1        1 0F2      0.051200
     43 H12        -1.6440    2.8280    2.3640 h1        1 0F2      0.043700
     44 H13        -3.2190    2.3830    1.5320 h1        1 0F2      0.043700
     45 H14        -3.2810    4.3110    2.7490 ha        1 0F2      0.134000
     46 H15        -5.3360    4.7820    3.4820 hc        1 0F2      0.048950
     47 H16        -6.0060    5.9310    4.7080 hc        1 0F2      0.048950
     48 H17        -6.7500    7.4660    2.8490 hc        1 0F2      0.038533
     49 H18        -7.4930    5.8140    2.7270 hc        1 0F2      0.038533
     50 H19        -6.1220    6.2820    1.6340 hc        1 0F2      0.038533
     51 H20        -3.3240    5.0480    4.8450 hc        1 0F2      0.048950
     52 H21        -2.2850    6.5170    4.6380 hc        1 0F2      0.048950
     53 H22        -3.1200    6.2400    6.9860 hc        1 0F2      0.038533
     54 H23        -3.6740    7.7920    6.2380 hc        1 0F2      0.038533
     55 H24        -4.8270    6.4030    6.4060 hc        1 0F2      0.038533
     56 H25        -5.0800    8.1440    4.5560 ho        1 0F2      0.404000
     57 H26        -3.5720    8.5220    1.7900 ha        1 0F2      0.157000
     58 H27        -2.6650    8.9490   -0.8910 hn        1 0F2      0.271700
     59 H28        -1.0450    5.2090   -1.8840 ha        1 0F2      0.179000
     60 H29         0.8930   12.4280   -3.7810 h4        1 0F2      0.181000
     61 H30         0.8340   10.7890   -5.8530 ha        1 0F2      0.172000
     62 H9         -1.0940   11.2850   -2.0980 hs        1 0F2      0.232000
@<TRIPOS>BOND
     1    1    2 1   
     2    1    6 1   
     3    1   33 1   
     4    1   34 1   
     5    2    3 1   
     6    2   35 1   
     7    2   36 1   
     8    3    4 1   
     9    4    5 1   
    10    4   37 1   
    11    4   38 1   
    12    5    6 1   
    13    5   39 1   
    14    5   40 1   
    15    6    7 1   
    16    7    8 1   
    17    7   41 1   
    18    7   42 1   
    19    8    9 1   
    20    8   43 1   
    21    8   44 1   
    22    9   10 1   
    23   10   11 ar  
    24   10   22 ar  
    25   11   12 ar  
    26   11   45 1   
    27   12   13 1   
    28   12   19 ar  
    29   13   14 1   
    30   13   16 1   
    31   13   18 1   
    32   14   15 1   
    33   14   46 1   
    34   14   47 1   
    35   15   48 1   
    36   15   49 1   
    37   15   50 1   
    38   16   17 1   
    39   16   51 1   
    40   16   52 1   
    41   17   53 1   
    42   17   54 1   
    43   17   55 1   
    44   18   56 1   
    45   19   20 ar  
    46   19   57 1   
    47   20   21 1   
    48   20   22 ar  
    49   21   24 1   
    50   21   58 1   
    51   22   23 1   
    52   23   24 2   
    53   23   59 1   
    54   24   25 1   
    55   25   26 1   
    56   25   32 2   
    57   26   27 2   
    58   26   30 1   
    59   27   28 1   
    60   27   62 1   
    61   28   29 2   
    62   28   60 1   
    63   29   30 1   
    64   29   61 1   
    65   30   31 2   
    66   31   32 1   
@<TRIPOS>SUBSTRUCTURE
     1 0F2         1 TEMP              0 ****  ****    0 ROOT
