@<TRIPOS>MOLECULE
0F2
   62    66     1     0     0
SMALL
bcc


@<TRIPOS>ATOM
      1 CAN         0.7400    0.6370   -0.0550 c3        1 0F2      0.137800
      2 CAO         2.2190    0.4680    0.3140 c3        1 0F2      0.126400
      3 OAP         2.3810   -0.2590    1.5270 os        1 0F2     -0.416600
      4 CAQ         1.6810    0.3430    2.6090 c3        1 0F2      0.126400
      5 CAR         0.1890    0.5040    2.2960 c3        1 0F2      0.137800
      6 NAM        -0.0420    1.1990    1.0370 n3        1 0F2     -0.732600
      7 CAL        -1.4520    1.3350    0.7160 c3        1 0F2      0.171800
      8 CAK        -2.1030    2.5580    1.3800 c3        1 0F2      0.128400
      9 OAJ        -1.9360    3.6310    0.4460 os        1 0F2     -0.315900
     10 CAD        -2.3890    4.8670    0.8540 ca        1 0F2      0.183100
     11 CAA        -3.0710    5.1140    2.0450 ca        1 0F2     -0.240000
     12 CAB        -3.5060    6.4150    2.3730 ca        1 0F2     -0.019300
     13 CAS        -4.2430    6.6140    3.6800 c3        1 0F2      0.200100
     14 CBB        -5.5650    5.8280    3.6810 c3        1 0F2     -0.102900
     15 CBD        -6.5480    6.3460    2.6650 c3        1 0F2     -0.096100
     16 CBC        -3.3460    6.1440    4.8410 c3        1 0F2     -0.102900
     17 CBE        -3.7860    6.6480    6.1900 c3        1 0F2     -0.096100
     18 OBF        -4.5050    8.0140    3.8130 oh        1 0F2     -0.597800
     19 CAC        -3.2630    7.4940    1.5300 ca        1 0F2     -0.150000
     20 CAF        -2.5750    7.2500    0.3320 ca        1 0F2     -0.027200
     21 NAG        -2.1360    8.1580   -0.6510 na        1 0F2     -0.180400
     22 CAE        -2.1350    5.9290   -0.0310 ca        1 0F2     -0.129800
     23 CAI        -1.4900    6.0380   -1.3200 cc        1 0F2     -0.075200
     24 CAH        -1.5410    7.3790   -1.6900 cd        1 0F2     -0.159900
     25 CAT        -1.0130    7.9870   -2.8820 cd        1 0F2      0.507100
     26 CAW        -0.4960    9.2980   -3.0290 cd        1 0F2     -0.879600
     27 S1         -0.0130   10.6690   -2.2980 sx        1 0F2      0.549300
     28 CAZ         0.4920   11.4290   -3.7420 ce        1 0F2     -0.275300
     29 CAY         0.4530   10.5870   -4.8220 cf        1 0F2      0.018200
     30 CAX        -0.1090    9.3230   -4.4590 cd        1 0F2      0.205100
     31 NAV        -0.3910    8.1000   -5.0180 nc        1 0F2     -0.248000
     32 NAU        -0.9050    7.3290   -4.1200 nc        1 0F2     -0.372000
     33 H1          0.6700    1.3450   -0.9280 h1        1 0F2      0.039950
     34 H2          0.3370   -0.3650   -0.3820 h1        1 0F2      0.039950
     35 H3          2.7390   -0.1570   -0.4580 h1        1 0F2      0.054700
     36 H4          2.7210    1.4670    0.4060 h1        1 0F2      0.054700
     37 H5          2.1450    1.3350    2.8510 h1        1 0F2      0.054700
     38 H6          1.8220   -0.3690    3.4640 h1        1 0F2      0.054700
     39 H7         -0.2870    1.1090    3.1160 h1        1 0F2      0.039950
     40 H8         -0.2870   -0.5210    2.3000 h1        1 0F2      0.039950
     41 H10        -1.5700    1.4500   -0.4000 h1        1 0F2      0.051200
     42 H11        -2.0440    0.4280    1.0340 h1        1 0F2      0.051200
     43 H12        -3.1990    2.3680    1.5260 h1        1 0F2      0.043700
     44 H13        -1.6280    2.8260    2.3590 h1        1 0F2      0.043700
     45 H14        -3.2790    4.2930    2.7450 ha        1 0F2      0.134000
     46 H15        -6.0180    5.8900    4.7060 hc        1 0F2      0.048950
     47 H16        -5.3390    4.7490    3.4770 hc        1 0F2      0.048950
     48 H17        -6.7700    7.4260    2.8510 hc        1 0F2      0.038533
     49 H18        -6.1320    6.2500    1.6330 hc        1 0F2      0.038533
     50 H19        -7.5020    5.7690    2.7230 hc        1 0F2      0.038533
     51 H20        -3.3300    5.0240    4.8430 hc        1 0F2      0.048950
     52 H21        -2.3000    6.5000    4.6420 hc        1 0F2      0.048950
     53 H22        -3.7000    7.7610    6.2450 hc        1 0F2      0.038533
     54 H23        -3.1370    6.2100    6.9880 hc        1 0F2      0.038533
     55 H24        -4.8440    6.3640    6.4060 hc        1 0F2      0.038533
     56 H25        -5.1060    8.1090    4.5610 ho        1 0F2      0.404000
     57 H26        -3.5990    8.5050    1.7980 ha        1 0F2      0.157000
     58 H27        -2.6910    8.9460   -0.8810 hn        1 0F2      0.271700
     59 H28        -1.0450    5.2200   -1.8820 ha        1 0F2      0.179000
     60 H29         0.8490   12.4560   -3.7560 h4        1 0F2      0.181000
     61 H30         0.8030   10.8240   -5.8330 ha        1 0F2      0.172000
     62 H9         -1.1330   11.2960   -2.0790 hs        1 0F2      0.232000
@<TRIPOS>BOND
     1    1    2 1   
     2    1    6 1   
     3    1   33 1   
     4    1   34 1   
     5    2    3 1   
     6    2   35 1   
     7    2   36 1   
     8    3    4 1   
     9    4    5 1   
    10    4   37 1   
    11    4   38 1   
    12    5    6 1   
    13    5   39 1   
    14    5   40 1   
    15    6    7 1   
    16    7    8 1   
    17    7   41 1   
    18    7   42 1   
    19    8    9 1   
    20    8   43 1   
    21    8   44 1   
    22    9   10 1   
    23   10   11 ar  
    24   10   22 ar  
    25   11   12 ar  
    26   11   45 1   
    27   12   13 1   
    28   12   19 ar  
    29   13   14 1   
    30   13   16 1   
    31   13   18 1   
    32   14   15 1   
    33   14   46 1   
    34   14   47 1   
    35   15   48 1   
    36   15   49 1   
    37   15   50 1   
    38   16   17 1   
    39   16   51 1   
    40   16   52 1   
    41   17   53 1   
    42   17   54 1   
    43   17   55 1   
    44   18   56 1   
    45   19   20 ar  
    46   19   57 1   
    47   20   21 1   
    48   20   22 ar  
    49   21   24 1   
    50   21   58 1   
    51   22   23 1   
    52   23   24 2   
    53   23   59 1   
    54   24   25 1   
    55   25   26 1   
    56   25   32 2   
    57   26   27 2   
    58   26   30 1   
    59   27   28 1   
    60   27   62 1   
    61   28   29 2   
    62   28   60 1   
    63   29   30 1   
    64   29   61 1   
    65   30   31 2   
    66   31   32 1   
@<TRIPOS>SUBSTRUCTURE
     1 0F2         1 TEMP              0 ****  ****    0 ROOT
