@<TRIPOS>MOLECULE
0F2
   62    66     1     0     0
SMALL
bcc


@<TRIPOS>ATOM
      1 CAN         3.8600    4.1940   -0.0660 c3        1 0F2      0.137800
      2 CAO         4.0610    5.0210    1.2090 c3        1 0F2      0.126400
      3 OAP         5.3320    4.7800    1.8010 os        1 0F2     -0.416600
      4 CAQ         5.5370    3.4010    2.0850 c3        1 0F2      0.126400
      5 CAR         5.3760    2.5360    0.8300 c3        1 0F2      0.137800
      6 NAM         4.1110    2.7760    0.1490 n3        1 0F2     -0.733600
      7 CAL         3.9570    1.9810   -1.0570 c3        1 0F2      0.171800
      8 CAK         3.4050    0.5740   -0.7810 c3        1 0F2      0.127400
      9 OAJ         1.9800    0.7040   -0.8570 os        1 0F2     -0.314900
     10 CAD         1.2520   -0.4340   -0.5920 ca        1 0F2      0.187100
     11 CAA         1.7990   -1.6900   -0.3230 ca        1 0F2     -0.235000
     12 CAB         0.9720   -2.8010   -0.0650 ca        1 0F2     -0.050300
     13 CAS         1.6190   -4.1410    0.2250 c3        1 0F2      0.196100
     14 CBB         2.3170   -4.6890   -1.0290 c3        1 0F2     -0.082400
     15 CBD         1.3630   -4.9360   -2.1670 c3        1 0F2     -0.092600
     16 CBC         2.6270   -3.9760    1.3780 c3        1 0F2     -0.082400
     17 CBE         3.1430   -5.2880    1.9060 c3        1 0F2     -0.092600
     18 OBF         0.6370   -5.1140    0.5820 oh        1 0F2     -0.592800
     19 CAC        -0.4150   -2.6860   -0.0810 ca        1 0F2     -0.172000
     20 CAF        -0.9710   -1.4270   -0.3480 ca        1 0F2     -0.023200
     21 NAG        -2.3210   -1.0220   -0.3440 na        1 0F2     -0.181400
     22 CAE        -0.1450   -0.2790   -0.6130 ca        1 0F2     -0.129800
     23 CAI        -1.0350    0.8320   -0.8630 cc        1 0F2     -0.074200
     24 CAH        -2.3350    0.3510   -0.7390 cd        1 0F2     -0.158900
     25 CAT        -3.5630    1.0860   -0.8810 cd        1 0F2      0.505100
     26 CAW        -4.8020    0.8380   -0.2410 cd        1 0F2     -0.874600
     27 S1         -5.6690   -0.1140    0.7570 sx        1 0F2      0.519300
     28 CAZ        -7.0770    0.8540    0.6870 ce        1 0F2     -0.268300
     29 CAY        -6.9630    1.8890   -0.2010 cf        1 0F2      0.017200
     30 CAX        -5.6500    1.9330   -0.7650 cd        1 0F2      0.206100
     31 NAV        -4.9050    2.6960   -1.6310 nc        1 0F2     -0.248000
     32 NAU        -3.7100    2.2160   -1.7050 nc        1 0F2     -0.372000
     33 H1          2.7910    4.3070   -0.4000 h1        1 0F2      0.039950
     34 H2          4.5270    4.6150   -0.8740 h1        1 0F2      0.039950
     35 H3          4.0720    6.1150    0.9600 h1        1 0F2      0.054950
     36 H4          3.2520    4.8020    1.9540 h1        1 0F2      0.054950
     37 H5          6.5920    3.3450    2.4600 h1        1 0F2      0.054950
     38 H6          4.8240    3.0720    2.8870 h1        1 0F2      0.054950
     39 H7          6.2580    2.7290    0.1500 h1        1 0F2      0.039950
     40 H8          5.4040    1.4530    1.1330 h1        1 0F2      0.039950
     41 H10         3.2380    2.4980   -1.7560 h1        1 0F2      0.051700
     42 H11         4.9380    1.8530   -1.6030 h1        1 0F2      0.051700
     43 H12         3.7520   -0.1300   -1.5830 h1        1 0F2      0.044700
     44 H13         3.7000    0.1820    0.2260 h1        1 0F2      0.044700
     45 H14         2.8890   -1.8280   -0.3200 ha        1 0F2      0.136000
     46 H15         3.1030   -3.9510   -1.3360 hc        1 0F2      0.046950
     47 H16         2.8250   -5.6500   -0.7530 hc        1 0F2      0.046950
     48 H17         0.5810   -5.6740   -1.8630 hc        1 0F2      0.039533
     49 H18         0.8530   -3.9900   -2.4680 hc        1 0F2      0.039533
     50 H19         1.9150   -5.3410   -3.0500 hc        1 0F2      0.039533
     51 H20         3.4850   -3.3510    1.0210 hc        1 0F2      0.046950
     52 H21         2.1230   -3.4130    2.2080 hc        1 0F2      0.046950
     53 H22         2.2990   -5.9870    2.1250 hc        1 0F2      0.039533
     54 H23         3.8170   -5.7800    1.1640 hc        1 0F2      0.039533
     55 H24         3.7220   -5.1200    2.8470 hc        1 0F2      0.039533
     56 H25         0.2750   -4.8440    1.4350 ho        1 0F2      0.400000
     57 H26        -1.0560   -3.5610    0.0930 ha        1 0F2      0.145000
     58 H27        -3.0200   -1.6370   -0.6840 hn        1 0F2      0.271700
     59 H28        -0.7330    1.8510   -1.0980 ha        1 0F2      0.181000
     60 H29        -7.9630    0.6140    1.2700 h4        1 0F2      0.182000
     61 H30        -7.7560    2.5990   -0.4630 ha        1 0F2      0.172000
     62 H9         -5.2180    0.2130    1.9370 hs        1 0F2      0.252000
@<TRIPOS>BOND
     1    1    2 1   
     2    1    6 1   
     3    1   33 1   
     4    1   34 1   
     5    2    3 1   
     6    2   35 1   
     7    2   36 1   
     8    3    4 1   
     9    4    5 1   
    10    4   37 1   
    11    4   38 1   
    12    5    6 1   
    13    5   39 1   
    14    5   40 1   
    15    6    7 1   
    16    7    8 1   
    17    7   41 1   
    18    7   42 1   
    19    8    9 1   
    20    8   43 1   
    21    8   44 1   
    22    9   10 1   
    23   10   11 ar  
    24   10   22 ar  
    25   11   12 ar  
    26   11   45 1   
    27   12   13 1   
    28   12   19 ar  
    29   13   14 1   
    30   13   16 1   
    31   13   18 1   
    32   14   15 1   
    33   14   46 1   
    34   14   47 1   
    35   15   48 1   
    36   15   49 1   
    37   15   50 1   
    38   16   17 1   
    39   16   51 1   
    40   16   52 1   
    41   17   53 1   
    42   17   54 1   
    43   17   55 1   
    44   18   56 1   
    45   19   20 ar  
    46   19   57 1   
    47   20   21 1   
    48   20   22 ar  
    49   21   24 1   
    50   21   58 1   
    51   22   23 1   
    52   23   24 2   
    53   23   59 1   
    54   24   25 1   
    55   25   26 1   
    56   25   32 2   
    57   26   27 2   
    58   26   30 1   
    59   27   28 1   
    60   27   62 1   
    61   28   29 2   
    62   28   60 1   
    63   29   30 1   
    64   29   61 1   
    65   30   31 2   
    66   31   32 1   
@<TRIPOS>SUBSTRUCTURE
     1 0F2         1 TEMP              0 ****  ****    0 ROOT
