@<TRIPOS>MOLECULE
0F2
   62    56     1     0     0
SMALL
bcc


@<TRIPOS>ATOM
      1 CAN         4.1130    1.7680   -3.3720 c3        1 0F2     -0.104500
      2 CAO         5.4270    1.4280   -4.0640 c3        1 0F2     -0.024000
      3 OAP         6.5350    2.0870   -3.4750 os        1 0F2     -0.271000
      4 CAQ         6.5970    1.8980   -2.0730 c3        1 0F2     -0.024000
      5 CAR         5.2840    2.2390   -1.3830 c3        1 0F2     -0.104500
      6 NAM         4.1770    1.5800   -1.9720 n3        1 0F2     -0.255000
      7 CAL         2.9160    2.0700   -1.3390 c3        1 0F2     -0.074000
      8 CAK         2.2140    0.9040   -0.6120 c3        1 0F2     -0.023000
      9 OAJ         0.8410    1.1250   -0.6010 os        1 0F2     -0.208000
     10 CAD         0.0780    0.0700    0.0570 c2        1 0F2      0.140000
     11 CAA         0.1590   -1.3500   -0.0530 c2        1 0F2     -0.232000
     12 CAB        -0.9350   -2.1370    0.2860 c1        1 0F2     -0.043000
     13 CAS        -1.0450   -3.6860    0.3020 c3        1 0F2      0.117000
     14 CBB        -0.8000   -4.2340   -1.1260 c3        1 0F2     -0.162000
     15 CBD        -2.1050   -4.8910   -1.6640 c3        1 0F2     -0.210500
     16 CBC         0.0520   -4.2760    1.2930 c3        1 0F2     -0.162000
     17 CBE        -0.3050   -5.7350    1.6680 c3        1 0F2     -0.210500
     18 OBF        -2.3280   -4.0610    0.7360 oh        1 0F2     -0.320000
     19 CAC        -2.1190   -1.5330    0.7350 c1        1 0F2     -0.171000
     20 CAF        -2.1990   -0.1100    0.8450 c1        1 0F2      0.022000
     21 NAG        -3.2190    0.7410    1.2950 n1        1 0F2     -0.205000
     22 CAE        -1.1070    0.6730    0.5070 c1        1 0F2     -0.118000
     23 CAI        -1.4440    2.0010    0.7450 c1        1 0F2     -0.088000
     24 CAH        -2.7540    2.0340    1.2320 c1        1 0F2     -0.020000
     25 CAT        -3.0210    3.4150    1.8260 c1        1 0F2      0.065000
     26 CAW        -4.1570    3.6340    2.5820 c1        1 0F2     -0.744000
     27 S1         -4.9920    2.7020    3.7930 sh        1 0F2      1.353000
     28 CAZ        -6.3070    3.8530    4.1330 c1        1 0F2     -0.698000
     29 CAY        -6.0780    5.0740    3.2200 c1        1 0F2      0.127000
     30 CAX        -4.8170    4.7870    2.4100 c2        1 0F2     -0.231000
     31 NAV        -4.0840    5.5380    1.3880 n2        1 0F2      0.015000
     32 NAU        -2.8840    4.6220    0.9900 n1        1 0F2     -0.108000
     33 H1          3.3540    1.1510   -3.7620 h1        1 0F2      0.082000
     34 H2          3.8870    2.7080   -3.5570 h1        1 0F2      0.082000
     35 H3          5.5750    0.4380   -4.0140 h1        1 0F2      0.093750
     36 H4          5.3630    1.7030   -5.0500 h1        1 0F2      0.093750
     37 H5          7.3030    2.4620   -1.7090 h1        1 0F2      0.093750
     38 H6          6.8100    0.9820   -1.8940 h1        1 0F2      0.093750
     39 H7          5.1450    3.1740   -1.4340 h1        1 0F2      0.082000
     40 H8          5.3420    1.9750   -0.4250 h1        1 0F2      0.082000
     41 H10         3.1360    2.8040   -0.6680 h1        1 0F2      0.092500
     42 H11         2.3550    2.4080   -1.9910 h1        1 0F2      0.092500
     43 H12         2.4070    0.0600   -1.0820 h1        1 0F2      0.086500
     44 H13         2.5480    0.8460    0.3210 h1        1 0F2      0.086500
     45 H14         1.0260   -1.7810   -0.2980 ha        1 0F2      0.139000
     46 H15        -0.5580   -3.5530   -1.6740 hc        1 0F2      0.087000
     47 H16        -0.0860   -4.9000   -1.1010 hc        1 0F2      0.087000
     48 H17        -2.0050   -5.0830   -2.6030 hc        1 0F2      0.078667
     49 H18        -2.8400   -4.2900   -1.5390 hc        1 0F2      0.078667
     50 H19        -2.2660   -5.6770   -1.2040 hc        1 0F2      0.078667
     51 H20         0.0830   -3.7240    2.1140 hc        1 0F2      0.087000
     52 H21         0.9640   -4.2580    0.8370 hc        1 0F2      0.087000
     53 H22         0.5040   -6.2200    1.8720 hc        1 0F2      0.078667
     54 H23        -0.9120   -5.7370    2.4800 hc        1 0F2      0.078667
     55 H24        -0.7750   -6.1750    0.8960 hc        1 0F2      0.078667
     56 H25        -2.3150   -4.2000    1.6140 ho        1 0F2      0.199000
     57 H26        -2.8600   -2.0640    0.9630 ha        1 0F2      0.146000
     58 H27        -4.0600    0.4770    1.5840 DU        1 0F2      0.201500
     59 H28        -0.8560    2.7900    0.5960 DU        1 0F2      0.201500
     60 H29        -7.2240    3.5240    4.2980 ha        1 0F2      0.182000
     61 H30        -6.2450    5.9580    3.5520 ha        1 0F2      0.173000
     62 H9         -4.4950    1.9720    4.5670 hs        1 0F2     -0.151000
@<TRIPOS>BOND
     1    1    2 1   
     2    1    6 1   
     3    1   33 1   
     4    1   34 1   
     5    2    3 1   
     6    2   35 1   
     7    2   36 1   
     8    3    4 1   
     9    4    5 1   
    10    4   37 1   
    11    4   38 1   
    12    5    6 1   
    13    5   39 1   
    14    5   40 1   
    15    6    7 1   
    16    7    8 1   
    17    7   41 1   
    18    7   42 1   
    19    8    9 1   
    20    8   43 1   
    21    8   44 1   
    22    9   10 1   
    23   10   11 1   
    24   10   22 1   
    25   11   12 1   
    26   11   45 1   
    27   12   13 1   
    28   13   14 1   
    29   13   16 1   
    30   13   18 1   
    31   14   15 1   
    32   14   46 1   
    33   14   47 1   
    34   15   48 1   
    35   15   49 1   
    36   15   50 1   
    37   16   17 1   
    38   16   51 1   
    39   16   52 1   
    40   17   53 1   
    41   17   54 1   
    42   17   55 1   
    43   18   56 1   
    44   19   20 1   
    45   19   57 1   
    46   21   24 1   
    47   23   24 1   
    48   25   26 1   
    49   26   30 1   
    50   27   28 1   
    51   27   62 1   
    52   28   60 1   
    53   29   30 1   
    54   29   61 1   
    55   30   31 1   
    56   31   32 1   
@<TRIPOS>SUBSTRUCTURE
     1 0F2         1 TEMP              0 ****  ****    0 ROOT
