@<TRIPOS>MOLECULE
0F2
   62    66     1     0     0
SMALL
bcc


@<TRIPOS>ATOM
      1 CAN         0.6810    0.5790   -0.0580 c3        1 0F2      0.138800
      2 CAO         2.1080    0.2790    0.4150 c3        1 0F2      0.126400
      3 OAP         2.1180   -0.5600    1.5650 os        1 0F2     -0.416600
      4 CAQ         1.3650   -0.0070    2.6370 c3        1 0F2      0.126400
      5 CAR        -0.0820    0.2820    2.2190 c3        1 0F2      0.138800
      6 NAM        -0.1600    1.0950    1.0140 n3        1 0F2     -0.734600
      7 CAL        -1.5250    1.3560    0.5930 c3        1 0F2      0.172800
      8 CAK        -2.1400    2.5800    1.2890 c3        1 0F2      0.127400
      9 OAJ        -1.8400    3.6920    0.4370 os        1 0F2     -0.316900
     10 CAD        -2.2200    4.9320    0.9010 ca        1 0F2      0.183100
     11 CAA        -2.9600    5.1580    2.0610 ca        1 0F2     -0.239000
     12 CAB        -3.3210    6.4660    2.4460 ca        1 0F2     -0.019300
     13 CAS        -4.1100    6.6440    3.7260 c3        1 0F2      0.200100
     14 CBB        -5.4800    5.9550    3.6160 c3        1 0F2     -0.103400
     15 CBD        -6.3710    6.5990    2.5860 c3        1 0F2     -0.096100
     16 CBC        -3.3080    6.0460    4.8970 c3        1 0F2     -0.103400
     17 CBE        -3.7830    6.5000    6.2530 c3        1 0F2     -0.096100
     18 OBF        -4.2820    8.0490    3.9290 oh        1 0F2     -0.597800
     19 CAC        -2.9580    7.5710    1.6830 ca        1 0F2     -0.149000
     20 CAF        -2.2150    7.3480    0.5140 ca        1 0F2     -0.027200
     21 NAG        -1.7900    8.2650   -0.4670 na        1 0F2     -0.180400
     22 CAE        -1.8250    6.0230    0.1080 ca        1 0F2     -0.129800
     23 CAI        -1.0620    6.1630   -1.1110 cc        1 0F2     -0.073200
     24 CAH        -1.0190    7.5220   -1.4130 cd        1 0F2     -0.160900
     25 CAT        -0.3910    8.1550   -2.5410 cd        1 0F2      0.508100
     26 CAW        -0.7720    9.3600   -3.1820 cd        1 0F2     -0.879600
     27 S1         -1.8890   10.5330   -3.3410 sx        1 0F2      0.547300
     28 CAZ        -1.0630   11.3460   -4.5950 ce        1 0F2     -0.276300
     29 CAY         0.0290   10.6510   -5.0450 cf        1 0F2      0.018200
     30 CAX         0.2390    9.4750   -4.2590 cd        1 0F2      0.205100
     31 NAV         1.0840    8.3930   -4.1930 nc        1 0F2     -0.247000
     32 NAU         0.7270    7.6310   -3.2160 nc        1 0F2     -0.372000
     33 H1          0.7310    1.3630   -0.8640 h1        1 0F2      0.039700
     34 H2          0.2490   -0.3620   -0.5080 h1        1 0F2      0.039700
     35 H3          2.6590    1.2300    0.6400 h1        1 0F2      0.055450
     36 H4          2.6570   -0.3110   -0.3660 h1        1 0F2      0.055450
     37 H5          1.3860   -0.7970    3.4320 h1        1 0F2      0.055450
     38 H6          1.8650    0.9270    3.0050 h1        1 0F2      0.055450
     39 H7         -0.6180   -0.7040    2.0920 h1        1 0F2      0.039700
     40 H8         -0.5900    0.8480    3.0480 h1        1 0F2      0.039700
     41 H10        -1.5440    1.5500   -0.5180 h1        1 0F2      0.050700
     42 H11        -2.2040    0.4770    0.8000 h1        1 0F2      0.050700
     43 H12        -3.2540    2.4580    1.3510 h1        1 0F2      0.044200
     44 H13        -1.7170    2.7550    2.3120 h1        1 0F2      0.044200
     45 H14        -3.2710    4.3150    2.6940 ha        1 0F2      0.134000
     46 H15        -5.9810    5.9940    4.6200 hc        1 0F2      0.049200
     47 H16        -5.3200    4.8760    3.3610 hc        1 0F2      0.049200
     48 H17        -6.5280    7.6790    2.8250 hc        1 0F2      0.038367
     49 H18        -7.3640    6.0890    2.5620 hc        1 0F2      0.038367
     50 H19        -5.9080    6.5310    1.5720 hc        1 0F2      0.038367
     51 H20        -3.3660    4.9290    4.8310 hc        1 0F2      0.049200
     52 H21        -2.2320    6.3390    4.7720 hc        1 0F2      0.049200
     53 H22        -4.8680    6.2790    6.3990 hc        1 0F2      0.038367
     54 H23        -3.2080    5.9710    7.0510 hc        1 0F2      0.038367
     55 H24        -3.6240    7.5990    6.3800 hc        1 0F2      0.038367
     56 H25        -4.9060    8.1450    4.6580 ho        1 0F2      0.404000
     57 H26        -3.2430    8.5870    1.9910 ha        1 0F2      0.157000
     58 H27        -1.4950    9.1720   -0.1970 hn        1 0F2      0.270700
     59 H28        -0.6130    5.3520   -1.6790 ha        1 0F2      0.180000
     60 H29        -1.4220   12.2880   -5.0030 h4        1 0F2      0.181000
     61 H30         0.6650   10.9320   -5.8910 ha        1 0F2      0.172000
     62 H9         -1.6340   11.3210   -2.3370 hs        1 0F2      0.231000
@<TRIPOS>BOND
     1    1    2 1   
     2    1    6 1   
     3    1   33 1   
     4    1   34 1   
     5    2    3 1   
     6    2   35 1   
     7    2   36 1   
     8    3    4 1   
     9    4    5 1   
    10    4   37 1   
    11    4   38 1   
    12    5    6 1   
    13    5   39 1   
    14    5   40 1   
    15    6    7 1   
    16    7    8 1   
    17    7   41 1   
    18    7   42 1   
    19    8    9 1   
    20    8   43 1   
    21    8   44 1   
    22    9   10 1   
    23   10   11 ar  
    24   10   22 ar  
    25   11   12 ar  
    26   11   45 1   
    27   12   13 1   
    28   12   19 ar  
    29   13   14 1   
    30   13   16 1   
    31   13   18 1   
    32   14   15 1   
    33   14   46 1   
    34   14   47 1   
    35   15   48 1   
    36   15   49 1   
    37   15   50 1   
    38   16   17 1   
    39   16   51 1   
    40   16   52 1   
    41   17   53 1   
    42   17   54 1   
    43   17   55 1   
    44   18   56 1   
    45   19   20 ar  
    46   19   57 1   
    47   20   21 1   
    48   20   22 ar  
    49   21   24 1   
    50   21   58 1   
    51   22   23 1   
    52   23   24 2   
    53   23   59 1   
    54   24   25 1   
    55   25   26 1   
    56   25   32 2   
    57   26   27 2   
    58   26   30 1   
    59   27   28 1   
    60   27   62 1   
    61   28   29 2   
    62   28   60 1   
    63   29   30 1   
    64   29   61 1   
    65   30   31 2   
    66   31   32 1   
@<TRIPOS>SUBSTRUCTURE
     1 0F2         1 TEMP              0 ****  ****    0 ROOT
