@<TRIPOS>MOLECULE
0F3
   24    24     1     0     0
SMALL
bcc


@<TRIPOS>ATOM
      1 S1          3.4700   -0.3320    0.0570 sy        1 0F3      1.533200
      2 O1          4.2020    0.5140   -0.8050 o         1 0F3     -0.658800
      3 O2          3.6770   -1.7240   -0.0510 o         1 0F3     -0.658800
      4 N1          3.7350    0.1170    1.5730 n3        1 0F3     -1.027700
      5 C1          0.0480    1.4840   -0.8580 ca        1 0F3     -0.218000
      6 C2          1.3930    1.2160   -0.6580 ca        1 0F3      0.019500
      7 C3          1.8300   -0.0180   -0.1600 ca        1 0F3     -0.423500
      8 C4          0.8650   -0.9950    0.1080 ca        1 0F3      0.019500
      9 C5         -0.4890   -0.7580   -0.0810 ca        1 0F3     -0.218000
     10 C6         -0.9280    0.5000   -0.5600 ca        1 0F3      0.243600
     11 N2         -2.2810    0.7800   -0.7430 nh        1 0F3     -0.769500
     12 S2         -3.6000   -0.0540   -0.1880 s6        1 0F3      1.589800
     13 O3         -4.7190    0.5950   -0.7650 o         1 0F3     -0.640300
     14 O4         -3.4430   -1.4360   -0.4280 o         1 0F3     -0.640300
     15 N3         -3.6080    0.1850    1.3980 n3        1 0F3     -1.027700
     16 H1          4.0130    1.0280    1.8340 hn        1 0F3      0.445800
     17 H2          3.6750   -0.5000    2.3440 hn        1 0F3      0.445800
     18 H4          2.1430    1.9880   -0.9140 ha        1 0F3      0.156500
     19 H5          1.1930   -1.9920    0.4570 ha        1 0F3      0.156500
     20 H6         -1.2080   -1.5740    0.1070 ha        1 0F3      0.154000
     21 H7         -2.4420    1.6180   -1.2620 hn        1 0F3      0.457800
     22 H8         -4.0420    0.9600    1.8350 hn        1 0F3      0.453300
     23 H9         -3.2080   -0.4430    2.0490 hn        1 0F3      0.453300
     24 H3         -0.2540    2.4640   -1.2580 ha        1 0F3      0.154000
@<TRIPOS>BOND
     1    1    2 2   
     2    1    3 2   
     3    1    4 1   
     4    1    7 1   
     5    4   16 1   
     6    4   17 1   
     7    5    6 ar  
     8    5   10 ar  
     9    5   24 1   
    10    6    7 ar  
    11    6   18 1   
    12    7    8 ar  
    13    8    9 ar  
    14    8   19 1   
    15    9   10 ar  
    16    9   20 1   
    17   10   11 1   
    18   11   12 1   
    19   11   21 1   
    20   12   13 2   
    21   12   14 2   
    22   12   15 1   
    23   15   22 1   
    24   15   23 1   
@<TRIPOS>SUBSTRUCTURE
     1 0F3         1 TEMP              0 ****  ****    0 ROOT
