@<TRIPOS>MOLECULE
0F3
   26    26     1     0     0
SMALL
bcc


@<TRIPOS>ATOM
      1 S1         -0.1870   -0.2780    0.5010 sy        1 0F3      1.476200
      2 O1          1.0960   -0.4060    0.9780 o         1 0F3     -0.541300
      3 O2         -1.2900   -0.0390    1.2880 o         1 0F3     -0.541300
      4 N1         -0.0440    1.3920   -0.3910 n4        1 0F3     -0.797500
      5 C1          0.2800   -2.8500   -2.4350 ca        1 0F3     -0.184500
      6 C2          0.5380   -1.8930   -1.4660 ca        1 0F3      0.049500
      7 C3         -0.5020   -1.2390   -0.7730 ca        1 0F3     -0.525500
      8 C4         -1.8240   -1.5760   -1.1250 ca        1 0F3      0.049500
      9 C5         -2.1090   -2.5320   -2.0900 ca        1 0F3     -0.184500
     10 C6         -1.0560   -3.2080   -2.7470 ca        1 0F3      0.244600
     11 N2         -1.2810   -4.2460   -3.6790 nh        1 0F3     -0.796500
     12 S2         -2.6260   -5.0210   -4.0640 s6        1 0F3      1.521800
     13 O3         -2.3820   -6.3430   -4.3660 o         1 0F3     -0.521300
     14 O4         -3.7570   -4.5510   -3.4320 o         1 0F3     -0.521300
     15 N3         -2.9390   -4.3600   -5.8310 n4        1 0F3     -0.805500
     16 H1         -0.7350    2.0500   -0.0230 hn        1 0F3      0.466133
     17 H2         -0.1800    1.3360   -1.3950 hn        1 0F3      0.466133
     18 H5         -2.6710   -1.0910   -0.5950 ha        1 0F3      0.191500
     19 H6         -3.1740   -2.7590   -2.2890 ha        1 0F3      0.190500
     20 H7         -0.4030   -4.6150   -4.0170 hn        1 0F3      0.500800
     21 H8         -2.2840   -3.6600   -6.1680 hn        1 0F3      0.471800
     22 H9         -3.8750   -3.9500   -5.8860 hn        1 0F3      0.471800
     23 H3          1.1340   -3.3430   -2.9340 ha        1 0F3      0.190500
     24 H13         0.8780    1.8020   -0.2270 hn        1 0F3      0.466133
     25 H33        -2.9160   -5.1390   -6.4970 hn        1 0F3      0.471800
     26 H4          1.5940   -1.6660   -1.2100 ha        1 0F3      0.191500
@<TRIPOS>BOND
     1    1    2 2   
     2    1    3 2   
     3    1    4 1   
     4    1    7 1   
     5    4   16 1   
     6    4   17 1   
     7    4   24 1   
     8    5    6 ar  
     9    5   10 ar  
    10    5   23 1   
    11    6    7 ar  
    12    6   26 1   
    13    7    8 ar  
    14    8    9 ar  
    15    8   18 1   
    16    9   10 ar  
    17    9   19 1   
    18   10   11 1   
    19   11   12 1   
    20   11   20 1   
    21   12   13 2   
    22   12   14 2   
    23   12   15 1   
    24   15   21 1   
    25   15   22 1   
    26   15   25 1   
@<TRIPOS>SUBSTRUCTURE
     1 0F3         1 TEMP              0 ****  ****    0 ROOT
