@<TRIPOS>MOLECULE
0F3
   24    17     1     0     0
SMALL
bcc


@<TRIPOS>ATOM
      1 S1          1.3070   -2.9560    1.6210 ss        1 0F3      2.872000
      2 O1          0.2480   -3.8500    1.9970 o         1 0F3     -0.938000
      3 O2          2.0020   -3.7450    0.6400 o         1 0F3     -0.938000
      4 N1          2.2750   -2.6080    2.9000 n2        1 0F3     -0.954000
      5 C1         -1.0660    0.1920    0.7580 c1        1 0F3     -0.096500
      6 C2         -0.5630   -0.9720    1.3190 c1        1 0F3     -0.096500
      7 C3          0.6670   -1.4620    0.9100 c1        1 0F3     -0.353000
      8 C4          1.3940   -0.7900   -0.0600 c1        1 0F3     -0.102000
      9 C5          0.8900    0.3740   -0.6210 c1        1 0F3     -0.102000
     10 C6         -0.3400    0.8640   -0.2120 c1        1 0F3     -0.353000
     11 N2         -0.8400    2.0730   -0.7620 n2        1 0F3     -0.819000
     12 S2         -1.3550    2.1140   -2.3200 s4        1 0F3      2.036800
     13 O3         -2.1280    0.9470   -2.6450 o         1 0F3     -0.527900
     14 O4         -0.2560    1.9850   -3.2360 o         1 0F3     -0.527900
     15 N3         -2.2060    3.4890   -2.6010 n2        1 0F3     -0.954000
     16 H1          1.9060   -2.4280    3.7170 hn        1 0F3      0.244750
     17 H2          3.1840   -2.5980    2.7970 hn        1 0F3      0.244750
     18 H3         -1.9330    0.5370    1.0460 ha        1 0F3      0.149000
     19 H4         -1.0740   -1.4460    2.0020 ha        1 0F3      0.149000
     20 H5          2.2600   -1.1350   -0.3480 ha        1 0F3      0.161500
     21 H6          1.4020    0.8470   -1.3040 ha        1 0F3      0.161500
     22 H7         -0.8880    2.8230   -0.2460 hn        1 0F3      0.253000
     23 H8         -1.7760    4.2950   -2.6280 hn        1 0F3      0.244750
     24 H9         -3.1110    3.4500   -2.7230 hn        1 0F3      0.244750
@<TRIPOS>BOND
     1    1    2 1   
     2    1    3 1   
     3    4   16 1   
     4    4   17 1   
     5    5    6 1   
     6    5   18 1   
     7    6   19 1   
     8    7    8 1   
     9    8   20 1   
    10    9   10 1   
    11    9   21 1   
    12   11   12 1   
    13   11   22 1   
    14   12   13 1   
    15   12   14 1   
    16   15   23 1   
    17   15   24 1   
@<TRIPOS>SUBSTRUCTURE
     1 0F3         1 TEMP              0 ****  ****    0 ROOT
