@<TRIPOS>MOLECULE
0F3
   26    26     1     0     0
SMALL
bcc


@<TRIPOS>ATOM
      1 S1         -0.1990   -0.2190    0.4630 sy        1 0F3      1.476200
      2 O1          1.0910   -0.3170    0.9310 o         1 0F3     -0.541300
      3 O2         -1.2980    0.0120    1.2560 o         1 0F3     -0.541300
      4 N1         -0.0940    1.4400   -0.4540 nz        1 0F3     -0.797500
      5 C1          0.2900   -2.8240   -2.4390 ca        1 0F3     -0.184500
      6 C2          0.5390   -1.8490   -1.4870 ca        1 0F3      0.049500
      7 C3         -0.5060   -1.2040   -0.7940 ca        1 0F3     -0.525500
      8 C4         -1.8250   -1.5690   -1.1290 ca        1 0F3      0.049500
      9 C5         -2.1010   -2.5450   -2.0780 ca        1 0F3     -0.184500
     10 C6         -1.0410   -3.2110   -2.7340 ca        1 0F3      0.244600
     11 N2         -1.2560   -4.2670   -3.6490 nu        1 0F3     -0.796500
     12 S2         -2.5890   -5.0720   -4.0100 s6        1 0F3      1.521800
     13 O3         -2.3240   -6.3930   -4.2950 o         1 0F3     -0.521300
     14 O4         -3.7230   -4.6140   -3.3740 o         1 0F3     -0.521300
     15 N3         -2.9310   -4.4430   -5.7830 nz        1 0F3     -0.805500
     16 H1         -0.2360    1.3670   -1.4570 hn        1 0F3      0.466133
     17 H2         -0.7930    2.0910   -0.0900 hn        1 0F3      0.466133
     18 H5         -2.6760   -1.0930   -0.5990 ha        1 0F3      0.191500
     19 H6         -3.1630   -2.7940   -2.2640 ha        1 0F3      0.190500
     20 H7         -0.3740   -4.6240   -3.9900 hn        1 0F3      0.500800
     21 H8         -2.2920   -3.7360   -6.1370 hn        1 0F3      0.471800
     22 H9         -3.8750   -4.0510   -5.8360 hn        1 0F3      0.471800
     23 H3          1.1490   -3.3090   -2.9390 ha        1 0F3      0.190500
     24 H13         0.8230    1.8700   -0.3050 hn        1 0F3      0.466133
     25 H33        -2.8990   -5.2310   -6.4380 hn        1 0F3      0.471800
     26 H4          1.5930   -1.5990   -1.2440 ha        1 0F3      0.191500
@<TRIPOS>BOND
     1    1    2 2   
     2    1    3 2   
     3    1    4 1   
     4    1    7 1   
     5    4   16 1   
     6    4   17 1   
     7    4   24 1   
     8    5    6 ar  
     9    5   10 ar  
    10    5   23 1   
    11    6    7 ar  
    12    6   26 1   
    13    7    8 ar  
    14    8    9 ar  
    15    8   18 1   
    16    9   10 ar  
    17    9   19 1   
    18   10   11 1   
    19   11   12 1   
    20   11   20 1   
    21   12   13 2   
    22   12   14 2   
    23   12   15 1   
    24   15   21 1   
    25   15   22 1   
    26   15   25 1   
@<TRIPOS>SUBSTRUCTURE
     1 0F3         1 TEMP              0 ****  ****    0 ROOT
