@<TRIPOS>MOLECULE
0F3
   27    27     1     0     0
SMALL
bcc


@<TRIPOS>ATOM
      1 S1          0.1890   -0.2120    0.4460 sy        1 0F3      1.437200
      2 O1          1.4640    0.2000    0.1550 o         1 0F3     -0.504800
      3 O2         -0.3030   -0.6250    1.6570 o         1 0F3     -0.504800
      4 N1         -0.7830    1.3490    0.1600 n4        1 0F3     -0.813500
      5 C1         -0.0270   -2.2840   -2.9500 ca        1 0F3     -0.101000
      6 C2          0.2860   -1.2980   -2.0110 ca        1 0F3      0.029000
      7 C3         -0.3950   -1.2060   -0.7880 ca        1 0F3     -0.387500
      8 C4         -1.4440   -2.1060   -0.5410 ca        1 0F3      0.029000
      9 C5         -1.7810   -3.1040   -1.4590 ca        1 0F3     -0.101000
     10 C6         -1.0610   -3.1970   -2.6650 ca        1 0F3     -0.026400
     11 N2         -1.3190   -4.3230   -3.5870 n4        1 0F3     -0.627300
     12 S2         -2.5890   -3.8460   -4.8190 s6        1 0F3      1.406800
     13 O3         -3.7590   -3.7810   -4.1190 o         1 0F3     -0.419800
     14 O4         -1.9710   -2.9460   -5.6390 o         1 0F3     -0.419800
     15 N3         -2.7330   -5.3550   -5.8180 n4        1 0F3     -0.855500
     16 H1         -1.3300    1.5910    0.9970 hn        1 0F3      0.483800
     17 H2         -0.1490    2.1430   -0.0070 hn        1 0F3      0.483800
     18 H5         -1.9970   -2.0720    0.4250 ha        1 0F3      0.220000
     19 H6         -2.5950   -3.8080   -1.1970 ha        1 0F3      0.201000
     20 H7         -0.4060   -4.5690   -4.0050 hn        1 0F3      0.503800
     21 H8         -3.7080   -5.7200   -5.8130 hn        1 0F3      0.519467
     22 H9         -2.1470   -6.1630   -5.5720 hn        1 0F3      0.519467
     23 H3          0.5670   -2.3320   -3.8830 ha        1 0F3      0.201000
     24 H13        -1.4350    1.3250   -0.6210 hn        1 0F3      0.483800
     25 H22        -1.5940   -5.1240   -2.9950 hn        1 0F3      0.503800
     26 H33        -2.5240   -5.1670   -6.8200 hn        1 0F3      0.519467
     27 H4          1.1330   -0.6110   -2.2360 ha        1 0F3      0.220000
@<TRIPOS>BOND
     1    1    2 2   
     2    1    3 2   
     3    1    4 1   
     4    1    7 1   
     5    4   16 1   
     6    4   17 1   
     7    4   24 1   
     8    5    6 ar  
     9    5   10 ar  
    10    5   23 1   
    11    6    7 ar  
    12    6   27 1   
    13    7    8 ar  
    14    8    9 ar  
    15    8   18 1   
    16    9   10 ar  
    17    9   19 1   
    18   10   11 1   
    19   11   12 1   
    20   11   20 1   
    21   11   25 1   
    22   12   13 2   
    23   12   14 2   
    24   12   15 1   
    25   15   21 1   
    26   15   22 1   
    27   15   26 1   
@<TRIPOS>SUBSTRUCTURE
     1 0F3         1 TEMP              0 ****  ****    0 ROOT
