@<TRIPOS>MOLECULE
0F4
   57    61     1     0     0
SMALL
bcc


@<TRIPOS>ATOM
      1 F1          0.4980   -0.7850   -0.4190 f         1 0F4     -0.236633
      2 C2          1.7820   -0.5190   -0.0050 c3        1 0F4      0.687200
      3 F3          1.6800   -0.4420    1.3630 f         1 0F4     -0.236633
      4 F4          2.4550   -1.6960   -0.2250 f         1 0F4     -0.236633
      5 C5          2.4090    0.7040   -0.6650 ca        1 0F4     -0.143300
      6 C6          3.1500    0.5540   -1.8370 ca        1 0F4     -0.103000
      7 C7          3.7030    1.6850   -2.4360 ca        1 0F4     -0.113000
      8 C8          3.5290    2.9490   -1.8810 ca        1 0F4     -0.108000
      9 C9          2.7780    3.1050   -0.6950 ca        1 0F4      0.063600
     10 N10         2.6280    4.3480   -0.0510 n         1 0F4     -0.466100
     11 C11         2.5350    5.5720   -0.7560 c         1 0F4      0.773100
     12 O12         2.7820    5.6400   -1.9790 o         1 0F4     -0.609100
     13 N13         2.1470    6.7020   -0.0050 n         1 0F4     -0.462100
     14 C14         2.2400    8.0230   -0.4920 ca        1 0F4      0.087600
     15 C15         2.4850    9.0660    0.4330 ca        1 0F4     -0.203000
     16 C16         2.5150   10.3830   -0.0060 ca        1 0F4     -0.084000
     17 C17         2.3210   10.7060   -1.3440 ca        1 0F4     -0.177000
     18 C18         2.0720    9.6810   -2.2820 ca        1 0F4      0.169600
     19 N19         1.9630    9.9600   -3.6550 nh        1 0F4     -0.635000
     20 C20         1.1430   10.9690   -4.1810 ca        1 0F4      0.195600
     21 C21         1.2100   11.2240   -5.5720 ca        1 0F4     -0.214000
     22 C22         0.4560   12.2390   -6.1610 ca        1 0F4     -0.047000
     23 C23        -0.3790   13.0140   -5.3780 ca        1 0F4     -0.136800
     24 C24        -0.4630   12.7510   -3.9660 ca        1 0F4      0.087600
     25 N25        -1.3720   13.6470   -3.3830 n         1 0F4     -0.476100
     26 C26        -1.9030   14.5030   -4.3730 c         1 0F4      0.724700
     27 O27        -2.7350   15.3810   -4.0930 o         1 0F4     -0.648500
     28 C28        -1.2810   14.1310   -5.6890 cc        1 0F4     -0.158400
     29 C29        -1.4500   14.6470   -6.9200 cf        1 0F4      0.044800
     30 C30        -2.2690   15.7130   -7.4030 cd        1 0F4     -0.153100
     31 C31        -2.3250   16.1340   -8.7610 cc        1 0F4     -0.143000
     32 C32        -3.2470   17.2120   -8.8360 cc        1 0F4     -0.215000
     33 C33        -3.7350   17.4290   -7.5280 cd        1 0F4     -0.130300
     34 N34        -3.1430   16.5250   -6.6730 na        1 0F4     -0.135100
     35 C36         0.2760   11.7400   -3.3650 ca        1 0F4     -0.220000
     36 C37         2.0250    8.3380   -1.8440 ca        1 0F4     -0.190000
     37 C38         2.2110    1.9580   -0.0920 ca        1 0F4     -0.137000
     38 H6          3.2970   -0.4450   -2.2760 ha        1 0F4      0.154000
     39 H7          4.2880    1.5790   -3.3630 ha        1 0F4      0.147000
     40 H8          3.9730    3.8280   -2.3790 ha        1 0F4      0.176000
     41 HN10        2.2060    4.2980    0.8510 hn        1 0F4      0.312500
     42 HN13        2.1740    6.6300    0.9900 hn        1 0F4      0.311500
     43 H15         2.6520    8.8480    1.4980 ha        1 0F4      0.132000
     44 H16         2.7100   11.1890    0.7190 ha        1 0F4      0.136000
     45 H17         2.3780   11.7560   -1.6700 ha        1 0F4      0.150000
     46 HN19        2.0920    9.1720   -4.2560 hn        1 0F4      0.431800
     47 H21         1.8720   10.6200   -6.2110 ha        1 0F4      0.138000
     48 H22         0.5340   12.4150   -7.2440 ha        1 0F4      0.136000
     49 HN25       -1.6200   13.6600   -2.4290 hn        1 0F4      0.342500
     50 H29        -0.8570   14.1780   -7.7360 ha        1 0F4      0.140000
     51 H31        -1.7600   15.7010   -9.5810 ha        1 0F4      0.151000
     52 H32        -3.5290   17.7680   -9.7240 ha        1 0F4      0.155000
     53 H33        -4.4580   18.1640   -7.1710 h4        1 0F4      0.170000
     54 H36         0.1810   11.5370   -2.2890 ha        1 0F4      0.151000
     55 H37         1.8350    7.5310   -2.5710 ha        1 0F4      0.169000
     56 H38         1.6200    2.0350    0.8350 ha        1 0F4      0.148000
     57 HN34       -3.3050   16.4550   -5.6950 hn        1 0F4      0.332700
@<TRIPOS>BOND
     1    1    2 1   
     2    2    3 1   
     3    2    4 1   
     4    2    5 1   
     5    5    6 ar  
     6    5   37 ar  
     7    6    7 ar  
     8    6   38 1   
     9    7    8 ar  
    10    7   39 1   
    11    8    9 ar  
    12    8   40 1   
    13    9   10 1   
    14    9   37 ar  
    15   10   11 1   
    16   10   41 1   
    17   11   12 2   
    18   11   13 1   
    19   13   14 1   
    20   13   42 1   
    21   14   15 ar  
    22   14   36 ar  
    23   15   16 ar  
    24   15   43 1   
    25   16   17 ar  
    26   16   44 1   
    27   17   18 ar  
    28   17   45 1   
    29   18   19 1   
    30   18   36 ar  
    31   19   20 1   
    32   19   46 1   
    33   20   21 ar  
    34   20   35 ar  
    35   21   22 ar  
    36   21   47 1   
    37   22   23 ar  
    38   22   48 1   
    39   23   24 ar  
    40   23   28 1   
    41   24   25 1   
    42   24   35 ar  
    43   25   26 1   
    44   25   49 1   
    45   26   27 2   
    46   26   28 1   
    47   28   29 2   
    48   29   30 1   
    49   29   50 1   
    50   30   31 2   
    51   30   34 1   
    52   31   32 1   
    53   31   51 1   
    54   32   33 2   
    55   32   52 1   
    56   33   34 1   
    57   33   53 1   
    58   34   57 1   
    59   35   54 1   
    60   36   55 1   
    61   37   56 1   
@<TRIPOS>SUBSTRUCTURE
     1 0F4         1 TEMP              0 ****  ****    0 ROOT
