@<TRIPOS>MOLECULE
0F4
   57    61     1     0     0
SMALL
bcc


@<TRIPOS>ATOM
      1 F1          9.0490    2.9370   -0.8080 f         1 0F4     -0.236633
      2 C2          9.3040    1.6970   -0.2730 c3        1 0F4      0.687200
      3 F3          9.7490    0.9590   -1.3430 f         1 0F4     -0.236633
      4 F4         10.4280    1.8880    0.4940 f         1 0F4     -0.236633
      5 C5          8.1230    1.0850    0.4730 ca        1 0F4     -0.143300
      6 C6          7.9810    1.3050    1.8430 ca        1 0F4     -0.103000
      7 C7          6.8870    0.7520    2.5060 ca        1 0F4     -0.113000
      8 C8          5.9470   -0.0150    1.8240 ca        1 0F4     -0.108000
      9 C9          6.0860   -0.2390    0.4360 ca        1 0F4      0.063600
     10 N10         5.2050   -1.0620   -0.2910 n         1 0F4     -0.466100
     11 C11         3.8230   -1.1530   -0.0010 c         1 0F4      0.773100
     12 O12         3.3420   -0.6630    1.0440 o         1 0F4     -0.609100
     13 N13         3.0240   -1.8210   -0.9530 n         1 0F4     -0.462100
     14 C14         1.6890   -2.2100   -0.7060 ca        1 0F4      0.087600
     15 C15         1.1980   -3.3730   -1.3440 ca        1 0F4     -0.203000
     16 C16        -0.1290   -3.7440   -1.1730 ca        1 0F4     -0.084000
     17 C17        -0.9930   -3.0010   -0.3770 ca        1 0F4     -0.178000
     18 C18        -0.5240   -1.8350    0.2660 ca        1 0F4      0.169600
     19 N19        -1.3400   -1.1110    1.1510 nh        1 0F4     -0.635000
     20 C20        -2.6490   -0.7090    0.8490 ca        1 0F4      0.195600
     21 C21        -3.4070   -0.0880    1.8710 ca        1 0F4     -0.214000
     22 C22        -4.7300    0.3010    1.6590 ca        1 0F4     -0.047000
     23 C23        -5.3180    0.0840    0.4290 ca        1 0F4     -0.136800
     24 C24        -4.5500   -0.5330   -0.6190 ca        1 0F4      0.087600
     25 N25        -5.3440   -0.6430   -1.7720 n         1 0F4     -0.476100
     26 C26        -6.6270   -0.1090   -1.5210 c         1 0F4      0.724700
     27 O27        -7.5050   -0.0920   -2.3990 o         1 0F4     -0.648500
     28 C28        -6.6590    0.3720   -0.0990 cc        1 0F4     -0.158400
     29 C29        -7.6450    0.9470    0.6140 cf        1 0F4      0.044800
     30 C30        -8.9870    1.2980    0.2760 cd        1 0F4     -0.153100
     31 C31        -9.9100    1.9110    1.1690 cc        1 0F4     -0.143000
     32 C32       -11.1280    2.0970    0.4630 cc        1 0F4     -0.215000
     33 C33       -10.9280    1.5990   -0.8430 cd        1 0F4     -0.130300
     34 N34        -9.6400    1.1200   -0.9490 na        1 0F4     -0.135100
     35 C36        -3.2310   -0.9220   -0.4270 ca        1 0F4     -0.220000
     36 C37         0.8220   -1.4410    0.0880 ca        1 0F4     -0.190000
     37 C38         7.1930    0.3300   -0.2370 ca        1 0F4     -0.137000
     38 H6          8.7260    1.9040    2.3880 ha        1 0F4      0.154000
     39 H7          6.7630    0.9200    3.5870 ha        1 0F4      0.147000
     40 H8          5.0870   -0.4360    2.3730 ha        1 0F4      0.177000
     41 HN10        5.4990   -1.2580   -1.2240 hn        1 0F4      0.312500
     42 HN13        3.4870   -2.3690   -1.6460 hn        1 0F4      0.311500
     43 H15         1.8540   -3.9900   -1.9750 ha        1 0F4      0.132000
     44 H16        -0.5030   -4.6530   -1.6710 ha        1 0F4      0.136000
     45 H17        -2.0330   -3.3330   -0.2360 ha        1 0F4      0.150000
     46 HN19       -0.8500   -0.5040    1.7750 hn        1 0F4      0.431800
     47 H21        -2.9570    0.0890    2.8600 ha        1 0F4      0.138000
     48 H22        -5.2930    0.7770    2.4760 ha        1 0F4      0.136000
     49 HN25       -5.0420   -1.0150   -2.6330 hn        1 0F4      0.342500
     50 H29        -7.4020    1.2110    1.6670 ha        1 0F4      0.140000
     51 H31        -9.7060    2.1800    2.2010 ha        1 0F4      0.151000
     52 H32       -12.0430    2.5380    0.8450 ha        1 0F4      0.155000
     53 H33       -11.6220    1.5610   -1.6840 h4        1 0F4      0.170000
     54 H36        -2.6500   -1.3690   -1.2460 ha        1 0F4      0.151000
     55 H37         1.1980   -0.5330    0.5900 ha        1 0F4      0.169000
     56 H38         7.3410    0.1780   -1.3180 ha        1 0F4      0.148000
     57 HN34       -9.2330    0.7140   -1.7590 hn        1 0F4      0.332700
@<TRIPOS>BOND
     1    1    2 1   
     2    2    3 1   
     3    2    4 1   
     4    2    5 1   
     5    5    6 ar  
     6    5   37 ar  
     7    6    7 ar  
     8    6   38 1   
     9    7    8 ar  
    10    7   39 1   
    11    8    9 ar  
    12    8   40 1   
    13    9   10 1   
    14    9   37 ar  
    15   10   11 1   
    16   10   41 1   
    17   11   12 2   
    18   11   13 1   
    19   13   14 1   
    20   13   42 1   
    21   14   15 ar  
    22   14   36 ar  
    23   15   16 ar  
    24   15   43 1   
    25   16   17 ar  
    26   16   44 1   
    27   17   18 ar  
    28   17   45 1   
    29   18   19 1   
    30   18   36 ar  
    31   19   20 1   
    32   19   46 1   
    33   20   21 ar  
    34   20   35 ar  
    35   21   22 ar  
    36   21   47 1   
    37   22   23 ar  
    38   22   48 1   
    39   23   24 ar  
    40   23   28 1   
    41   24   25 1   
    42   24   35 ar  
    43   25   26 1   
    44   25   49 1   
    45   26   27 2   
    46   26   28 1   
    47   28   29 2   
    48   29   30 1   
    49   29   50 1   
    50   30   31 2   
    51   30   34 1   
    52   31   32 1   
    53   31   51 1   
    54   32   33 2   
    55   32   52 1   
    56   33   34 1   
    57   33   53 1   
    58   34   57 1   
    59   35   54 1   
    60   36   55 1   
    61   37   56 1   
@<TRIPOS>SUBSTRUCTURE
     1 0F4         1 TEMP              0 ****  ****    0 ROOT
