@<TRIPOS>MOLECULE
0F4
   60    64     1     0     0
SMALL
bcc


@<TRIPOS>ATOM
      1 F1          2.8200    1.9960   -3.7730 f         1 0F4     -0.198967
      2 C2          3.6970    1.2660   -3.0050 c3        1 0F4      0.696200
      3 F3          3.0650    0.0800   -2.7610 f         1 0F4     -0.198967
      4 F4          4.7570    0.9860   -3.8180 f         1 0F4     -0.198967
      5 C5          4.0850    2.0230   -1.7180 ca        1 0F4     -0.139300
      6 C6          5.4070    2.0250   -1.2550 ca        1 0F4      0.021000
      7 C7          5.7290    2.7360   -0.0930 ca        1 0F4     -0.086000
      8 C8          4.7510    3.4370    0.6090 ca        1 0F4     -0.062000
      9 C9          3.4200    3.4170    0.1350 ca        1 0F4     -0.163400
     10 N10         2.3580    4.0320    0.9300 n4        1 0F4     -0.492200
     11 C11         1.7150    5.2440    0.3160 c         1 0F4      0.468100
     12 O12         0.7940    5.8020    0.8850 o         1 0F4     -0.277100
     13 N13         2.2310    5.7240   -1.0150 n4        1 0F4     -0.491200
     14 C14         1.8370    7.1130   -1.3130 ca        1 0F4     -0.069400
     15 C15         2.6900    8.1630   -0.9160 ca        1 0F4     -0.060000
     16 C16         2.3480    9.4700   -1.2480 ca        1 0F4     -0.073000
     17 C17         1.1770    9.7510   -1.9580 ca        1 0F4      0.004000
     18 C18         0.3270    8.6980   -2.3450 ca        1 0F4     -0.002400
     19 N19        -0.9140    8.9850   -3.0870 n4        1 0F4     -0.484800
     20 C20        -0.9650   10.3150   -3.7030 ca        1 0F4     -0.142400
     21 C21        -0.5190   10.4830   -5.0230 ca        1 0F4     -0.091000
     22 C22        -0.6470   11.7210   -5.6520 ca        1 0F4     -0.128000
     23 C23        -1.2100   12.7920   -4.9710 ca        1 0F4      0.048200
     24 C24        -1.6550   12.6040   -3.5860 ca        1 0F4      0.075600
     25 N25        -2.1580   13.8050   -3.1090 n         1 0F4     -0.464100
     26 C26        -2.1020   14.7940   -4.1460 c         1 0F4      0.735700
     27 O27        -2.5150   15.9400   -3.9470 o         1 0F4     -0.596500
     28 C28        -1.4880   14.1560   -5.3400 cc        1 0F4     -0.296400
     29 C29        -1.2310   14.6930   -6.5830 cf        1 0F4      0.155800
     30 C30        -1.4530   15.9590   -7.1130 cd        1 0F4     -0.214100
     31 C31        -1.1130   16.3460   -8.4710 cc        1 0F4     -0.052000
     32 C32        -1.4890   17.6800   -8.6420 cc        1 0F4     -0.205000
     33 C33        -2.0590   18.1190   -7.4000 cd        1 0F4     -0.008300
     34 N34        -2.0330   17.0980   -6.5030 na        1 0F4     -0.117100
     35 C36        -1.5320   11.3790   -2.9530 ca        1 0F4     -0.186000
     36 C37         0.6470    7.3670   -2.0220 ca        1 0F4     -0.079000
     37 C38         3.0800    2.6900   -1.0240 ca        1 0F4     -0.099000
     38 H6          6.1900    1.4590   -1.8050 ha        1 0F4      0.226000
     39 H7          6.7720    2.7280    0.2850 ha        1 0F4      0.218000
     40 H8          5.0340    3.9700    1.5360 ha        1 0F4      0.184000
     41 HN10        1.6030    3.3300    1.0930 hn        1 0F4      0.520300
     42 HN13        1.8600    5.0950   -1.7500 hn        1 0F4      0.501800
     43 H15         3.6270    7.9810   -0.3600 ha        1 0F4      0.181000
     44 H16         3.0160   10.3040   -0.9480 ha        1 0F4      0.220000
     45 H17         0.9270   10.8050   -2.2140 ha        1 0F4      0.231000
     46 HN19       -1.7060    8.9090   -2.4290 hn        1 0F4      0.469800
     47 H21        -0.0810    9.6460   -5.5910 ha        1 0F4      0.142000
     48 H22        -0.3090   11.8350   -6.6950 ha        1 0F4      0.173000
     49 HN25       -2.6050   13.9350   -2.2370 hn        1 0F4      0.357500
     50 H29        -0.7590   13.9940   -7.3120 ha        1 0F4      0.144000
     51 H31        -0.6480   15.6860   -9.2030 ha        1 0F4      0.173000
     52 H32        -1.3860   18.2970   -9.5340 ha        1 0F4      0.194000
     53 H33        -2.4680   19.1080   -7.1550 h4        1 0F4      0.207000
     54 H36        -1.8900   11.2380   -1.9230 ha        1 0F4      0.149000
     55 H37        -0.0210    6.5410   -2.3260 ha        1 0F4      0.171000
     56 H38         2.0380    2.5960   -1.3800 ha        1 0F4      0.170000
     57 HN34       -2.3690   17.1290   -5.5640 hn        1 0F4      0.348700
     58 H102        2.7320    4.3100    1.8610 hn        1 0F4      0.520300
     59 H132        3.2670    5.6640   -1.0310 hn        1 0F4      0.501800
     60 H192       -1.0270    8.2830   -3.8330 hn        1 0F4      0.469800
@<TRIPOS>BOND
     1    1    2 1   
     2    2    3 1   
     3    2    4 1   
     4    2    5 1   
     5    5    6 ar  
     6    5   37 ar  
     7    6    7 ar  
     8    6   38 1   
     9    7    8 ar  
    10    7   39 1   
    11    8    9 ar  
    12    8   40 1   
    13    9   10 1   
    14    9   37 ar  
    15   10   11 1   
    16   10   41 1   
    17   10   58 1   
    18   11   12 2   
    19   11   13 1   
    20   13   14 1   
    21   13   42 1   
    22   13   59 1   
    23   14   15 ar  
    24   14   36 ar  
    25   15   16 ar  
    26   15   43 1   
    27   16   17 ar  
    28   16   44 1   
    29   17   18 ar  
    30   17   45 1   
    31   18   19 1   
    32   18   36 ar  
    33   19   20 1   
    34   19   46 1   
    35   19   60 1   
    36   20   21 ar  
    37   20   35 ar  
    38   21   22 ar  
    39   21   47 1   
    40   22   23 ar  
    41   22   48 1   
    42   23   24 ar  
    43   23   28 1   
    44   24   25 1   
    45   24   35 ar  
    46   25   26 1   
    47   25   49 1   
    48   26   27 2   
    49   26   28 1   
    50   28   29 2   
    51   29   30 1   
    52   29   50 1   
    53   30   31 2   
    54   30   34 1   
    55   31   32 1   
    56   31   51 1   
    57   32   33 2   
    58   32   52 1   
    59   33   34 1   
    60   33   53 1   
    61   34   57 1   
    62   35   54 1   
    63   36   55 1   
    64   37   56 1   
@<TRIPOS>SUBSTRUCTURE
     1 0F4         1 TEMP              0 ****  ****    0 ROOT
