@<TRIPOS>MOLECULE
0F4
   57    61     1     0     0
SMALL
bcc


@<TRIPOS>ATOM
      1 F1          0.4650   -0.7630   -0.3270 f         1 0F4     -0.236633
      2 C2          1.7620   -0.5070    0.0490 c3        1 0F4      0.687200
      3 F3          1.6990   -0.4160    1.4190 f         1 0F4     -0.236633
      4 F4          2.4170   -1.6920   -0.1790 f         1 0F4     -0.236633
      5 C5          2.3830    0.7050   -0.6380 ca        1 0F4     -0.143300
      6 C6          3.0900    0.5380   -1.8290 ca        1 0F4     -0.103000
      7 C7          3.6370    1.6580   -2.4520 ca        1 0F4     -0.113000
      8 C8          3.4920    2.9280   -1.9030 ca        1 0F4     -0.108000
      9 C9          2.7750    3.1020   -0.6980 ca        1 0F4      0.063600
     10 N10         2.6560    4.3520   -0.0610 ns        1 0F4     -0.466100
     11 C11         2.5560    5.5710   -0.7730 c         1 0F4      0.773100
     12 O12         2.7710    5.6260   -2.0040 o         1 0F4     -0.609100
     13 N13         2.2000    6.7100   -0.0220 ns        1 0F4     -0.462100
     14 C14         2.2940    8.0270   -0.5210 ca        1 0F4      0.087600
     15 C15         2.5740    9.0740    0.3880 ca        1 0F4     -0.203000
     16 C16         2.6070   10.3870   -0.0620 ca        1 0F4     -0.084000
     17 C17         2.3820   10.7020   -1.3970 ca        1 0F4     -0.177000
     18 C18         2.0970    9.6730   -2.3200 ca        1 0F4      0.169600
     19 N19         1.9560    9.9410   -3.6920 nu        1 0F4     -0.635000
     20 C20         1.1350   10.9560   -4.2050 ca        1 0F4      0.195600
     21 C21         1.1690   11.2000   -5.5980 ca        1 0F4     -0.214000
     22 C22         0.4120   12.2200   -6.1760 ca        1 0F4     -0.047000
     23 C23        -0.3930   13.0100   -5.3790 ca        1 0F4     -0.136800
     24 C24        -0.4440   12.7580   -3.9630 ca        1 0F4      0.087600
     25 N25        -1.3280   13.6700   -3.3640 ns        1 0F4     -0.476100
     26 C26        -1.8740   14.5250   -4.3470 c         1 0F4      0.724700
     27 O27        -2.6890   15.4140   -4.0530 o         1 0F4     -0.648500
     28 C28        -1.2900   14.1360   -5.6750 cc        1 0F4     -0.158400
     29 C29        -1.4840   14.6440   -6.9050 cf        1 0F4      0.044800
     30 C30        -2.3020   15.7160   -7.3760 cd        1 0F4     -0.153100
     31 C31        -2.3880   16.1290   -8.7360 cc        1 0F4     -0.143000
     32 C32        -3.2980   17.2170   -8.7950 cc        1 0F4     -0.215000
     33 C33        -3.7510   17.4490   -7.4770 cd        1 0F4     -0.130300
     34 N34        -3.1480   16.5440   -6.6300 na        1 0F4     -0.135100
     35 C36         0.2980   11.7440   -3.3740 ca        1 0F4     -0.220000
     36 C37         2.0470    8.3340   -1.8700 ca        1 0F4     -0.190000
     37 C38         2.2140    1.9650   -0.0700 ca        1 0F4     -0.137000
     38 H6          3.2140   -0.4660   -2.2630 ha        1 0F4      0.154000
     39 H7          4.1960    1.5380   -3.3940 ha        1 0F4      0.147000
     40 H8          3.9310    3.7980   -2.4210 ha        1 0F4      0.177000
     41 HN10        2.2580    4.3130    0.8530 hn        1 0F4      0.312500
     42 HN13        2.2520    6.6460    0.9720 hn        1 0F4      0.311500
     43 H15         2.7660    8.8630    1.4500 ha        1 0F4      0.132000
     44 H16         2.8300   11.1960    0.6510 ha        1 0F4      0.136000
     45 H17         2.4420   11.7480   -1.7330 ha        1 0F4      0.150000
     46 HN19        2.0610    9.1480   -4.2900 hn        1 0F4      0.431800
     47 H21         1.8080   10.5840   -6.2500 ha        1 0F4      0.138000
     48 H22         0.4650   12.3870   -7.2630 ha        1 0F4      0.136000
     49 HN25       -1.5520   13.6930   -2.4050 hn        1 0F4      0.342500
     50 H29        -0.9170   14.1630   -7.7330 ha        1 0F4      0.140000
     51 H31        -1.8490   15.6830   -9.5660 ha        1 0F4      0.151000
     52 H32        -3.5960   17.7700   -9.6800 ha        1 0F4      0.155000
     53 H33        -4.4550   18.1950   -7.1080 h4        1 0F4      0.170000
     54 H36         0.2280   11.5500   -2.2940 ha        1 0F4      0.151000
     55 H37         1.8300    7.5230   -2.5860 ha        1 0F4      0.169000
     56 H38         1.6490    2.0560    0.8720 ha        1 0F4      0.148000
     57 HN34       -3.2870   16.4830   -5.6480 hn        1 0F4      0.332700
@<TRIPOS>BOND
     1    1    2 1   
     2    2    3 1   
     3    2    4 1   
     4    2    5 1   
     5    5    6 ar  
     6    5   37 ar  
     7    6    7 ar  
     8    6   38 1   
     9    7    8 ar  
    10    7   39 1   
    11    8    9 ar  
    12    8   40 1   
    13    9   10 1   
    14    9   37 ar  
    15   10   11 1   
    16   10   41 1   
    17   11   12 2   
    18   11   13 1   
    19   13   14 1   
    20   13   42 1   
    21   14   15 ar  
    22   14   36 ar  
    23   15   16 ar  
    24   15   43 1   
    25   16   17 ar  
    26   16   44 1   
    27   17   18 ar  
    28   17   45 1   
    29   18   19 1   
    30   18   36 ar  
    31   19   20 1   
    32   19   46 1   
    33   20   21 ar  
    34   20   35 ar  
    35   21   22 ar  
    36   21   47 1   
    37   22   23 ar  
    38   22   48 1   
    39   23   24 ar  
    40   23   28 1   
    41   24   25 1   
    42   24   35 ar  
    43   25   26 1   
    44   25   49 1   
    45   26   27 2   
    46   26   28 1   
    47   28   29 2   
    48   29   30 1   
    49   29   50 1   
    50   30   31 2   
    51   30   34 1   
    52   31   32 1   
    53   31   51 1   
    54   32   33 2   
    55   32   52 1   
    56   33   34 1   
    57   33   53 1   
    58   34   57 1   
    59   35   54 1   
    60   36   55 1   
    61   37   56 1   
@<TRIPOS>SUBSTRUCTURE
     1 0F4         1 TEMP              0 ****  ****    0 ROOT
