@<TRIPOS>MOLECULE
0F4
   57    50     1     0     0
SMALL
bcc


@<TRIPOS>ATOM
      1 F1          7.2270   -6.6070    3.6150 f         1 0F4     -0.165667
      2 C2          6.1820   -7.2670    4.1310 c3        1 0F4      0.465000
      3 F3          5.6480   -8.0610    3.1950 f         1 0F4     -0.165667
      4 F4          6.5920   -8.0110    5.1670 f         1 0F4     -0.165667
      5 C5          5.1420   -6.2740    4.6040 c2        1 0F4     -0.133000
      6 C6          5.2760   -5.6670    5.8430 c1        1 0F4     -0.108000
      7 C7          4.3220   -4.7610    6.2770 c1        1 0F4     -0.113500
      8 C8          3.2340   -4.4610    5.4720 c1        1 0F4     -0.113500
      9 C9          3.1000   -5.0670    4.2330 c1        1 0F4      0.085000
     10 N10         1.9570   -4.8010    3.4310 n         1 0F4     -0.334000
     11 C11         1.6590   -3.4690    3.0380 c2        1 0F4      0.418000
     12 O12         2.3820   -2.5570    3.3870 o         1 0F4     -0.371000
     13 N13         0.5510   -3.2100    2.1870 n         1 0F4     -0.334000
     14 C14         0.2880   -1.8850    1.7450 c2        1 0F4      0.110000
     15 C15         0.1090   -0.8690    2.6710 c2        1 0F4     -0.169000
     16 C16        -0.0760    0.4360    2.2400 c1        1 0F4     -0.080000
     17 C17        -0.0830    0.7240    0.8840 c1        1 0F4     -0.198000
     18 C18         0.0960   -0.2910   -0.0410 c1        1 0F4      0.091000
     19 N19         0.1070    0.0070   -1.4310 n3        1 0F4     -0.266000
     20 C20        -0.6240    1.1220   -1.9240 c2        1 0F4      0.102000
     21 C21         0.1050    2.1870   -2.4690 c2        1 0F4     -0.218000
     22 C22        -0.5510    3.1890   -3.1830 c1        1 0F4     -0.051000
     23 C23        -1.9340    3.1310   -3.3550 c1        1 0F4     -0.116000
     24 C24        -2.6650    2.0640   -2.8100 c1        1 0F4      0.089000
     25 N25        -4.1210    2.3260   -3.0480 n         1 0F4     -0.329000
     26 C26        -4.2390    3.5650   -3.7430 c2        1 0F4      0.363000
     27 O27        -5.2720    4.0630   -4.1430 o         1 0F4     -0.372000
     28 C28        -2.9020    4.1030   -3.9310 c2        1 0F4     -0.155000
     29 C29        -2.6020    5.3260   -4.4160 c1        1 0F4      0.037000
     30 C30        -3.7120    6.2740   -4.8190 c1        1 0F4     -0.111500
     31 C31        -4.3750    6.2760   -6.0270 c1        1 0F4     -0.178500
     32 C32        -5.2590    7.3070   -6.0170 c1        1 0F4     -0.178500
     33 C33        -5.1500    7.9490   -4.8040 c1        1 0F4     -0.111500
     34 N34        -4.1950    7.3070   -4.0720 n2        1 0F4     -0.134000
     35 C36        -2.0060    1.0620   -2.0960 c1        1 0F4     -0.198000
     36 C37         0.2820   -1.5960    0.3890 c1        1 0F4     -0.226000
     37 C38         4.0540   -5.9740    3.7990 c2        1 0F4     -0.143000
     38 H6          6.0420   -5.8790    6.4100 ha        1 0F4      0.154000
     39 H7          4.4160   -4.3330    7.1490 ha        1 0F4      0.163500
     40 H8          2.5620   -3.8220    5.7780 ha        1 0F4      0.163500
     41 HN10        1.4180   -5.4870    3.1640 hn        1 0F4      0.230000
     42 HN13        0.0040   -3.8940    1.9300 hn        1 0F4      0.230000
     43 H15         0.1140   -1.0720    3.6260 ha        1 0F4      0.172000
     44 H16        -0.2020    1.1510    2.8920 ha        1 0F4      0.139000
     45 H17        -0.2130    1.6430    0.5820 ha        1 0F4      0.148000
     46 HN19        0.5980   -0.5060   -2.0040 hn        1 0F4      0.218000
     47 H21         1.0700    2.2390   -2.3300 ha        1 0F4      0.133000
     48 H22        -0.0420    3.9310   -3.5620 ha        1 0F4      0.136000
     49 HN25       -4.8100    1.7850   -2.7970 hn        1 0F4      0.257000
     50 H29        -1.6700    5.5990   -4.5080 ha        1 0F4      0.140000
     51 H31        -4.2340    5.6480   -6.7600 DU        1 0F4      0.190500
     52 H32        -5.8650    7.5500   -6.7420 DU        1 0F4      0.190500
     53 H33        -5.6650    8.7270   -4.5180 DU        1 0F4      0.190500
     54 H36        -2.5130    0.3170   -1.7210 ha        1 0F4      0.154000
     55 H37         0.4070   -2.3120   -0.2630 ha        1 0F4      0.133000
     56 H38         3.9600   -6.4020    2.9260 ha        1 0F4      0.147000
     57 HN34       -3.9260    7.5300   -3.2290 DU        1 0F4      0.190500
@<TRIPOS>BOND
     1    1    2 1   
     2    2    3 1   
     3    2    4 1   
     4    2    5 1   
     5    5    6 1   
     6    5   37 1   
     7    6   38 1   
     8    7    8 1   
     9    7   39 1   
    10    8   40 1   
    11    9   10 1   
    12    9   37 1   
    13   10   11 1   
    14   10   41 1   
    15   11   12 1   
    16   11   13 1   
    17   13   14 1   
    18   13   42 1   
    19   14   15 1   
    20   14   36 1   
    21   15   16 1   
    22   15   43 1   
    23   16   44 1   
    24   17   18 1   
    25   17   45 1   
    26   18   19 1   
    27   19   20 1   
    28   19   46 1   
    29   20   21 1   
    30   20   35 1   
    31   21   22 1   
    32   21   47 1   
    33   22   48 1   
    34   23   24 1   
    35   23   28 1   
    36   24   25 1   
    37   25   26 1   
    38   25   49 1   
    39   26   27 1   
    40   26   28 1   
    41   28   29 1   
    42   29   50 1   
    43   30   31 1   
    44   30   34 1   
    45   31   32 1   
    46   32   33 1   
    47   33   34 1   
    48   35   54 1   
    49   36   55 1   
    50   37   56 1   
@<TRIPOS>SUBSTRUCTURE
     1 0F4         1 TEMP              0 ****  ****    0 ROOT
