@<TRIPOS>MOLECULE
0F5
   51    54     1     0     0
SMALL
bcc


@<TRIPOS>ATOM
      1 C10        -2.9710   -2.0850    0.7080 ca        1 0F5     -0.105000
      2 C13        -3.7900   -0.9020   -1.3470 c3        1 0F5      0.079100
      3 C15        -6.3070   -0.9420   -1.2920 c         1 0F5      0.752700
      4 C17        -7.0570    1.0430   -0.2470 c         1 0F5      0.845400
      5 C21         5.3990    0.2060    0.7160 c3        1 0F5      0.193500
      6 C22         6.6190   -0.4800    1.3560 c3        1 0F5     -0.095900
      7 C24         7.9280   -0.2100   -0.7700 c3        1 0F5      0.170500
      8 C26         5.4240   -0.0590   -0.7990 c3        1 0F5     -0.095900
      9 O19        -6.5100   -1.9890   -1.9140 o         1 0F5     -0.590500
     10 N16        -7.4180   -0.0970   -0.9270 n         1 0F5     -0.603500
     11 O20        -7.8050    1.9470    0.1380 o         1 0F5     -0.550500
     12 S18        -5.2470    0.8980    0.1260 sx        1 0F5      0.365100
     13 C14        -5.0580   -0.3570   -0.8340 ce        1 0F5     -0.893400
     14 C12        -2.7610   -1.1220   -0.2870 ca        1 0F5     -0.099300
     15 C11        -1.5670   -0.3970   -0.3000 ca        1 0F5     -0.122000
     16 C08        -2.0000   -2.3110    1.6800 ca        1 0F5     -0.139000
     17 C09        -0.8090   -1.5850    1.6710 ca        1 0F5     -0.091000
     18 C07        -0.5900   -0.6200    0.6800 cp        1 0F5     -0.149500
     19 C03         0.6530    0.1680    0.6570 cp        1 0F5      0.392500
     20 N02         1.8270   -0.4330    0.9650 nb        1 0F5     -0.693000
     21 C01         0.5940    1.5470    0.3030 ca        1 0F5      0.236900
     22 N05         1.6970    2.3170    0.2510 nb        1 0F5     -0.607000
     23 C06         2.8650    1.7370    0.5560 ca        1 0F5      0.243900
     24 C04         2.9560    0.3480    0.9370 ca        1 0F5      0.524900
     25 N28         4.1710   -0.2030    1.3820 nh        1 0F5     -0.813900
     26 C23         7.8990    0.0470    0.7450 c3        1 0F5     -0.074900
     27 N27         9.1690    0.2590   -1.3660 n3        1 0F5     -0.913800
     28 C25         6.7040    0.4610   -1.4140 c3        1 0F5     -0.074900
     29 H10        -3.9070   -2.6650    0.7100 ha        1 0F5      0.145000
     30 H13        -3.9990   -1.8880   -1.8550 hc        1 0F5      0.060200
     31 H13A       -3.3750   -0.2130   -2.1370 hc        1 0F5      0.060200
     32 H21         5.5080    1.3200    0.8780 h1        1 0F5      0.066700
     33 H22         6.6300   -0.2840    2.4600 hc        1 0F5      0.050450
     34 H22A        6.5540   -1.5890    1.2060 hc        1 0F5      0.050450
     35 H24         7.8060   -1.3310   -0.9180 h1        1 0F5      0.007700
     36 H26         5.3270   -1.1590   -0.9930 hc        1 0F5      0.050450
     37 H26A        4.5490    0.4500   -1.2820 hc        1 0F5      0.050450
     38 HN16       -8.3350   -0.2640   -1.2690 hn        1 0F5      0.351500
     39 H11        -1.3830    0.3410   -1.0970 ha        1 0F5      0.135000
     40 H08        -2.1680   -3.0720    2.4570 ha        1 0F5      0.136000
     41 H09        -0.0440   -1.7740    2.4390 ha        1 0F5      0.149000
     42 H01        -0.3640    2.0350    0.0640 h4        1 0F5      0.030100
     43 H06         3.7580    2.3820    0.5100 h4        1 0F5      0.036100
     44 HN28        4.1330   -1.1920    1.5440 hn        1 0F5      0.408800
     45 H23         7.9930    1.1470    0.9420 hc        1 0F5      0.052200
     46 H23A        8.7710   -0.4610    1.2340 hc        1 0F5      0.052200
     47 HN27        9.9500   -0.2040   -0.9470 hn        1 0F5      0.351800
     48 HN2A        9.1660    0.0870   -2.3510 hn        1 0F5      0.351800
     49 H25         6.7700    1.5720   -1.2780 hc        1 0F5      0.052200
     50 H25A        6.6920    0.2540   -2.5160 hc        1 0F5      0.052200
     51 HS18       -4.7430    1.9180   -0.5010 hs        1 0F5      0.208000
@<TRIPOS>BOND
     1    1   14 ar  
     2    1   16 ar  
     3    1   29 1   
     4    2   13 1   
     5    2   14 1   
     6    2   30 1   
     7    2   31 1   
     8    3    9 2   
     9    3   10 1   
    10    3   13 1   
    11    4   10 1   
    12    4   11 2   
    13    4   12 1   
    14    5    6 1   
    15    5    8 1   
    16    5   25 1   
    17    5   32 1   
    18    6   26 1   
    19    6   33 1   
    20    6   34 1   
    21    7   26 1   
    22    7   27 1   
    23    7   28 1   
    24    7   35 1   
    25    8   28 1   
    26    8   36 1   
    27    8   37 1   
    28   10   38 1   
    29   12   13 2   
    30   12   51 1   
    31   14   15 ar  
    32   15   18 ar  
    33   15   39 1   
    34   16   17 ar  
    35   16   40 1   
    36   17   18 ar  
    37   17   41 1   
    38   18   19 1   
    39   19   20 ar  
    40   19   21 ar  
    41   20   24 ar  
    42   21   22 ar  
    43   21   42 1   
    44   22   23 ar  
    45   23   24 ar  
    46   23   43 1   
    47   24   25 1   
    48   25   44 1   
    49   26   45 1   
    50   26   46 1   
    51   27   47 1   
    52   27   48 1   
    53   28   49 1   
    54   28   50 1   
@<TRIPOS>SUBSTRUCTURE
     1 0F5         1 TEMP              0 ****  ****    0 ROOT
