@<TRIPOS>MOLECULE
0F5
   51    47     1     0     0
SMALL
bcc


@<TRIPOS>ATOM
      1 C10        -0.9710    0.6510   -4.8210 c1        1 0F5     -0.105000
      2 C13        -1.5160   -1.7900   -4.5920 c3        1 0F5     -0.011000
      3 C15        -3.2380   -1.7170   -6.6150 c1        1 0F5      0.391000
      4 C17        -2.2720   -3.9670   -6.4150 c1        1 0F5      0.071000
      5 C21         0.8900    0.9240    3.6020 c3        1 0F5     -0.010000
      6 C22         1.5060    1.9700    4.5210 c3        1 0F5     -0.172500
      7 C24         0.3970    0.8800    6.5030 c3        1 0F5     -0.027000
      8 C26        -0.3910    0.3380    4.1680 c3        1 0F5     -0.172500
      9 O19        -3.4900   -1.5010   -7.7810 o         1 0F5     -0.314000
     10 N16        -3.6660   -3.0240   -6.1730 n1        1 0F5     -0.383000
     11 O20        -2.2410   -5.0890   -6.8800 o         1 0F5     -0.275000
     12 S18        -1.0720   -2.7950   -6.5740 s4        1 0F5      1.201000
     13 C14        -1.6580   -1.7440   -6.0950 c2        1 0F5     -0.870000
     14 C12        -0.8270   -0.5310   -4.1120 c2        1 0F5     -0.091000
     15 C11        -0.1180   -0.5430   -2.9200 c1        1 0F5     -0.123000
     16 C08        -0.4070    1.8220   -4.3390 c1        1 0F5     -0.139000
     17 C09         0.3020    1.8100   -3.1480 c2        1 0F5     -0.092000
     18 C07         0.4470    0.6280   -2.4380 c2        1 0F5     -0.042000
     19 C03         1.1910    0.6230   -1.1210 c2        1 0F5      0.017000
     20 N02         0.5700    1.0160    0.0020 n2        1 0F5     -0.163000
     21 C01         2.5290    0.2640   -1.0830 c1        1 0F5     -0.155000
     22 N05         3.2030    0.3090    0.0760 n2        1 0F5     -0.085000
     23 C06         2.5820    0.7020    1.1980 c1        1 0F5     -0.142000
     24 C04         1.2440    1.0620    1.1600 c1        1 0F5      0.056000
     25 N28         0.6010    1.5310    2.3380 n3        1 0F5     -0.251000
     26 C23         1.6770    1.4670    5.9370 c3        1 0F5     -0.153500
     27 N27         0.6860    0.2720    7.7680 n3        1 0F5     -0.346000
     28 C25        -0.2190   -0.1660    5.5850 c3        1 0F5     -0.153500
     29 H10        -1.4710    0.6590   -5.6600 DU        1 0F5      0.145750
     30 H13        -0.9840   -2.5710   -4.3390 hc        1 0F5      0.100000
     31 H13A       -2.4030   -1.8520   -4.1830 hc        1 0F5      0.100000
     32 H21         1.5350    0.2030    3.4670 h1        1 0F5      0.106000
     33 H22         2.3820    2.2240    4.1670 hc        1 0F5      0.089500
     34 H22A        0.9280    2.7590    4.5330 hc        1 0F5      0.089500
     35 H24        -0.2490    1.6020    6.6380 h1        1 0F5      0.047000
     36 H26        -0.6750   -0.4060    3.6010 hc        1 0F5      0.089500
     37 H26A       -1.0850    1.0260    4.1590 hc        1 0F5      0.089500
     38 HN16       -4.5240   -3.3310   -6.1600 hn        1 0F5      0.265000
     39 H11        -0.0160   -1.3740   -2.4210 DU        1 0F5      0.145750
     40 H08        -0.5090    2.6540   -4.8380 DU        1 0F5      0.145750
     41 H09         0.6990    2.6350   -2.8080 ha        1 0F5      0.149000
     42 H01         2.9810   -0.0220   -1.8990 DU        1 0F5      0.145750
     43 H06         3.0730    0.7360    2.0410 ha        1 0F5      0.175000
     44 HN28       -0.0010    2.2150    2.2870 hn        1 0F5      0.197000
     45 H23         1.9620    2.2110    6.5050 hc        1 0F5      0.090750
     46 H23A        2.3720    0.7780    5.9460 hc        1 0F5      0.090750
     47 HN27       -0.0720   -0.1240    8.0970 hn        1 0F5      0.146500
     48 HN2A        0.9740    0.9130    8.3560 hn        1 0F5      0.146500
     49 H25         0.3580   -0.9550    5.5720 hc        1 0F5      0.090750
     50 H25A       -1.0950   -0.4200    5.9380 hc        1 0F5      0.090750
     51 HS18        0.0800   -2.9630   -6.7500 hs        1 0F5     -0.196000
@<TRIPOS>BOND
     1    1   14 1   
     2    1   16 1   
     3    2   13 1   
     4    2   14 1   
     5    2   30 1   
     6    2   31 1   
     7    3    9 1   
     8    3   13 1   
     9    4   11 1   
    10    4   12 1   
    11    5    6 1   
    12    5    8 1   
    13    5   25 1   
    14    5   32 1   
    15    6   26 1   
    16    6   33 1   
    17    6   34 1   
    18    7   26 1   
    19    7   27 1   
    20    7   28 1   
    21    7   35 1   
    22    8   28 1   
    23    8   36 1   
    24    8   37 1   
    25   10   38 1   
    26   12   13 1   
    27   12   51 1   
    28   14   15 1   
    29   15   18 1   
    30   16   17 1   
    31   17   18 1   
    32   17   41 1   
    33   18   19 1   
    34   19   20 1   
    35   19   21 1   
    36   20   24 1   
    37   21   22 1   
    38   22   23 1   
    39   23   43 1   
    40   24   25 1   
    41   25   44 1   
    42   26   45 1   
    43   26   46 1   
    44   27   47 1   
    45   27   48 1   
    46   28   49 1   
    47   28   50 1   
@<TRIPOS>SUBSTRUCTURE
     1 0F5         1 TEMP              0 ****  ****    0 ROOT
