@<TRIPOS>MOLECULE
0F5
   52    55     1     0     0
SMALL
bcc


@<TRIPOS>ATOM
      1 C10         1.4530   -0.5090    1.1870 ca        1 0F5     -0.094000
      2 C13         3.3990    0.4230   -0.0840 c3        1 0F5      0.088100
      3 C15         2.1570   -0.2620   -2.1670 c         1 0F5      0.755700
      4 C17         1.8670    1.6480   -3.5290 c         1 0F5      0.860400
      5 C21         2.5560    0.2740    8.4520 c3        1 0F5      0.202500
      6 C22         3.1740   -0.1570    9.7960 c3        1 0F5     -0.100900
      7 C24         1.5160   -2.0070    9.9840 c3        1 0F5      0.116500
      8 C26         1.0570   -0.0790    8.4780 c3        1 0F5     -0.100900
      9 O19         2.0720   -1.4790   -1.9600 o         1 0F5     -0.598500
     10 N16         1.7190    0.2850   -3.4250 ns        1 0F5     -0.599500
     11 O20         1.6080    2.3610   -4.5000 o         1 0F5     -0.533500
     12 S18         2.3950    2.2620   -1.8540 sx        1 0F5      0.345100
     13 C14         2.6590    0.7900   -1.3020 ce        1 0F5     -0.908400
     14 C12         2.5450    0.3690    1.1410 ca        1 0F5     -0.072300
     15 C11         2.8460    1.1530    2.2570 ca        1 0F5     -0.118000
     16 C08         0.6710   -0.5940    2.3360 ca        1 0F5     -0.139000
     17 C09         0.9740    0.1830    3.4540 ca        1 0F5     -0.105000
     18 C07         2.0630    1.0610    3.4160 cp        1 0F5     -0.163500
     19 C03         2.3970    1.8950    4.5800 cp        1 0F5      0.397500
     20 N02         2.3860    1.3460    5.8200 nb        1 0F5     -0.700000
     21 C01         2.7190    3.2700    4.3810 ca        1 0F5      0.261900
     22 N05         3.0210    4.0880    5.4070 nb        1 0F5     -0.595000
     23 C06         3.0230    3.5560    6.6370 ca        1 0F5      0.258900
     24 C04         2.7170    2.1650    6.8630 ca        1 0F5      0.497900
     25 N28         2.8540    1.6640    8.1790 nu        1 0F5     -0.817900
     26 C23         3.0060   -1.6490    9.9940 c3        1 0F5     -0.097900
     27 N27         1.3170   -3.4850   10.2140 nz        1 0F5     -0.843600
     28 C25         0.8650   -1.5690    8.6680 c3        1 0F5     -0.097900
     29 H10         1.2280   -1.1300    0.3030 ha        1 0F5      0.165000
     30 H13         3.8600   -0.5970   -0.2260 hc        1 0F5      0.053200
     31 H13A        4.2450    1.1490    0.0740 hc        1 0F5      0.053200
     32 H21         3.0460   -0.3440    7.6380 h1        1 0F5      0.092700
     33 H22         4.2710    0.0840    9.8070 hc        1 0F5      0.076700
     34 H22A        2.6950    0.4010   10.6430 hc        1 0F5      0.076700
     35 H24         1.0020   -1.4840   10.8470 hx        1 0F5      0.110700
     36 H26         0.5770    0.2170    7.5070 hc        1 0F5      0.076700
     37 H26A        0.5410    0.4840    9.2990 hc        1 0F5      0.076700
     38 HN16        1.4730   -0.2970   -4.1920 hn        1 0F5      0.357500
     39 H11         3.7090    1.8360    2.2350 ha        1 0F5      0.134000
     40 H08        -0.1890   -1.2800    2.3620 ha        1 0F5      0.135000
     41 H09         0.3540    0.1110    4.3580 ha        1 0F5      0.129000
     42 H01         2.7230    3.7130    3.3720 h4        1 0F5      0.044100
     43 H06         3.2790    4.2350    7.4680 h4        1 0F5      0.041100
     44 HN28        2.4840    2.2940    8.8620 hn        1 0F5      0.405800
     45 H23         3.4700   -1.9440   10.9730 hc        1 0F5      0.069700
     46 H23A        3.5410   -2.1970    9.1730 hc        1 0F5      0.069700
     47 HN27        1.7400   -3.7570   11.1060 hn        1 0F5      0.458133
     48 HN2A        1.7620   -4.0160    9.4590 hn        1 0F5      0.458133
     49 H25         1.3290   -2.1160    7.8040 hc        1 0F5      0.069700
     50 H25A       -0.2330   -1.8020    8.6810 hc        1 0F5      0.069700
     51 HS18        3.5700    2.7610   -2.1050 hs        1 0F5      0.219000
     52 H273        0.3170   -3.7020   10.2280 hn        1 0F5      0.458133
@<TRIPOS>BOND
     1    1   14 ar  
     2    1   16 ar  
     3    1   29 1   
     4    2   13 1   
     5    2   14 1   
     6    2   30 1   
     7    2   31 1   
     8    3    9 2   
     9    3   10 1   
    10    3   13 1   
    11    4   10 1   
    12    4   11 2   
    13    4   12 1   
    14    5    6 1   
    15    5    8 1   
    16    5   25 1   
    17    5   32 1   
    18    6   26 1   
    19    6   33 1   
    20    6   34 1   
    21    7   26 1   
    22    7   27 1   
    23    7   28 1   
    24    7   35 1   
    25    8   28 1   
    26    8   36 1   
    27    8   37 1   
    28   10   38 1   
    29   12   13 2   
    30   12   51 1   
    31   14   15 ar  
    32   15   18 ar  
    33   15   39 1   
    34   16   17 ar  
    35   16   40 1   
    36   17   18 ar  
    37   17   41 1   
    38   18   19 1   
    39   19   20 ar  
    40   19   21 ar  
    41   20   24 ar  
    42   21   22 ar  
    43   21   42 1   
    44   22   23 ar  
    45   23   24 ar  
    46   23   43 1   
    47   24   25 1   
    48   25   44 1   
    49   26   45 1   
    50   26   46 1   
    51   27   47 1   
    52   27   48 1   
    53   27   52 1   
    54   28   49 1   
    55   28   50 1   
@<TRIPOS>SUBSTRUCTURE
     1 0F5         1 TEMP              0 ****  ****    0 ROOT
