@<TRIPOS>MOLECULE
0F5
   52    55     1     0     0
SMALL
bcc


@<TRIPOS>ATOM
      1 C10         1.5140   -0.5240    1.1790 ca        1 0F5     -0.094000
      2 C13         3.3900    0.5610   -0.0760 c3        1 0F5      0.088100
      3 C15         2.2100   -0.1980   -2.1700 c         1 0F5      0.755700
      4 C17         1.7830    1.6970   -3.5170 c         1 0F5      0.860400
      5 C21         2.5380    0.2710    8.4540 c3        1 0F5      0.202500
      6 C22         3.1830   -0.1240    9.7960 c3        1 0F5     -0.100900
      7 C24         1.6720   -2.0980    9.9600 c3        1 0F5      0.116500
      8 C26         1.0700   -0.1960    8.4720 c3        1 0F5     -0.100900
      9 O19         2.2150   -1.4190   -1.9720 o         1 0F5     -0.597500
     10 N16         1.7370    0.3260   -3.4250 n         1 0F5     -0.599500
     11 O20         1.4750    2.3970   -4.4830 o         1 0F5     -0.533500
     12 S18         2.2570    2.3340   -1.8350 sx        1 0F5      0.345100
     13 C14         2.6290    0.8820   -1.2940 ce        1 0F5     -0.908400
     14 C12         2.5380    0.4320    1.1450 ca        1 0F5     -0.072300
     15 C11         2.7760    1.2270    2.2690 ca        1 0F5     -0.118000
     16 C08         0.7360   -0.6780    2.3240 ca        1 0F5     -0.139000
     17 C09         0.9770    0.1100    3.4500 ca        1 0F5     -0.105000
     18 C07         1.9980    1.0660    3.4240 cp        1 0F5     -0.163500
     19 C03         2.2650    1.9120    4.5970 cp        1 0F5      0.397500
     20 N02         2.2920    1.3520    5.8310 nb        1 0F5     -0.700000
     21 C01         2.4840    3.3090    4.4120 ca        1 0F5      0.262900
     22 N05         2.7210    4.1380    5.4460 nb        1 0F5     -0.595000
     23 C06         2.7590    3.5960    6.6710 ca        1 0F5      0.258900
     24 C04         2.5590    2.1840    6.8840 ca        1 0F5      0.497900
     25 N28         2.7290    1.6820    8.1950 nh        1 0F5     -0.817900
     26 C23         3.1300   -1.6280    9.9790 c3        1 0F5     -0.097900
     27 N27         1.5870   -3.5890   10.1750 n4        1 0F5     -0.843600
     28 C25         0.9930   -1.6980    8.6470 c3        1 0F5     -0.097900
     29 H10         1.3380   -1.1520    0.2890 ha        1 0F5      0.165000
     30 H13         4.1790    1.3460    0.0920 hc        1 0F5      0.053700
     31 H13A        3.9260   -0.4210   -0.2240 hc        1 0F5      0.053700
     32 H21         3.0760   -0.3000    7.6360 h1        1 0F5      0.092700
     33 H22         2.6610    0.3860   10.6460 hc        1 0F5      0.076700
     34 H22A        4.2580    0.2000    9.8130 hc        1 0F5      0.076700
     35 H24         1.1170   -1.6250   10.8270 hx        1 0F5      0.110700
     36 H26         0.5110    0.3170    9.2960 hc        1 0F5      0.076700
     37 H26A        0.5720    0.0720    7.5020 hc        1 0F5      0.076700
     38 HN16        1.5380   -0.2670   -4.1980 hn        1 0F5      0.357500
     39 H11         3.5860    1.9720    2.2560 ha        1 0F5      0.134000
     40 H08        -0.0710   -1.4250    2.3410 ha        1 0F5      0.135000
     41 H09         0.3610   -0.0170    4.3510 ha        1 0F5      0.129000
     42 H01         2.4570    3.7610    3.4060 h4        1 0F5      0.044100
     43 H06         2.9610    4.2840    7.5090 h4        1 0F5      0.041100
     44 HN28        2.3100    2.2760    8.8820 hn        1 0F5      0.405800
     45 H23         3.6130   -1.8950   10.9560 hc        1 0F5      0.069700
     46 H23A        3.7080   -2.1240    9.1550 hc        1 0F5      0.069700
     47 HN27        0.6060   -3.8820   10.1830 hn        1 0F5      0.458133
     48 HN2A        2.0260   -3.8370   11.0660 hn        1 0F5      0.458133
     49 H25        -0.0840   -2.0140    8.6540 hc        1 0F5      0.069700
     50 H25A        1.4990   -2.1990    7.7790 hc        1 0F5      0.069700
     51 HS18        3.3930    2.9220   -2.0760 hs        1 0F5      0.219000
     52 H273        2.0730   -4.0770    9.4160 hn        1 0F5      0.458133
@<TRIPOS>BOND
     1    1   14 ar  
     2    1   16 ar  
     3    1   29 1   
     4    2   13 1   
     5    2   14 1   
     6    2   30 1   
     7    2   31 1   
     8    3    9 2   
     9    3   10 1   
    10    3   13 1   
    11    4   10 1   
    12    4   11 2   
    13    4   12 1   
    14    5    6 1   
    15    5    8 1   
    16    5   25 1   
    17    5   32 1   
    18    6   26 1   
    19    6   33 1   
    20    6   34 1   
    21    7   26 1   
    22    7   27 1   
    23    7   28 1   
    24    7   35 1   
    25    8   28 1   
    26    8   36 1   
    27    8   37 1   
    28   10   38 1   
    29   12   13 2   
    30   12   51 1   
    31   14   15 ar  
    32   15   18 ar  
    33   15   39 1   
    34   16   17 ar  
    35   16   40 1   
    36   17   18 ar  
    37   17   41 1   
    38   18   19 1   
    39   19   20 ar  
    40   19   21 ar  
    41   20   24 ar  
    42   21   22 ar  
    43   21   42 1   
    44   22   23 ar  
    45   23   24 ar  
    46   23   43 1   
    47   24   25 1   
    48   25   44 1   
    49   26   45 1   
    50   26   46 1   
    51   27   47 1   
    52   27   48 1   
    53   27   52 1   
    54   28   49 1   
    55   28   50 1   
@<TRIPOS>SUBSTRUCTURE
     1 0F5         1 TEMP              0 ****  ****    0 ROOT
