@<TRIPOS>MOLECULE
0F5
   53    56     1     0     0
SMALL
bcc


@<TRIPOS>ATOM
      1 C10         1.1670   -0.5480    0.9450 ca        1 0F5     -0.057000
      2 C13         2.7040    0.6170   -0.6590 c3        1 0F5      0.090100
      3 C15         0.6970    0.6160   -2.1780 c         1 0F5      0.755700
      4 C17         0.3550    2.8080   -2.9950 c         1 0F5      0.883400
      5 C21         2.7710    0.1930    8.4630 c3        1 0F5      0.126500
      6 C22         2.9960    0.2150    9.9810 c3        1 0F5     -0.104400
      7 C24         1.0130   -1.2710   10.3060 c3        1 0F5      0.112500
      8 C26         1.2760    0.0020    8.1720 c3        1 0F5     -0.104400
      9 O19         0.4320   -0.5920   -2.1520 o         1 0F5     -0.600500
     10 N16        -0.0290    1.4910   -3.0590 n         1 0F5     -0.592500
     11 O20        -0.0700    3.7630   -3.6420 o         1 0F5     -0.510500
     12 S18         1.5860    2.9440   -1.5930 sx        1 0F5      0.302100
     13 C14         1.6800    1.3570   -1.4090 ce        1 0F5     -0.920400
     14 C12         2.3000    0.2520    0.7350 ca        1 0F5     -0.053300
     15 C11         3.0690    0.6520    1.8290 ca        1 0F5     -0.105000
     16 C08         0.8040   -0.9290    2.2350 ca        1 0F5     -0.135000
     17 C09         1.5710   -0.5320    3.3290 ca        1 0F5     -0.089000
     18 C07         2.7170    0.2500    3.1300 cp        1 0F5     -0.214500
     19 C03         3.5620    0.6390    4.2590 cp        1 0F5      0.445500
     20 N02         3.0280    0.8370    5.4830 nb        1 0F5     -0.660000
     21 C01         4.9900    0.7990    4.0600 ca        1 0F5      0.352900
     22 N05         5.8180    1.1520    5.0430 nb        1 0F5     -0.581000
     23 C06         5.2860    1.3620    6.2730 ca        1 0F5      0.327900
     24 C04         3.8950    1.1970    6.4790 ca        1 0F5      0.309900
     25 N28         3.3130    1.4460    7.8160 n4        1 0F5     -0.732700
     26 C23         2.5050   -1.0780   10.6020 c3        1 0F5     -0.102400
     27 N27         0.4820   -2.5180   10.9570 n4        1 0F5     -0.839600
     28 C25         0.7840   -1.2910    8.7890 c3        1 0F5     -0.102400
     29 H10         0.5710   -0.8770    0.0720 ha        1 0F5      0.191000
     30 H13         3.6570    1.2160   -0.6300 hc        1 0F5      0.057200
     31 H13A        2.9340   -0.3470   -1.2010 hc        1 0F5      0.057200
     32 H21         3.3470   -0.6750    8.0170 hx        1 0F5      0.123700
     33 H22         2.4580    1.0870   10.4430 hc        1 0F5      0.095700
     34 H22A        4.0900    0.3210   10.2190 hc        1 0F5      0.095700
     35 H24         0.4290   -0.4100   10.7590 hx        1 0F5      0.121700
     36 H26         0.6880    0.8680    8.5780 hc        1 0F5      0.095700
     37 H26A        1.0910   -0.0450    7.0620 hc        1 0F5      0.095700
     38 HN16       -0.6460    1.1380   -3.7560 hn        1 0F5      0.366500
     39 H11         3.9500    1.2920    1.6660 ha        1 0F5      0.133000
     40 H08        -0.0900   -1.5540    2.3890 ha        1 0F5      0.151000
     41 H09         1.2780   -0.8490    4.3400 ha        1 0F5      0.119000
     42 H01         5.4430    0.6130    3.0640 h4        1 0F5      0.086100
     43 H06         6.0000    1.6630    7.0610 h4        1 0F5      0.060100
     44 HN28        2.5550    2.1390    7.7270 hn        1 0F5      0.466300
     45 H23         3.0980   -1.9420   10.1960 hc        1 0F5      0.090950
     46 H23A        2.6850   -1.0290   11.7110 hc        1 0F5      0.090950
     47 HN27        0.6260   -2.4700   11.9720 hn        1 0F5      0.471133
     48 HN2A       -0.5220   -2.6110   10.7630 hn        1 0F5      0.471133
     49 H25        -0.3110   -1.3990    8.5570 hc        1 0F5      0.090950
     50 H25A        1.3210   -2.1620    8.3260 hc        1 0F5      0.090950
     51 HS18        2.6640    3.2820   -2.2430 hs        1 0F5      0.238000
     52 H282        4.0530    1.8430    8.4080 hn        1 0F5      0.466300
     53 H273        0.9660   -3.3460   10.5920 hn        1 0F5      0.471133
@<TRIPOS>BOND
     1    1   14 ar  
     2    1   16 ar  
     3    1   29 1   
     4    2   13 1   
     5    2   14 1   
     6    2   30 1   
     7    2   31 1   
     8    3    9 2   
     9    3   10 1   
    10    3   13 1   
    11    4   10 1   
    12    4   11 2   
    13    4   12 1   
    14    5    6 1   
    15    5    8 1   
    16    5   25 1   
    17    5   32 1   
    18    6   26 1   
    19    6   33 1   
    20    6   34 1   
    21    7   26 1   
    22    7   27 1   
    23    7   28 1   
    24    7   35 1   
    25    8   28 1   
    26    8   36 1   
    27    8   37 1   
    28   10   38 1   
    29   12   13 2   
    30   12   51 1   
    31   14   15 ar  
    32   15   18 ar  
    33   15   39 1   
    34   16   17 ar  
    35   16   40 1   
    36   17   18 ar  
    37   17   41 1   
    38   18   19 1   
    39   19   20 ar  
    40   19   21 ar  
    41   20   24 ar  
    42   21   22 ar  
    43   21   42 1   
    44   22   23 ar  
    45   23   24 ar  
    46   23   43 1   
    47   24   25 1   
    48   25   44 1   
    49   25   52 1   
    50   26   45 1   
    51   26   46 1   
    52   27   47 1   
    53   27   48 1   
    54   27   53 1   
    55   28   49 1   
    56   28   50 1   
@<TRIPOS>SUBSTRUCTURE
     1 0F5         1 TEMP              0 ****  ****    0 ROOT
