@<TRIPOS>MOLECULE
0F7
   71    68     1     0     0
SMALL
bcc


@<TRIPOS>ATOM
      1 C1         -2.2520   -1.9700    1.4770 c1        1 0F7      0.384000
      2 O1         -2.6840   -1.5440    0.4230 o         1 0F7     -0.396000
      3 O2         -3.0350   -2.8550    2.2580 o         1 0F7     -0.282000
      4 C2         -3.6960   -3.8600    1.5010 c3        1 0F7      0.031000
      5 C3         -5.1240   -4.0160    2.0040 c2        1 0F7     -0.105000
      6 C4         -6.1850   -3.9270    1.1160 c1        1 0F7     -0.113000
      7 C5         -7.4890   -4.0590    1.5770 c1        1 0F7     -0.132500
      8 C6         -7.7300   -4.2810    2.9260 c1        1 0F7     -0.132500
      9 C7         -6.6690   -4.3710    3.8140 c1        1 0F7     -0.135000
     10 C8         -5.3640   -4.2380    3.3530 c2        1 0F7     -0.105000
     11 N          -0.9350   -1.5990    1.9160 n3        1 0F7     -0.309000
     12 CA         -0.4770   -0.2580    1.7430 c3        1 0F7     -0.003000
     13 C           0.5040   -0.2030    0.5860 c2        1 0F7      0.268000
     14 O           1.3910   -1.0320    0.5010 o         1 0F7     -0.377000
     15 CB          0.2040    0.2050    3.0020 c3        1 0F7     -0.100000
     16 CG1        -0.4910   -0.4070    4.2080 c3        1 0F7     -0.158000
     17 CG2         0.1310    1.7110    3.0900 c3        1 0F7     -0.226000
     18 CD1         0.3450   -0.1610    5.4510 c3        1 0F7     -0.208000
     19 N1          0.4120    0.8530   -0.3840 n         1 0F7     -0.324000
     20 CA1         1.1460    0.7660   -1.6060 c3        1 0F7     -0.011000
     21 C9          1.9390    2.0370   -1.8090 c2        1 0F7      0.277000
     22 O3          1.3620    3.0810   -2.0590 o         1 0F7     -0.407000
     23 CB1         0.1870    0.5820   -2.7580 c3        1 0F7     -0.156000
     24 CG          0.9390    0.0360   -3.9610 c3        1 0F7     -0.121000
     25 CD11        0.3920    0.6650   -5.2250 c3        1 0F7     -0.210000
     26 CD2         0.7620   -1.4660   -4.0260 c3        1 0F7     -0.210000
     27 N2          3.3590    2.0220   -1.6690 n         1 0F7     -0.331000
     28 CA2         4.1400    3.0710   -2.2260 c3        1 0F7     -0.044000
     29 CC          5.5240    2.5500   -2.5580 c2        1 0F7      0.164000
     30 O4          6.2420    2.1260   -1.6730 o         1 0F7     -0.326000
     31 CB2         4.2530    4.2010   -1.2260 c3        1 0F7     -0.209000
     32 CG3         5.0350    5.3480   -1.8440 c3        1 0F7      0.223000
     33 F1          4.5910    5.5740   -3.0830 f         1 0F7     -0.178500
     34 F2          6.3410    5.0280   -1.8870 f         1 0F7     -0.178500
     35 CD          6.0180    2.5780   -3.9800 c2        1 0F7      0.324000
     36 OE1         6.0810    3.6650   -4.6000 o         1 0F7     -0.539500
     37 OE2         6.4310    1.5150   -4.5260 o         1 0F7     -0.539500
     38 H21        -3.7090   -3.6010    0.5570 h1        1 0F7      0.115500
     39 H22        -3.2190   -4.7120    1.6010 h1        1 0F7      0.115500
     40 H41        -6.0130   -3.8250    0.1580 ha        1 0F7      0.135000
     41 H51        -8.2390   -3.9960    0.9500 ha        1 0F7      0.127000
     42 H61        -8.6480   -4.3740    3.2510 ha        1 0F7      0.127000
     43 H71        -6.8400   -4.4990    4.7670 ha        1 0F7      0.129000
     44 H81        -4.6140   -4.3010    3.9810 ha        1 0F7      0.145000
     45 H          -0.3820   -2.2260    2.2760 hn        1 0F7      0.244000
     46 HA         -1.2390    0.3250    1.5520 h1        1 0F7      0.138000
     47 HB          1.1410   -0.0750    2.9880 hc        1 0F7      0.104000
     48 HG12       -1.3710    0.0040    4.3200 hc        1 0F7      0.085500
     49 HG13       -0.5950   -1.3690    4.0700 hc        1 0F7      0.085500
     50 HG21        1.0380    2.0850    3.0540 hc        1 0F7      0.091333
     51 HG22       -0.3930    2.0550    2.3410 hc        1 0F7      0.091333
     52 HG23       -0.2970    1.9690    3.9350 hc        1 0F7      0.091333
     53 HD11        0.0910    0.6990    5.8510 hc        1 0F7      0.070333
     54 HD12        1.2940   -0.1410    5.2090 hc        1 0F7      0.070333
     55 HD13        0.1880   -0.8810    6.0990 hc        1 0F7      0.070333
     56 H1         -0.1600    1.5480   -0.2460 hn        1 0F7      0.231000
     57 HA1         1.7590    0.0020   -1.5660 h1        1 0F7      0.145000
     58 HB2        -0.2160    1.4430   -2.9880 hc        1 0F7      0.096000
     59 HB3        -0.5120   -0.0460   -2.5000 hc        1 0F7      0.096000
     60 HG          1.8860    0.2490   -3.8750 hc        1 0F7      0.138000
     61 HD14        0.6490    1.6120   -5.2580 hc        1 0F7      0.073333
     62 HD15        0.7620    0.1960   -6.0130 hc        1 0F7      0.073333
     63 HD16       -0.5920    0.5910   -5.2310 hc        1 0F7      0.073333
     64 HD21       -0.1880   -1.6780   -4.1260 hc        1 0F7      0.073333
     65 HD22        1.2560   -1.8190   -4.7880 hc        1 0F7      0.073333
     66 HD23        1.0980   -1.8680   -3.2080 hc        1 0F7      0.073333
     67 H11         3.7680    1.3230   -1.2540 hn        1 0F7      0.261000
     68 HA2         3.7120    3.3990   -3.0400 h1        1 0F7      0.143000
     69 HB21        3.3570    4.5110   -0.9820 hc        1 0F7      0.118500
     70 HB1         4.7180    3.8830   -0.4250 hc        1 0F7      0.118500
     71 HG1         4.9150    6.1510   -1.3040 h2        1 0F7      0.076000
@<TRIPOS>BOND
     1    1    2 1   
     2    1   11 1   
     3    3    4 1   
     4    4    5 1   
     5    4   38 1   
     6    4   39 1   
     7    5    6 1   
     8    5   10 1   
     9    6   40 1   
    10    7    8 1   
    11    7   41 1   
    12    8   42 1   
    13    9   10 1   
    14    9   43 1   
    15   10   44 1   
    16   11   12 1   
    17   11   45 1   
    18   12   13 1   
    19   12   15 1   
    20   12   46 1   
    21   13   14 1   
    22   13   19 1   
    23   15   16 1   
    24   15   17 1   
    25   15   47 1   
    26   16   18 1   
    27   16   48 1   
    28   16   49 1   
    29   17   50 1   
    30   17   51 1   
    31   17   52 1   
    32   18   53 1   
    33   18   54 1   
    34   18   55 1   
    35   19   20 1   
    36   19   56 1   
    37   20   21 1   
    38   20   23 1   
    39   20   57 1   
    40   21   22 1   
    41   21   27 1   
    42   23   24 1   
    43   23   58 1   
    44   23   59 1   
    45   24   25 1   
    46   24   26 1   
    47   24   60 1   
    48   25   61 1   
    49   25   62 1   
    50   25   63 1   
    51   26   64 1   
    52   26   65 1   
    53   26   66 1   
    54   27   28 1   
    55   27   67 1   
    56   28   29 1   
    57   28   31 1   
    58   28   68 1   
    59   29   30 1   
    60   29   35 1   
    61   31   32 1   
    62   31   69 1   
    63   31   70 1   
    64   32   33 1   
    65   32   34 1   
    66   32   71 1   
    67   35   36 1   
    68   35   37 1   
@<TRIPOS>SUBSTRUCTURE
     1 0F7         1 TEMP              0 ****  ****    0 ROOT
