@<TRIPOS>MOLECULE
0F7
   71    71     1     0     0
SMALL
bcc


@<TRIPOS>ATOM
      1 C1          4.1860    0.3030    0.9310 c         1 0F7      0.728100
      2 O1          4.2900   -0.0250    2.1250 o         1 0F7     -0.590000
      3 O2          5.2290    0.0030    0.0730 os        1 0F7     -0.439900
      4 C2          6.3610   -0.6240    0.7020 c3        1 0F7      0.194700
      5 C3          7.4100   -0.8420   -0.3360 ca        1 0F7     -0.089300
      6 C4          7.4300   -0.1200   -1.5330 ca        1 0F7     -0.114500
      7 C5          8.4460   -0.3400   -2.4640 ca        1 0F7     -0.132000
      8 C6          9.4450   -1.2760   -2.2030 ca        1 0F7     -0.131000
      9 C7          9.4270   -1.9980   -1.0090 ca        1 0F7     -0.132000
     10 C8          8.4120   -1.7860   -0.0790 ca        1 0F7     -0.114500
     11 N           3.1830    1.0380    0.3180 n         1 0F7     -0.485900
     12 CA          1.8760    1.0800    0.9400 c3        1 0F7      0.023700
     13 C           0.9070    0.0360    0.3190 c         1 0F7      0.632100
     14 O           1.1370   -0.4810   -0.7940 o         1 0F7     -0.620100
     15 CB          1.2310    2.4880    0.8860 c3        1 0F7     -0.060700
     16 CG1         1.4210    3.2510   -0.4160 c3        1 0F7     -0.073400
     17 CG2         1.7740    3.3170    2.0360 c3        1 0F7     -0.095100
     18 CD1         0.6950    2.6390   -1.5850 c3        1 0F7     -0.116100
     19 N1         -0.1690   -0.3370    1.0930 n         1 0F7     -0.538900
     20 CA1        -1.2520   -1.1450    0.5740 c3        1 0F7      0.029700
     21 C9         -2.5750   -0.3280    0.6190 c         1 0F7      0.633100
     22 O3         -2.8630    0.3210    1.6510 o         1 0F7     -0.650100
     23 CB1        -1.4730   -2.4260    1.3990 c3        1 0F7     -0.085400
     24 CG         -2.2020   -3.4980    0.6010 c3        1 0F7     -0.072700
     25 CD11       -1.2590   -4.2190   -0.3410 c3        1 0F7     -0.090100
     26 CD2        -2.8530   -4.4870    1.5470 c3        1 0F7     -0.090100
     27 N2         -3.3550   -0.3180   -0.5020 n         1 0F7     -0.531900
     28 CA2        -4.7010    0.2190   -0.5190 c3        1 0F7     -0.025300
     29 CC         -5.6890   -0.6530   -1.3220 c         1 0F7      0.456100
     30 O4         -5.2850   -1.4700   -2.1520 o         1 0F7     -0.577100
     31 CB2        -4.7820    1.6360   -1.1010 c3        1 0F7     -0.144400
     32 CG3        -4.0030    2.6410   -0.2330 c3        1 0F7      0.386900
     33 F1         -2.7230    2.8730   -0.7000 f         1 0F7     -0.267300
     34 F2         -4.5470    3.9090   -0.2820 f         1 0F7     -0.267300
     35 CD         -7.1680   -0.3900   -0.9630 c         1 0F7      0.866600
     36 OE1        -7.7040   -1.2050   -0.1740 o         1 0F7     -0.793300
     37 OE2        -7.6910    0.6370   -1.4660 o         1 0F7     -0.793300
     38 H21         6.7400    0.0520    1.5160 h1        1 0F7      0.063700
     39 H22         6.0240   -1.5940    1.1570 h1        1 0F7      0.063700
     40 H41         6.6360    0.6150   -1.7400 ha        1 0F7      0.141000
     41 H51         8.4550    0.2270   -3.4060 ha        1 0F7      0.129500
     42 H61        10.2460   -1.4480   -2.9370 ha        1 0F7      0.127000
     43 H71        10.2120   -2.7390   -0.8020 ha        1 0F7      0.129500
     44 H81         8.3950   -2.3610    0.8590 ha        1 0F7      0.141000
     45 H           3.1710    1.0130   -0.6830 hn        1 0F7      0.329500
     46 HA          2.0140    0.8110    2.0350 h1        1 0F7      0.100700
     47 HB          0.1230    2.3510    1.0420 hc        1 0F7      0.070700
     48 HG12        1.0270    4.2930   -0.2570 hc        1 0F7      0.041200
     49 HG13        2.5120    3.3580   -0.6520 hc        1 0F7      0.041200
     50 HG21        2.8730    3.4740    1.9230 hc        1 0F7      0.039033
     51 HG22        1.2720    4.3150    2.0570 hc        1 0F7      0.039033
     52 HG23        1.5850    2.8100    3.0130 hc        1 0F7      0.039033
     53 HD11        0.8420    3.2690   -2.4960 hc        1 0F7      0.047033
     54 HD12        1.0740    1.6110   -1.8030 hc        1 0F7      0.047033
     55 HD13       -0.4030    2.5750   -1.3790 hc        1 0F7      0.047033
     56 H1         -0.3820    0.1860    1.9130 hn        1 0F7      0.326500
     57 HA1        -0.9920   -1.4340   -0.4890 h1        1 0F7      0.098700
     58 HB2        -0.4850   -2.8350    1.7390 hc        1 0F7      0.058200
     59 HB3        -2.0650   -2.1660    2.3160 hc        1 0F7      0.058200
     60 HG         -3.0160   -3.0140   -0.0110 hc        1 0F7      0.066700
     61 HD14       -1.8250   -4.9640   -0.9510 hc        1 0F7      0.034533
     62 HD15       -0.7620   -3.4990   -1.0340 hc        1 0F7      0.034533
     63 HD16       -0.4680   -4.7600    0.2330 hc        1 0F7      0.034533
     64 HD21       -3.6120   -3.9740    2.1850 hc        1 0F7      0.034533
     65 HD22       -3.3650   -5.2920    0.9660 hc        1 0F7      0.034533
     66 HD23       -2.0880   -4.9590    2.2100 hc        1 0F7      0.034533
     67 H11        -3.1180   -0.9080   -1.2690 hn        1 0F7      0.325500
     68 HA2        -5.0850    0.2470    0.5480 h1        1 0F7      0.098700
     69 HB21       -4.3870    1.6600   -2.1470 hc        1 0F7      0.101700
     70 HB1        -5.8700    1.9290   -1.1300 hc        1 0F7      0.101700
     71 HG1        -3.9530    2.2850    0.8430 h2        1 0F7      0.089700
@<TRIPOS>BOND
     1    1    2 2   
     2    1    3 1   
     3    1   11 1   
     4    3    4 1   
     5    4    5 1   
     6    4   38 1   
     7    4   39 1   
     8    5    6 ar  
     9    5   10 ar  
    10    6    7 ar  
    11    6   40 1   
    12    7    8 ar  
    13    7   41 1   
    14    8    9 ar  
    15    8   42 1   
    16    9   10 ar  
    17    9   43 1   
    18   10   44 1   
    19   11   12 1   
    20   11   45 1   
    21   12   13 1   
    22   12   15 1   
    23   12   46 1   
    24   13   14 2   
    25   13   19 1   
    26   15   16 1   
    27   15   17 1   
    28   15   47 1   
    29   16   18 1   
    30   16   48 1   
    31   16   49 1   
    32   17   50 1   
    33   17   51 1   
    34   17   52 1   
    35   18   53 1   
    36   18   54 1   
    37   18   55 1   
    38   19   20 1   
    39   19   56 1   
    40   20   21 1   
    41   20   23 1   
    42   20   57 1   
    43   21   22 2   
    44   21   27 1   
    45   23   24 1   
    46   23   58 1   
    47   23   59 1   
    48   24   25 1   
    49   24   26 1   
    50   24   60 1   
    51   25   61 1   
    52   25   62 1   
    53   25   63 1   
    54   26   64 1   
    55   26   65 1   
    56   26   66 1   
    57   27   28 1   
    58   27   67 1   
    59   28   29 1   
    60   28   31 1   
    61   28   68 1   
    62   29   30 2   
    63   29   35 1   
    64   31   32 1   
    65   31   69 1   
    66   31   70 1   
    67   32   33 1   
    68   32   34 1   
    69   32   71 1   
    70   35   36 1   
    71   35   37 1   
@<TRIPOS>SUBSTRUCTURE
     1 0F7         1 TEMP              0 ****  ****    0 ROOT
