@<TRIPOS>MOLECULE
0F9
   20    21     1     0     0
SMALL
bcc


@<TRIPOS>ATOM
      1 CAC         0.0080   -0.5090    0.0500 cc        1 0F9     -0.282300
      2 CAD         1.3780   -0.2310   -0.0130 cd        1 0F9     -0.153300
      3 NAE         1.6840    0.4860    1.1480 na        1 0F9     -0.019600
      4 NAF         0.6270    0.6750    1.9320 nd        1 0F9     -0.479800
      5 CAB        -0.4340    0.0790    1.3030 cc        1 0F9      0.353800
      6 CAA        -1.8000    0.0510    1.7960 ca        1 0F9     -0.126500
      7 CAK        -2.8450    0.3260    0.9050 ca        1 0F9     -0.079000
      8 CAJ        -4.1710    0.3070    1.3410 ca        1 0F9     -0.022600
      9 CL1        -5.4230    0.6440    0.2400 cl        1 0F9     -0.096400
     10 CAI        -4.4800    0.0170    2.6740 ca        1 0F9     -0.081000
     11 CAH        -3.4550   -0.2650    3.5690 ca        1 0F9     -0.214000
     12 CAG        -2.1180   -0.2530    3.1360 ca        1 0F9      0.151100
     13 OAM        -1.0850   -0.5580    3.9880 oh        1 0F9     -0.474100
     14 H1         -0.6050   -1.0490   -0.6610 ha        1 0F9      0.167000
     15 H2          2.1300   -0.4740   -0.7610 h4        1 0F9      0.176000
     16 H3          2.5730    0.8320    1.4210 hn        1 0F9      0.320700
     17 H4         -2.6060    0.5610   -0.1450 ha        1 0F9      0.154000
     18 H5         -5.5260    0.0080    3.0150 ha        1 0F9      0.148000
     19 H6         -3.6880   -0.4970    4.6180 ha        1 0F9      0.139000
     20 H7         -1.4580   -0.6910    4.8730 ho        1 0F9      0.418000
@<TRIPOS>BOND
     1    1    2 2   
     2    1    5 1   
     3    1   14 1   
     4    2    3 1   
     5    2   15 1   
     6    3    4 1   
     7    3   16 1   
     8    4    5 2   
     9    5    6 1   
    10    6    7 ar  
    11    6   12 ar  
    12    7    8 ar  
    13    7   17 1   
    14    8    9 1   
    15    8   10 ar  
    16   10   11 ar  
    17   10   18 1   
    18   11   12 ar  
    19   11   19 1   
    20   12   13 1   
    21   13   20 1   
@<TRIPOS>SUBSTRUCTURE
     1 0F9         1 TEMP              0 ****  ****    0 ROOT
