@<TRIPOS>MOLECULE
0F9
   20    21     1     0     0
SMALL
bcc


@<TRIPOS>ATOM
      1 CAC        -2.0140    1.5450   -0.4690 cc        1 0F9     -0.278300
      2 CAD        -3.3700    1.6800   -0.1460 cd        1 0F9     -0.145300
      3 NAE        -3.7100    0.5470    0.5970 na        1 0F9     -0.014600
      4 NAF        -2.6820   -0.2760    0.7770 nd        1 0F9     -0.520800
      5 CAB        -1.6110    0.2860    0.1320 cc        1 0F9      0.348800
      6 CAA        -0.2630   -0.2550    0.0930 ca        1 0F9     -0.188500
      7 CAK         0.8060    0.6350    0.2830 ca        1 0F9     -0.074000
      8 CAJ         2.1200    0.1760    0.2540 ca        1 0F9     -0.024600
      9 CL1         3.4020    1.2700    0.4860 cl        1 0F9     -0.097400
     10 CAI         2.3980   -1.1810    0.0380 ca        1 0F9     -0.085000
     11 CAH         1.3550   -2.0730   -0.1560 ca        1 0F9     -0.158000
     12 CAG         0.0210   -1.6150   -0.1310 ca        1 0F9      0.161100
     13 OAM        -0.9190   -2.5880   -0.3470 oh        1 0F9     -0.494100
     14 H1         -1.3880    2.2150   -1.0460 ha        1 0F9      0.172000
     15 H2         -4.0920    2.4610   -0.3790 h4        1 0F9      0.180000
     16 H3         -4.5900    0.3400    1.0100 hn        1 0F9      0.324700
     17 H4          0.5910    1.7020    0.4590 ha        1 0F9      0.151000
     18 H5          3.4390   -1.5390    0.0210 ha        1 0F9      0.150000
     19 H6          1.5470   -3.1420   -0.3300 ha        1 0F9      0.156000
     20 H7         -1.7980   -2.1850   -0.3740 ho        1 0F9      0.438000
@<TRIPOS>BOND
     1    1    2 2   
     2    1    5 1   
     3    1   14 1   
     4    2    3 1   
     5    2   15 1   
     6    3    4 1   
     7    3   16 1   
     8    4    5 2   
     9    5    6 1   
    10    6    7 ar  
    11    6   12 ar  
    12    7    8 ar  
    13    7   17 1   
    14    8    9 1   
    15    8   10 ar  
    16   10   11 ar  
    17   10   18 1   
    18   11   12 ar  
    19   11   19 1   
    20   12   13 1   
    21   13   20 1   
@<TRIPOS>SUBSTRUCTURE
     1 0F9         1 TEMP              0 ****  ****    0 ROOT
