@<TRIPOS>MOLECULE
0F9
   20    13     1     0     0
SMALL
bcc


@<TRIPOS>ATOM
      1 CAC         1.8630   -1.0600   -0.8040 c1        1 0F9     -0.217000
      2 CAD         3.1020   -0.6340   -1.1880 c1        1 0F9      0.114900
      3 NAE         3.1260    0.7120   -1.0980 ne        1 0F9     -0.325900
      4 NAF         1.8970    1.1310   -0.6560 ne        1 0F9     -0.325900
      5 CAB         1.1240    0.0400   -0.4760 c1        1 0F9      0.114900
      6 CAA        -0.3200    0.0380   -0.0220 c1        1 0F9      0.043500
      7 CAK        -1.3400    0.0560   -0.9590 c1        1 0F9     -0.089000
      8 CAJ        -2.6620    0.1100   -0.5440 c1        1 0F9     -0.011100
      9 CL1        -3.9440    0.1760   -1.7240 cl        1 0F9     -0.107900
     10 CAI        -2.9620    0.1460    0.8080 c1        1 0F9     -0.023500
     11 CAH        -1.9420    0.1280    1.7460 c1        1 0F9     -0.089000
     12 CAG        -0.6200    0.0740    1.3310 c1        1 0F9      0.043500
     13 OAM         0.4160    0.0700    2.2820 o         1 0F9     -0.228000
     14 H1          1.5600   -1.9870   -0.7690 DU        1 0F9      0.204667
     15 H2          3.8400   -1.2040   -1.4770 DU        1 0F9      0.204667
     16 H3          3.8360    1.2490   -1.2970 DU        1 0F9      0.204667
     17 H4         -1.1290    0.0100   -1.9110 ha        1 0F9      0.089000
     18 H5         -3.8930    0.1840    1.1010 ha        1 0F9      0.090500
     19 H6         -2.1530    0.1530    2.6980 ha        1 0F9      0.089000
     20 H7          0.2010    0.6070    2.9580 ho        1 0F9      0.217000
@<TRIPOS>BOND
     1    1    2 2   
     2    1    5 2   
     3    2    3 2   
     4    3    4 1   
     5    4    5 2   
     6    6    7 3   
     7    7   17 1   
     8    8    9 1   
     9    8   10 3   
    10   10   18 1   
    11   11   12 3   
    12   11   19 1   
    13   13   20 1   
@<TRIPOS>SUBSTRUCTURE
     1 0F9         1 TEMP              0 ****  ****    0 ROOT
