@<TRIPOS>MOLECULE
0F9
   20    21     1     0     0
SMALL
bcc


@<TRIPOS>ATOM
      1 CAC         0.0080   -0.4540    0.0350 cc        1 0F9     -0.282300
      2 CAD         1.3800   -0.1820   -0.0150 cd        1 0F9     -0.153300
      3 NAE         1.6880    0.4870    1.1730 na        1 0F9     -0.019600
      4 NAF         0.6310    0.6530    1.9620 nd        1 0F9     -0.479800
      5 CAB        -0.4330    0.0880    1.3090 cc        1 0F9      0.353800
      6 CAA        -1.7990    0.0500    1.7980 ca        1 0F9     -0.126500
      7 CAK        -2.8410    0.3640    0.9170 ca        1 0F9     -0.079000
      8 CAJ        -4.1680    0.3370    1.3500 ca        1 0F9     -0.022600
      9 CL1        -5.4160    0.7230    0.2610 cl        1 0F9     -0.096400
     10 CAI        -4.4810   -0.0020    2.6700 ca        1 0F9     -0.081000
     11 CAH        -3.4590   -0.3230    3.5560 ca        1 0F9     -0.214000
     12 CAG        -2.1220   -0.3030    3.1260 ca        1 0F9      0.151100
     13 OAM        -1.0920   -0.6470    3.9670 oh        1 0F9     -0.474100
     14 H1         -0.6070   -0.9630   -0.6980 ha        1 0F9      0.167000
     15 H2          2.1310   -0.4010   -0.7710 h4        1 0F9      0.176000
     16 H3          2.5790    0.8170    1.4610 hn        1 0F9      0.320700
     17 H4         -2.5990    0.6380   -0.1230 ha        1 0F9      0.154000
     18 H5         -5.5280   -0.0170    3.0090 ha        1 0F9      0.148000
     19 H6         -3.6970   -0.5940    4.5950 ha        1 0F9      0.139000
     20 H7         -1.4680   -0.8100    4.8460 ho        1 0F9      0.418000
@<TRIPOS>BOND
     1    1    2 2   
     2    1    5 1   
     3    1   14 1   
     4    2    3 1   
     5    2   15 1   
     6    3    4 1   
     7    3   16 1   
     8    4    5 2   
     9    5    6 1   
    10    6    7 ar  
    11    6   12 ar  
    12    7    8 ar  
    13    7   17 1   
    14    8    9 1   
    15    8   10 ar  
    16   10   11 ar  
    17   10   18 1   
    18   11   12 ar  
    19   11   19 1   
    20   12   13 1   
    21   13   20 1   
@<TRIPOS>SUBSTRUCTURE
     1 0F9         1 TEMP              0 ****  ****    0 ROOT
