@<TRIPOS>MOLECULE
0FA
   26    24     1     0     0
SMALL
bcc


@<TRIPOS>ATOM
      1 C          -2.0490    0.2640   -0.5110 c1        1 0FA      0.241000
      2 N          -0.0630    1.4240   -1.1800 n3        1 0FA     -0.828000
      3 O          -2.6560    1.2390   -0.1150 o         1 0FA     -0.524000
      4 P          -0.2040    1.5450   -2.8220 p5        1 0FA      1.597500
      5 N1         -2.7580   -0.8760   -0.9690 n2        1 0FA     -0.433000
      6 O1         -1.5960    2.0130   -3.1740 o         1 0FA     -0.935167
      7 O2          0.0470    0.1950   -3.4500 o         1 0FA     -0.935167
      8 O3          0.8080    2.5380   -3.3420 o         1 0FA     -0.935167
      9 CA         -0.5360    0.2640   -0.5110 c3        1 0FA      0.054000
     10 CB         -0.0320    0.2640    0.9150 c3        1 0FA     -0.149000
     11 CG          1.1450   -0.6790    1.0340 c3        1 0FA     -0.100000
     12 CD1         0.7710   -1.8420    1.9270 c3        1 0FA     -0.215500
     13 CD2         2.3230    0.0580    1.6320 c3        1 0FA     -0.215500
     14 HN          0.2900    2.1150   -0.7010 hn        1 0FA      0.158000
     15 HN1        -2.3080   -1.5670   -1.3590 hn        1 0FA      0.236500
     16 HN1A       -3.6620   -0.9240   -0.8600 hn        1 0FA      0.236500
     17 HA         -0.2110   -0.5330   -0.9710 h1        1 0FA      0.139000
     18 HB         -0.7460   -0.0290    1.5120 hc        1 0FA      0.058000
     19 HBA         0.2480    1.1670    1.1610 hc        1 0FA      0.058000
     20 HG          1.3850   -1.0130    0.1480 hc        1 0FA      0.112000
     21 HD1         1.5490   -2.4170    2.0540 hc        1 0FA      0.063667
     22 HD1A        0.4710   -1.5040    2.7920 hc        1 0FA      0.063667
     23 HD1B        0.0520   -2.3540    1.5100 hc        1 0FA      0.063667
     24 HD2         2.6200    0.7530    1.0140 hc        1 0FA      0.063667
     25 HD2A        3.0530   -0.5700    1.7900 hc        1 0FA      0.063667
     26 HD2B        2.0560    0.4670    2.4770 hc        1 0FA      0.063667
@<TRIPOS>BOND
     1    1    3 1   
     2    1    9 1   
     3    2    4 1   
     4    2    9 1   
     5    2   14 1   
     6    4    6 1   
     7    4    7 1   
     8    4    8 1   
     9    5   15 1   
    10    5   16 1   
    11    9   10 1   
    12    9   17 1   
    13   10   11 1   
    14   10   18 1   
    15   10   19 1   
    16   11   12 1   
    17   11   13 1   
    18   11   20 1   
    19   12   21 1   
    20   12   22 1   
    21   12   23 1   
    22   13   24 1   
    23   13   25 1   
    24   13   26 1   
@<TRIPOS>SUBSTRUCTURE
     1 0FA         1 TEMP              0 ****  ****    0 ROOT
