@<TRIPOS>MOLECULE
0FA
   26    25     1     0     0
SMALL
bcc


@<TRIPOS>ATOM
      1 C           0.6460   -2.2550    0.0260 c         1 0FA      0.597100
      2 N          -0.3650   -0.0210    0.4250 n3        1 0FA     -0.896300
      3 O           1.5050   -2.9740    0.6100 o         1 0FA     -0.763100
      4 P          -1.5260    0.5470   -0.6760 p5        1 0FA      1.302800
      5 N1         -0.4260   -2.8200   -0.5990 n         1 0FA     -0.673000
      6 O1         -0.7120    1.2260   -1.7670 o         1 0FA     -0.935167
      7 O2         -2.2190   -0.7230   -1.1810 o         1 0FA     -0.935167
      8 O3         -2.4270    1.4490    0.1390 o         1 0FA     -0.935167
      9 CA          0.7570   -0.6950   -0.0800 c3        1 0FA      0.201500
     10 CB          2.1230   -0.3170    0.5240 c3        1 0FA     -0.070400
     11 CG          2.4550    1.1570    0.3570 c3        1 0FA     -0.060700
     12 CD1         3.7700    1.4650    1.0500 c3        1 0FA     -0.097600
     13 CD2         2.5140    1.5650   -1.0990 c3        1 0FA     -0.097600
     14 HN         -0.4640    0.0010    1.4000 hn        1 0FA      0.362800
     15 HN1        -0.6300   -3.7700   -0.4340 hn        1 0FA      0.323000
     16 HN1A       -1.1780   -2.1900   -0.9260 hn        1 0FA      0.323000
     17 HA          0.7910   -0.4580   -1.1950 h1        1 0FA      0.099700
     18 HB          2.1330   -0.5790    1.6140 hc        1 0FA      0.018700
     19 HBA         2.9110   -0.9390    0.0270 hc        1 0FA      0.018700
     20 HG          1.6420    1.7610    0.8530 hc        1 0FA      0.072700
     21 HD1         4.6060    0.8950    0.5770 hc        1 0FA      0.024367
     22 HD1A        4.0050    2.5550    0.9790 hc        1 0FA      0.024367
     23 HD1B        3.7210    1.1840    2.1290 hc        1 0FA      0.024367
     24 HD2         3.1690    0.8710   -1.6770 hc        1 0FA      0.024367
     25 HD2A        1.4750    1.5490   -1.5430 hc        1 0FA      0.024367
     26 HD2B        2.9290    2.5980   -1.1950 hc        1 0FA      0.024367
@<TRIPOS>BOND
     1    1    3 2   
     2    1    5 1   
     3    1    9 1   
     4    2    4 1   
     5    2    9 1   
     6    2   14 1   
     7    4    6 1   
     8    4    7 1   
     9    4    8 1   
    10    5   15 1   
    11    5   16 1   
    12    9   10 1   
    13    9   17 1   
    14   10   11 1   
    15   10   18 1   
    16   10   19 1   
    17   11   12 1   
    18   11   13 1   
    19   11   20 1   
    20   12   21 1   
    21   12   22 1   
    22   12   23 1   
    23   13   24 1   
    24   13   25 1   
    25   13   26 1   
@<TRIPOS>SUBSTRUCTURE
     1 0FA         1 TEMP              0 ****  ****    0 ROOT
