@<TRIPOS>MOLECULE
0FG
   56    57     1     0     0
SMALL
bcc


@<TRIPOS>ATOM
      1 N           2.8960    2.5280   -2.0980 n3        1 0FG     -0.884800
      2 CA          2.8630    1.7650   -0.8710 c3        1 0FG      0.113500
      3 CB          4.0210    0.7630   -0.7500 c3        1 0FG     -0.073400
      4 CG          5.3820    1.4380   -0.6620 c3        1 0FG     -0.067700
      5 CD1         5.5970    2.0800    0.6930 c3        1 0FG     -0.091600
      6 CD2         6.4720    0.4170   -0.9300 c3        1 0FG     -0.091600
      7 C           1.5420    0.9710   -0.6880 c         1 0FG      0.615100
      8 O           0.8010    0.7150   -1.6630 o         1 0FG     -0.641100
      9 N1          1.1910    0.5920    0.5880 n         1 0FG     -0.552900
     10 CA1         0.0480   -0.2430    0.8580 c3        1 0FG      0.041700
     11 C1         -1.2540    0.5890    1.0180 c         1 0FG      0.638100
     12 O1         -1.8850    0.5900    2.0940 o         1 0FG     -0.620100
     13 CB1         0.2160   -1.1010    2.1240 c3        1 0FG     -0.044100
     14 CG1         1.4050   -1.9900    2.0480 ca        1 0FG     -0.089300
     15 CD11        2.5240   -1.7450    2.8510 ca        1 0FG     -0.127500
     16 CD21        1.4060   -3.0960    1.1880 ca        1 0FG     -0.127500
     17 CE1         3.6300   -2.5930    2.7940 ca        1 0FG     -0.126500
     18 CE2         2.5130   -3.9410    1.1310 ca        1 0FG     -0.126500
     19 CZ          3.6270   -3.6910    1.9340 ca        1 0FG     -0.128000
     20 C11        -4.0760    1.2620   -0.5850 ca        1 0FG     -0.137300
     21 C2         -4.6540    0.2940    0.2430 ca        1 0FG     -0.091500
     22 C3         -5.7640   -0.4290   -0.1810 ca        1 0FG     -0.170000
     23 C4         -6.3030   -0.1780   -1.4580 ca        1 0FG      0.128900
     24 C5         -5.7250    0.7930   -2.2950 ca        1 0FG     -0.170000
     25 C6         -4.6140    1.5040   -1.8510 ca        1 0FG     -0.091500
     26 C7         -2.8950    2.0510   -0.0910 c3        1 0FG      0.134300
     27 N2         -1.6510    1.3290   -0.0720 n         1 0FG     -0.552900
     28 F          -7.3850   -0.8760   -1.8810 f         1 0FG     -0.141900
     29 H           2.9480    1.9180   -2.8920 hn        1 0FG      0.361300
     30 H2          2.0700    3.0890   -2.1780 hn        1 0FG      0.361300
     31 HA          2.9390    2.5150   -0.0260 h1        1 0FG      0.077700
     32 HB2         3.8650    0.1390    0.1680 hc        1 0FG      0.051700
     33 HB3         4.0050    0.0710   -1.6330 hc        1 0FG      0.051700
     34 HG          5.4480    2.2400   -1.4510 hc        1 0FG      0.071700
     35 HD11        6.6120    2.5460    0.7390 hc        1 0FG      0.034367
     36 HD12        4.8380    2.8780    0.8770 hc        1 0FG      0.034367
     37 HD13        5.5220    1.3200    1.5070 hc        1 0FG      0.034367
     38 HD21        6.3610   -0.0130   -1.9540 hc        1 0FG      0.034367
     39 HD22        7.4760    0.8980   -0.8550 hc        1 0FG      0.034367
     40 HD23        6.4220   -0.4160   -0.1880 hc        1 0FG      0.034367
     41 H1          1.8210    0.7520    1.3390 hn        1 0FG      0.322500
     42 HA1        -0.1060   -0.9350   -0.0280 h1        1 0FG      0.086700
     43 HB21        0.2730   -0.4330    3.0250 hc        1 0FG      0.077700
     44 HB31       -0.7180   -1.7160    2.2360 hc        1 0FG      0.077700
     45 HD1         2.5280   -0.8860    3.5380 ha        1 0FG      0.132000
     46 HD2         0.5270   -3.2980    0.5580 ha        1 0FG      0.132000
     47 HE1         4.5040   -2.3960    3.4320 ha        1 0FG      0.134000
     48 HE2         2.5060   -4.8080    0.4540 ha        1 0FG      0.134000
     49 HZ          4.4980   -4.3590    1.8900 ha        1 0FG      0.134000
     50 H21        -4.2190    0.1090    1.2410 ha        1 0FG      0.148500
     51 H3         -6.2240   -1.1890    0.4650 ha        1 0FG      0.149000
     52 H5         -6.1540    0.9800   -3.2900 ha        1 0FG      0.149000
     53 H6         -4.1610    2.2630   -2.5080 ha        1 0FG      0.148500
     54 H11        -2.7500    2.9570   -0.7480 h1        1 0FG      0.067200
     55 H2A        -3.1170    2.4040    0.9590 h1        1 0FG      0.067200
     56 HN2        -1.2040    1.1640   -0.9480 hn        1 0FG      0.336500
@<TRIPOS>BOND
     1    1    2 1   
     2    1   29 1   
     3    1   30 1   
     4    2    3 1   
     5    2    7 1   
     6    2   31 1   
     7    3    4 1   
     8    3   32 1   
     9    3   33 1   
    10    4    5 1   
    11    4    6 1   
    12    4   34 1   
    13    5   35 1   
    14    5   36 1   
    15    5   37 1   
    16    6   38 1   
    17    6   39 1   
    18    6   40 1   
    19    7    8 2   
    20    7    9 1   
    21    9   10 1   
    22    9   41 1   
    23   10   11 1   
    24   10   13 1   
    25   10   42 1   
    26   11   12 2   
    27   11   27 1   
    28   13   14 1   
    29   13   43 1   
    30   13   44 1   
    31   14   15 ar  
    32   14   16 ar  
    33   15   17 ar  
    34   15   45 1   
    35   16   18 ar  
    36   16   46 1   
    37   17   19 ar  
    38   17   47 1   
    39   18   19 ar  
    40   18   48 1   
    41   19   49 1   
    42   20   21 ar  
    43   20   25 ar  
    44   20   26 1   
    45   21   22 ar  
    46   21   50 1   
    47   22   23 ar  
    48   22   51 1   
    49   23   24 ar  
    50   23   28 1   
    51   24   25 ar  
    52   24   52 1   
    53   25   53 1   
    54   26   27 1   
    55   26   54 1   
    56   26   55 1   
    57   27   56 1   
@<TRIPOS>SUBSTRUCTURE
     1 0FG         1 TEMP              0 ****  ****    0 ROOT
