@<TRIPOS>MOLECULE
0FG
   56    52     1     0     0
SMALL
bcc


@<TRIPOS>ATOM
      1 N          -1.5030   -2.6690    3.0940 n3        1 0FG     -0.338000
      2 CA         -2.0530   -1.4110    2.8220 c3        1 0FG     -0.051000
      3 CB         -3.5340   -1.5650    2.4920 c3        1 0FG     -0.190000
      4 CG         -4.3440   -1.7590    3.8090 c3        1 0FG     -0.110000
      5 CD1        -5.2190   -0.5680    4.0350 c3        1 0FG     -0.209000
      6 CD2        -5.2120   -3.0150    3.6970 c3        1 0FG     -0.209000
      7 C          -1.3160   -0.7760    1.6190 c2        1 0FG      0.302000
      8 O          -1.9440   -0.2150    0.7560 o         1 0FG     -0.374000
      9 N1          0.1190   -0.9620    1.4670 n         1 0FG     -0.349000
     10 CA1         0.7990   -0.4170    0.3110 c3        1 0FG      0.030000
     11 C1          0.3900    1.0130    0.1180 c2        1 0FG      0.267000
     12 O1         -0.6740    1.4040    0.5530 o         1 0FG     -0.390000
     13 CB1         0.4270   -1.2230   -0.9260 c3        1 0FG     -0.140000
     14 CG1         1.7360   -1.6530   -1.6890 c2        1 0FG     -0.085000
     15 CD11        2.0000   -3.0020   -1.9070 c2        1 0FG     -0.128000
     16 CD21        2.5570   -0.6880   -2.2490 c1        1 0FG     -0.138000
     17 CE1         3.0880   -3.3800   -2.6880 c1        1 0FG     -0.122000
     18 CE2         3.6490   -1.0690   -3.0320 c1        1 0FG     -0.125750
     19 CZ          3.9110   -2.4110   -3.2490 c1        1 0FG     -0.125750
     20 C11         1.8910    3.7230   -2.0830 c1        1 0FG     -0.130000
     21 C2          2.3170    5.0170   -1.7780 c1        1 0FG     -0.125750
     22 C3          3.2860    5.6360   -2.5650 c1        1 0FG     -0.125750
     23 C4          3.8300    4.9630   -3.6580 c1        1 0FG      0.094000
     24 C5          3.4050    3.6710   -3.9640 c1        1 0FG     -0.171000
     25 C6          2.4360    3.0510   -3.1760 c1        1 0FG     -0.096000
     26 C7          0.7720    3.0830   -1.2770 c3        1 0FG      0.007000
     27 N2          1.3020    1.9500   -0.5220 n         1 0FG     -0.349000
     28 F           4.7500    5.5590   -4.4160 f         1 0FG     -0.107000
     29 H          -2.0200   -3.3190    2.7020 hn        1 0FG      0.153000
     30 H2         -1.4790   -2.8030    3.9980 hn        1 0FG      0.153000
     31 HA         -1.9500   -0.8280    3.6160 h1        1 0FG      0.117000
     32 HB2        -3.8500   -0.7640    2.0320 hc        1 0FG      0.105500
     33 HB3        -3.6600   -2.3410    1.9180 hc        1 0FG      0.105500
     34 HG         -3.7240   -1.8560    4.5620 hc        1 0FG      0.082000
     35 HD11       -5.8340   -0.7500    4.7830 hc        1 0FG      0.074833
     36 HD12       -5.7380   -0.3840    3.2210 hc        1 0FG      0.074833
     37 HD13       -4.6660    0.2050    4.2490 hc        1 0FG      0.074833
     38 HD21       -4.6400   -3.8080    3.7150 hc        1 0FG      0.074833
     39 HD22       -5.8450   -3.0490    4.4580 hc        1 0FG      0.074833
     40 HD23       -5.7160   -2.9920    2.8500 hc        1 0FG      0.074833
     41 H1          0.5940   -1.3720    2.1210 hn        1 0FG      0.249000
     42 HA1         1.7680   -0.4630    0.4520 h1        1 0FG      0.118000
     43 HB21       -0.0700   -2.0210   -0.6560 hc        1 0FG      0.122500
     44 HB31       -0.1330   -0.6730   -1.5200 hc        1 0FG      0.122500
     45 HD1         1.4170   -3.6880   -1.5100 ha        1 0FG      0.133000
     46 HD2         2.3740    0.2520   -2.0970 ha        1 0FG      0.132000
     47 HE1         3.2730   -4.3240   -2.8410 ha        1 0FG      0.134000
     48 HE2         4.2300   -0.3860   -3.4280 ha        1 0FG      0.145000
     49 HZ          4.6860   -2.6810   -3.8050 ha        1 0FG      0.145000
     50 H21         1.9360    5.4890   -1.0120 ha        1 0FG      0.145000
     51 H3          3.5810    6.5340   -2.3530 ha        1 0FG      0.145000
     52 H5          3.7830    3.2040   -4.7230 ha        1 0FG      0.147000
     53 H6          2.1380    2.1470   -3.3900 ha        1 0FG      0.134000
     54 H11         0.0710    2.7710   -1.8830 h1        1 0FG      0.109000
     55 H2A         0.3970    3.7440   -0.6560 h1        1 0FG      0.109000
     56 HN2         2.2080    1.8650   -0.3980 hn        1 0FG      0.232000
@<TRIPOS>BOND
     1    1    2 1   
     2    1   29 1   
     3    1   30 1   
     4    2    3 1   
     5    2    7 1   
     6    2   31 1   
     7    3    4 1   
     8    3   32 1   
     9    3   33 1   
    10    4    5 1   
    11    4    6 1   
    12    4   34 1   
    13    5   35 1   
    14    5   36 1   
    15    5   37 1   
    16    6   38 1   
    17    6   39 1   
    18    6   40 1   
    19    7    8 1   
    20    7    9 1   
    21    9   10 1   
    22    9   41 1   
    23   10   11 1   
    24   10   13 1   
    25   10   42 1   
    26   11   12 1   
    27   11   27 1   
    28   13   14 1   
    29   13   43 1   
    30   13   44 1   
    31   14   15 1   
    32   14   16 1   
    33   15   17 1   
    34   15   45 1   
    35   16   46 1   
    36   17   47 1   
    37   18   19 1   
    38   18   48 1   
    39   19   49 1   
    40   20   25 1   
    41   20   26 1   
    42   21   22 1   
    43   21   50 1   
    44   22   51 1   
    45   23   24 1   
    46   23   28 1   
    47   24   52 1   
    48   25   53 1   
    49   26   27 1   
    50   26   54 1   
    51   26   55 1   
    52   27   56 1   
@<TRIPOS>SUBSTRUCTURE
     1 0FG         1 TEMP              0 ****  ****    0 ROOT
