@<TRIPOS>MOLECULE
0FI
   17    17     1     0     0
SMALL
bcc


@<TRIPOS>ATOM
      1 N2          0.0440    0.2610   -0.0120 n4        1 0FI     -0.491200
      2 S2          2.0750   -1.1100    1.0700 s         1 0FI      0.159600
      3 C4          1.3940   -0.3830   -0.0350 c         1 0FI      0.037200
      4 C5         -0.6850    0.1550    1.2540 ca        1 0FI     -0.071400
      5 C6         -0.5360    1.1580    2.2300 ca        1 0FI     -0.098000
      6 C7         -1.2550    1.0610    3.4190 ca        1 0FI     -0.102000
      7 C8         -2.1110   -0.0190    3.6430 ca        1 0FI     -0.066000
      8 C9         -2.2550   -1.0110    2.6710 ca        1 0FI     -0.102000
      9 C10        -1.5460   -0.9350    1.4740 ca        1 0FI     -0.098000
     10 H2          1.7820   -0.1970   -1.0670 hx        1 0FI      0.090200
     11 H3          0.1320    2.0200    2.0710 ha        1 0FI      0.154000
     12 H4         -1.1440    1.8460    4.1860 ha        1 0FI      0.173000
     13 H5         -2.6760   -0.0880    4.5880 ha        1 0FI      0.173000
     14 H6         -2.9340   -1.8630    2.8460 ha        1 0FI      0.173000
     15 H7         -1.6760   -1.7270    0.7180 ha        1 0FI      0.154000
     16 H8         -0.5310   -0.1660   -0.7530 hn        1 0FI      0.457800
     17 H22         0.1570    1.2600   -0.2390 hn        1 0FI      0.457800
@<TRIPOS>BOND
     1    1    3 1   
     2    1    4 1   
     3    1   16 1   
     4    1   17 1   
     5    2    3 2   
     6    3   10 1   
     7    4    5 ar  
     8    4    9 ar  
     9    5    6 ar  
    10    5   11 1   
    11    6    7 ar  
    12    6   12 1   
    13    7    8 ar  
    14    7   13 1   
    15    8    9 ar  
    16    8   14 1   
    17    9   15 1   
@<TRIPOS>SUBSTRUCTURE
     1 0FI         1 TEMP              0 ****  ****    0 ROOT
