@<TRIPOS>MOLECULE
0FI
   16    16     1     0     0
SMALL
bcc


@<TRIPOS>ATOM
      1 N2         -1.0330   -1.1980    0.1280 n         1 0FI     -0.384100
      2 S2         -2.7600    0.7680    0.7040 s         1 0FI     -0.426400
      3 C4         -2.2630   -0.6810    0.3830 c         1 0FI      0.383200
      4 C5          0.2090   -0.5340    0.0800 ca        1 0FI      0.031600
      5 C6          0.3550    0.8500    0.3040 ca        1 0FI     -0.159500
      6 C7          1.6190    1.4350    0.2390 ca        1 0FI     -0.107500
      7 C8          2.7480    0.6730   -0.0450 ca        1 0FI     -0.144000
      8 C9          2.6130   -0.6980   -0.2680 ca        1 0FI     -0.107500
      9 C10         1.3650   -1.3040   -0.2090 ca        1 0FI     -0.159500
     10 H2         -3.0220   -1.5040    0.3380 h5        1 0FI      0.034200
     11 H3         -0.5280    1.4770    0.5320 ha        1 0FI      0.157500
     12 H4          1.7140    2.5180    0.4170 ha        1 0FI      0.136500
     13 H5          3.7400    1.1450   -0.0930 ha        1 0FI      0.136000
     14 H6          3.5010   -1.3080   -0.4940 ha        1 0FI      0.136500
     15 H7          1.2860   -2.3870   -0.3900 ha        1 0FI      0.157500
     16 H8         -0.9790   -2.1810   -0.0520 hn        1 0FI      0.317500
@<TRIPOS>BOND
     1    1    3 1   
     2    1    4 1   
     3    1   16 1   
     4    2    3 2   
     5    3   10 1   
     6    4    5 ar  
     7    4    9 ar  
     8    5    6 ar  
     9    5   11 1   
    10    6    7 ar  
    11    6   12 1   
    12    7    8 ar  
    13    7   13 1   
    14    8    9 ar  
    15    8   14 1   
    16    9   15 1   
@<TRIPOS>SUBSTRUCTURE
     1 0FI         1 TEMP              0 ****  ****    0 ROOT
