@<TRIPOS>MOLECULE
0FI
   16    14     1     0     0
SMALL
bcc


@<TRIPOS>ATOM
      1 N2          0.4450    0.5120   -1.7870 n         1 0FI     -0.238000
      2 S2          2.9490    1.0050   -0.9630 s         1 0FI     -0.143000
      3 C4          1.8340    0.3940   -2.0520 c2        1 0FI     -0.060000
      4 C5         -0.0700    0.1370   -0.5190 c2        1 0FI      0.039000
      5 C6          0.7630    0.1180    0.5890 c2        1 0FI     -0.149000
      6 C7          0.2530   -0.2140    1.8340 c1        1 0FI     -0.107000
      7 C8         -1.0900   -0.5270    1.9720 c1        1 0FI     -0.126000
      8 C9         -1.9230   -0.5080    0.8640 c1        1 0FI     -0.126000
      9 C10        -1.4130   -0.1760   -0.3810 c1        1 0FI     -0.170000
     10 H2          2.1390   -0.0270   -2.8780 h5        1 0FI      0.127000
     11 H3          1.7090    0.3390    0.4920 ha        1 0FI      0.186000
     12 H4          0.8400   -0.2280    2.6140 ha        1 0FI      0.139000
     13 H5         -1.4500   -0.7610    2.8490 ha        1 0FI      0.135000
     14 H6         -2.8690   -0.7290    0.9610 ha        1 0FI      0.135000
     15 H7         -2.0000   -0.1630   -1.1620 ha        1 0FI      0.129000
     16 H8         -0.1170    0.8280   -2.4320 hn        1 0FI      0.231000
@<TRIPOS>BOND
     1    1    3 1   
     2    1    4 1   
     3    1   16 1   
     4    2    3 1   
     5    3   10 1   
     6    4    5 1   
     7    4    9 1   
     8    5    6 1   
     9    5   11 1   
    10    6   12 1   
    11    7    8 1   
    12    7   13 1   
    13    8   14 1   
    14    9   15 1   
@<TRIPOS>SUBSTRUCTURE
     1 0FI         1 TEMP              0 ****  ****    0 ROOT
