@<TRIPOS>MOLECULE
0FI
   16    16     1     0     0
SMALL
bcc


@<TRIPOS>ATOM
      1 N2          0.1720   -0.2300    0.1450 n         1 0FI     -0.384100
      2 S2          2.3740    1.1860    0.7160 s         1 0FI     -0.426400
      3 C4          1.3950    0.2990   -0.1230 c         1 0FI      0.383200
      4 C5         -0.5970   -0.1200    1.3220 ca        1 0FI      0.031600
      5 C6         -0.1750    0.6030    2.4570 ca        1 0FI     -0.159500
      6 C7         -0.9920    0.6650    3.5840 ca        1 0FI     -0.107500
      7 C8         -2.2260    0.0220    3.6110 ca        1 0FI     -0.144000
      8 C9         -2.6510   -0.6950    2.4930 ca        1 0FI     -0.107500
      9 C10        -1.8550   -0.7720    1.3580 ca        1 0FI     -0.159500
     10 H2          1.7010    0.0060   -1.1600 h5        1 0FI      0.034200
     11 H3          0.8020    1.1220    2.4580 ha        1 0FI      0.157500
     12 H4         -0.6470    1.2340    4.4610 ha        1 0FI      0.136500
     13 H5         -2.8620    0.0780    4.5060 ha        1 0FI      0.136000
     14 H6         -3.6260   -1.2070    2.5060 ha        1 0FI      0.136500
     15 H7         -2.2150   -1.3450    0.4890 ha        1 0FI      0.157500
     16 H8         -0.2580   -0.7740   -0.5750 hn        1 0FI      0.317500
@<TRIPOS>BOND
     1    1    3 1   
     2    1    4 1   
     3    1   16 1   
     4    2    3 2   
     5    3   10 1   
     6    4    5 ar  
     7    4    9 ar  
     8    5    6 ar  
     9    5   11 1   
    10    6    7 ar  
    11    6   12 1   
    12    7    8 ar  
    13    7   13 1   
    14    8    9 ar  
    15    8   14 1   
    16    9   15 1   
@<TRIPOS>SUBSTRUCTURE
     1 0FI         1 TEMP              0 ****  ****    0 ROOT
