@<TRIPOS>MOLECULE
0FK
   23    24     1     0     0
SMALL
bcc


@<TRIPOS>ATOM
      1 CAG         0.0150   -0.0210   -0.0810 ca        1 0FK     -0.172300
      2 CAI         1.3900   -0.0110   -0.0290 ca        1 0FK     -0.074000
      3 CAH         2.0570    0.0280    1.2270 ca        1 0FK     -0.065300
      4 CAN         3.4670    0.0400    1.3230 ca        1 0FK     -0.160000
      5 CAL         4.0820    0.0780    2.5530 ca        1 0FK     -0.028000
      6 CAM         3.3230    0.1050    3.7410 ca        1 0FK     -0.212000
      7 CAE         1.9400    0.0950    3.6930 ca        1 0FK      0.112800
      8 OAK         1.1590    0.1200    4.8160 oh        1 0FK     -0.479100
      9 CAB         1.2480    0.0550    2.4200 ca        1 0FK      0.373600
     10 NAA        -0.1140    0.0450    2.3620 nb        1 0FK     -0.622000
     11 CAC        -0.6990    0.0080    1.1570 ca        1 0FK      0.299800
     12 CAD        -2.1730   -0.0040    1.0780 c         1 0FK      0.471600
     13 OAF        -2.8850   -0.0360    0.0870 o         1 0FK     -0.408100
     14 NAJ        -2.9200    0.0270    2.3980 n4        1 0FK     -0.748400
     15 H1         -0.5370   -0.0510   -1.0330 ha        1 0FK      0.180000
     16 H2          1.9900   -0.0320   -0.9540 ha        1 0FK      0.176000
     17 H3          4.0630    0.0180    0.3960 ha        1 0FK      0.164000
     18 H4          5.1830    0.0870    2.6270 ha        1 0FK      0.165000
     19 H5          3.8430    0.1350    4.7120 ha        1 0FK      0.163000
     20 H6          1.7420    0.1450    5.5940 ho        1 0FK      0.444000
     21 H7         -3.9330    0.0160    2.2340 hn        1 0FK      0.473800
     22 H8         -2.6540   -0.7870    2.9630 hn        1 0FK      0.473800
     23 HAJ3       -2.6640    0.8740    2.9170 hn        1 0FK      0.473800
@<TRIPOS>BOND
     1    1    2 ar  
     2    1   11 ar  
     3    1   15 1   
     4    2    3 ar  
     5    2   16 1   
     6    3    4 ar  
     7    3    9 ar  
     8    4    5 ar  
     9    4   17 1   
    10    5    6 ar  
    11    5   18 1   
    12    6    7 ar  
    13    6   19 1   
    14    7    8 1   
    15    7    9 ar  
    16    8   20 1   
    17    9   10 ar  
    18   10   11 ar  
    19   11   12 1   
    20   12   13 2   
    21   12   14 1   
    22   14   21 1   
    23   14   22 1   
    24   14   23 1   
@<TRIPOS>SUBSTRUCTURE
     1 0FK         1 TEMP              0 ****  ****    0 ROOT
