@<TRIPOS>MOLECULE
0FK
   23    24     1     0     0
SMALL
bcc


@<TRIPOS>ATOM
      1 CAG         0.0180   -0.0150   -0.0820 ca        1 0FK     -0.172300
      2 CAI         1.3920   -0.0050   -0.0280 ca        1 0FK     -0.074000
      3 CAH         2.0580    0.0290    1.2280 ca        1 0FK     -0.065300
      4 CAN         3.4680    0.0400    1.3250 ca        1 0FK     -0.160000
      5 CAL         4.0820    0.0740    2.5570 ca        1 0FK     -0.028000
      6 CAM         3.3210    0.0990    3.7440 ca        1 0FK     -0.212000
      7 CAE         1.9380    0.0890    3.6940 ca        1 0FK      0.112800
      8 OAK         1.1560    0.1120    4.8170 oh        1 0FK     -0.479100
      9 CAB         1.2480    0.0540    2.4200 ca        1 0FK      0.373600
     10 NAA        -0.1140    0.0440    2.3610 nb        1 0FK     -0.622000
     11 CAC        -0.6980    0.0110    1.1560 ca        1 0FK      0.299800
     12 CAD        -2.1720    0.0000    1.0740 c         1 0FK      0.471600
     13 OAF        -2.8830   -0.0280    0.0820 o         1 0FK     -0.408100
     14 NAJ        -2.9210    0.0280    2.3940 nz        1 0FK     -0.748400
     15 H1         -0.5330   -0.0410   -1.0350 ha        1 0FK      0.180000
     16 H2          1.9930   -0.0240   -0.9530 ha        1 0FK      0.176000
     17 H3          4.0650    0.0210    0.4000 ha        1 0FK      0.164000
     18 H4          5.1830    0.0830    2.6320 ha        1 0FK      0.165000
     19 H5          3.8400    0.1260    4.7150 ha        1 0FK      0.163000
     20 H6          1.7380    0.1340    5.5950 ho        1 0FK      0.444000
     21 H7         -3.9330    0.0180    2.2290 hn        1 0FK      0.473800
     22 H8         -2.6550   -0.7890    2.9560 hn        1 0FK      0.473800
     23 HAJ3       -2.6650    0.8730    2.9160 hn        1 0FK      0.473800
@<TRIPOS>BOND
     1    1    2 ar  
     2    1   11 ar  
     3    1   15 1   
     4    2    3 ar  
     5    2   16 1   
     6    3    4 ar  
     7    3    9 ar  
     8    4    5 ar  
     9    4   17 1   
    10    5    6 ar  
    11    5   18 1   
    12    6    7 ar  
    13    6   19 1   
    14    7    8 1   
    15    7    9 ar  
    16    8   20 1   
    17    9   10 ar  
    18   10   11 ar  
    19   11   12 1   
    20   12   13 2   
    21   12   14 1   
    22   14   21 1   
    23   14   22 1   
    24   14   23 1   
@<TRIPOS>SUBSTRUCTURE
     1 0FK         1 TEMP              0 ****  ****    0 ROOT
