@<TRIPOS>MOLECULE
0FK
   22    17     1     0     0
SMALL
bcc


@<TRIPOS>ATOM
      1 CAG        -0.9170   -0.0220   -1.9330 c1        1 0FK     -0.114750
      2 CAI         0.4500   -0.0220   -1.9330 c1        1 0FK     -0.114750
      3 CAH         1.1430   -0.0220   -0.7310 c1        1 0FK     -0.036000
      4 CAN         2.5510   -0.0220   -0.7270 c1        1 0FK     -0.114750
      5 CAL         3.2430   -0.0220    0.4770 c1        1 0FK     -0.114750
      6 CAM         2.5450   -0.0220    1.6810 c1        1 0FK     -0.233000
      7 CAE         1.1560   -0.0220    1.6790 c1        1 0FK      0.123000
      8 OAK         0.5430   -0.1560    2.9380 o         1 0FK     -0.225000
      9 CAB         0.4530   -0.0220    0.4580 c2        1 0FK     -0.020000
     10 NAA        -0.9310   -0.0220    0.4560 n2        1 0FK     -0.093000
     11 CAC        -1.6130   -0.0220   -0.7270 c1        1 0FK     -0.050000
     12 CAD        -3.1230   -0.0330   -0.8190 c1        1 0FK      0.351000
     13 OAF        -3.6650   -0.0420   -1.9070 o         1 0FK     -0.380000
     14 NAJ        -3.9060   -0.0160    0.3630 n3        1 0FK     -0.410000
     15 H1         -1.4060   -0.0220   -2.7780 ha        1 0FK      0.150000
     16 H2          0.9390   -0.0220   -2.7780 ha        1 0FK      0.150000
     17 H3          3.0410   -0.0220   -1.5710 ha        1 0FK      0.150000
     18 H4          4.2190   -0.0220    0.4790 ha        1 0FK      0.150000
     19 H5          3.0310   -0.0220    2.5270 ha        1 0FK      0.139000
     20 H6          0.5940    0.6140    3.3760 ho        1 0FK      0.219000
     21 H7         -4.4950    0.6650    0.5110 hn        1 0FK      0.237000
     22 H8         -3.8500   -0.7060    0.9570 hn        1 0FK      0.237000
@<TRIPOS>BOND
     1    1    2 1   
     2    1   15 1   
     3    2   16 1   
     4    3    9 1   
     5    4    5 1   
     6    4   17 1   
     7    5   18 1   
     8    6    7 1   
     9    6   19 1   
    10    7    9 1   
    11    8   20 1   
    12    9   10 1   
    13   10   11 1   
    14   12   13 1   
    15   12   14 1   
    16   14   21 1   
    17   14   22 1   
@<TRIPOS>SUBSTRUCTURE
     1 0FK         1 TEMP              0 ****  ****    0 ROOT
