@<TRIPOS>MOLECULE
0FK
   22    23     1     0     0
SMALL
bcc


@<TRIPOS>ATOM
      1 CAG        -1.2640    1.5950    0.0020 ca        1 0FK     -0.197300
      2 CAI         0.0200    2.0710   -0.0660 ca        1 0FK     -0.093000
      3 CAH         1.1150    1.1610   -0.0210 ca        1 0FK     -0.097300
      4 CAN         2.4590    1.5990   -0.0880 ca        1 0FK     -0.156000
      5 CAL         3.4900    0.6910   -0.0360 ca        1 0FK     -0.079000
      6 CAM         3.2340   -0.6880    0.0880 ca        1 0FK     -0.172000
      7 CAE         1.9280   -1.1510    0.1570 ca        1 0FK      0.097800
      8 OAK         1.7750   -2.5090    0.2730 oh        1 0FK     -0.493100
      9 CAB         0.8180   -0.2330    0.1000 ca        1 0FK      0.329600
     10 NAA        -0.4760   -0.7030    0.1600 nb        1 0FK     -0.666000
     11 CAC        -1.4680    0.1780    0.1120 ca        1 0FK      0.381800
     12 CAD        -2.9070   -0.2750    0.1930 c         1 0FK      0.566600
     13 OAF        -3.7910    0.5200    0.5730 o         1 0FK     -0.608100
     14 NAJ        -3.2300   -1.5470   -0.1920 n         1 0FK     -0.653000
     15 H1         -2.1450    2.2550   -0.0120 ha        1 0FK      0.174000
     16 H2          0.2270    3.1490   -0.1520 ha        1 0FK      0.147000
     17 H3          2.6590    2.6770   -0.1820 ha        1 0FK      0.140000
     18 H4          4.5360    1.0310   -0.0880 ha        1 0FK      0.140000
     19 H5          4.0660   -1.4060    0.1320 ha        1 0FK      0.156000
     20 H6          0.8330   -2.7200    0.3560 ho        1 0FK      0.441000
     21 H7         -2.5380   -2.2090   -0.4310 hn        1 0FK      0.320000
     22 H8         -4.1700   -1.8480   -0.1090 hn        1 0FK      0.320000
@<TRIPOS>BOND
     1    1    2 ar  
     2    1   11 ar  
     3    1   15 1   
     4    2    3 ar  
     5    2   16 1   
     6    3    4 ar  
     7    3    9 ar  
     8    4    5 ar  
     9    4   17 1   
    10    5    6 ar  
    11    5   18 1   
    12    6    7 ar  
    13    6   19 1   
    14    7    8 1   
    15    7    9 ar  
    16    8   20 1   
    17    9   10 ar  
    18   10   11 ar  
    19   11   12 1   
    20   12   13 2   
    21   12   14 1   
    22   14   21 1   
    23   14   22 1   
@<TRIPOS>SUBSTRUCTURE
     1 0FK         1 TEMP              0 ****  ****    0 ROOT
