@<TRIPOS>MOLECULE
0FL
   16    15     1     0     0
SMALL
bcc


@<TRIPOS>ATOM
      1 C1          2.1790   -0.2470   -0.4270 c         1 0FL      0.639900
      2 O1          2.6760    0.3800    0.5370 o         1 0FL     -0.681100
      3 N           0.8610   -0.2940   -0.7320 n         1 0FL     -0.530900
      4 CA         -0.2050    0.2200    0.0980 c3        1 0FL     -0.086300
      5 C          -1.5860   -0.4490   -0.2460 c         1 0FL      0.917600
      6 O          -1.6620   -1.1870   -1.2690 o         1 0FL     -0.829300
      7 CB         -0.3900    1.7520   -0.0100 c3        1 0FL      0.144800
      8 OXT        -2.5330   -0.2010    0.5450 o         1 0FL     -0.829300
      9 N2          0.7350    2.5670    0.3790 n3        1 0FL     -0.907800
     10 H1          2.8310   -0.8060   -1.1440 h5        1 0FL     -0.010800
     11 H2          0.5410   -0.8760   -1.4810 hn        1 0FL      0.335500
     12 HA          0.0300   -0.0310    1.1740 h1        1 0FL      0.049700
     13 HB1        -0.6690    2.0160   -1.0680 h1        1 0FL      0.057700
     14 HB2        -1.2650    2.0070    0.6530 h1        1 0FL      0.057700
     15 HA1         1.0370    2.3090    1.3020 hn        1 0FL      0.336800
     16 HB3         1.5120    2.3990   -0.2340 hn        1 0FL      0.336800
@<TRIPOS>BOND
     1    1    2 2   
     2    1    3 1   
     3    1   10 1   
     4    3    4 1   
     5    3   11 1   
     6    4    5 1   
     7    4    7 1   
     8    4   12 1   
     9    5    6 1   
    10    5    8 1   
    11    7    9 1   
    12    7   13 1   
    13    7   14 1   
    14    9   15 1   
    15    9   16 1   
@<TRIPOS>SUBSTRUCTURE
     1 0FL         1 TEMP              0 ****  ****    0 ROOT
