@<TRIPOS>MOLECULE
0FN
   18    19     1     0     0
SMALL
bcc


@<TRIPOS>ATOM
      1 OAH        -0.0150    0.0020    0.0120 o         1 0FN     -0.476100
      2 CAC         1.2090   -0.0260    0.0210 c         1 0FN      0.592700
      3 CAD         2.1070    0.0050    1.1950 ca        1 0FN     -0.152600
      4 CAK         1.7790    0.0370    2.5400 ca        1 0FN     -0.065000
      5 CAL         2.8220    0.0620    3.4800 ca        1 0FN     -0.113000
      6 CAM         4.1530    0.0560    3.0710 ca        1 0FN     -0.113000
      7 CAJ         4.4880    0.0250    1.7080 ca        1 0FN     -0.065000
      8 CAE         3.4620   -0.0000    0.7790 ca        1 0FN     -0.152600
      9 CAB         3.5450   -0.0360   -0.6970 c         1 0FN      0.592700
     10 OAI         4.5540   -0.0170   -1.3910 o         1 0FN     -0.476100
     11 CAA         2.1030   -0.0600   -1.2300 c3        1 0FN     -0.207600
     12 CAF         1.8470   -1.2180   -2.0500 c1        1 0FN      0.223700
     13 NAG         1.6370   -2.1450   -2.7190 n1        1 0FN     -0.328800
     14 H1          0.7270    0.0410    2.8630 ha        1 0FN      0.159000
     15 H2          2.5780    0.0850    4.5530 ha        1 0FN      0.146000
     16 H3          4.9570    0.0750    3.8230 ha        1 0FN      0.146000
     17 H4          5.5400    0.0210    1.3850 ha        1 0FN      0.159000
     18 H5          1.9210    0.8750   -1.8370 hc        1 0FN      0.133700
@<TRIPOS>BOND
     1    1    2 2   
     2    2    3 1   
     3    2   11 1   
     4    3    4 ar  
     5    3    8 ar  
     6    4    5 ar  
     7    4   14 1   
     8    5    6 ar  
     9    5   15 1   
    10    6    7 ar  
    11    6   16 1   
    12    7    8 ar  
    13    7   17 1   
    14    8    9 1   
    15    9   10 2   
    16    9   11 1   
    17   11   12 1   
    18   11   18 1   
    19   12   13 3   
@<TRIPOS>SUBSTRUCTURE
     1 0FN         1 TEMP              0 ****  ****    0 ROOT
