@<TRIPOS>MOLECULE
0FN
   18    19     1     0     0
SMALL
bcc


@<TRIPOS>ATOM
      1 OAH        -0.0360   -0.0170    0.0480 o         1 0FN     -0.476100
      2 CAC         1.1890   -0.0340    0.0480 c         1 0FN      0.592700
      3 CAD         2.0930   -0.0010    1.2170 ca        1 0FN     -0.152600
      4 CAK         1.7750    0.0180    2.5640 ca        1 0FN     -0.065000
      5 CAL         2.8240    0.0470    3.4970 ca        1 0FN     -0.113000
      6 CAM         4.1510    0.0580    3.0800 ca        1 0FN     -0.113000
      7 CAJ         4.4780    0.0400    1.7140 ca        1 0FN     -0.065000
      8 CAE         3.4460    0.0100    0.7920 ca        1 0FN     -0.152600
      9 CAB         3.5200   -0.0150   -0.6850 c         1 0FN      0.592700
     10 OAI         4.5240    0.0200   -1.3860 o         1 0FN     -0.476100
     11 CAA         2.0740   -0.0500   -1.2090 c3        1 0FN     -0.207600
     12 CAF         1.8240   -1.2050   -2.0350 c1        1 0FN      0.223700
     13 NAG         1.6200   -2.1290   -2.7080 n1        1 0FN     -0.328800
     14 H1          0.7250    0.0090    2.8940 ha        1 0FN      0.159000
     15 H2          2.5870    0.0600    4.5720 ha        1 0FN      0.146000
     16 H3          4.9610    0.0800    3.8260 ha        1 0FN      0.146000
     17 H4          5.5280    0.0480    1.3840 ha        1 0FN      0.159000
     18 H5          1.8790    0.8880   -1.8080 hc        1 0FN      0.133700
@<TRIPOS>BOND
     1    1    2 2   
     2    2    3 1   
     3    2   11 1   
     4    3    4 ar  
     5    3    8 ar  
     6    4    5 ar  
     7    4   14 1   
     8    5    6 ar  
     9    5   15 1   
    10    6    7 ar  
    11    6   16 1   
    12    7    8 ar  
    13    7   17 1   
    14    8    9 1   
    15    9   10 2   
    16    9   11 1   
    17   11   12 1   
    18   11   18 1   
    19   12   13 3   
@<TRIPOS>SUBSTRUCTURE
     1 0FN         1 TEMP              0 ****  ****    0 ROOT
