@<TRIPOS>MOLECULE
0FN
   18    19     1     0     0
SMALL
bcc


@<TRIPOS>ATOM
      1 OAH        -0.9900   -2.3920    0.4630 o         1 0FN     -0.476100
      2 CAC        -0.6380   -1.2230    0.3620 c         1 0FN      0.592700
      3 CAD         0.7230   -0.7090    0.0960 ca        1 0FN     -0.152600
      4 CAK         1.8910   -1.4150   -0.1340 ca        1 0FN     -0.065000
      5 CAL         3.0720   -0.6920   -0.3660 ca        1 0FN     -0.113000
      6 CAM         3.0710    0.7000   -0.3640 ca        1 0FN     -0.113000
      7 CAJ         1.8880    1.4190   -0.1300 ca        1 0FN     -0.065000
      8 CAE         0.7210    0.7100    0.0980 ca        1 0FN     -0.152600
      9 CAB        -0.6410    1.2200    0.3650 c         1 0FN      0.592700
     10 OAI        -0.9950    2.3880    0.4690 o         1 0FN     -0.476100
     11 CAA        -1.5570   -0.0030    0.5370 c3        1 0FN     -0.207600
     12 CAF        -2.6450   -0.0030   -0.4090 c1        1 0FN      0.223700
     13 NAG        -3.5300   -0.0030   -1.1620 n1        1 0FN     -0.328800
     14 H1          1.8920   -2.5160   -0.1350 ha        1 0FN      0.159000
     15 H2          4.0100   -1.2390   -0.5520 ha        1 0FN      0.146000
     16 H3          4.0070    1.2490   -0.5490 ha        1 0FN      0.146000
     17 H4          1.8860    2.5200   -0.1290 ha        1 0FN      0.159000
     18 H5         -1.9730   -0.0050    1.5860 hc        1 0FN      0.133700
@<TRIPOS>BOND
     1    1    2 2   
     2    2    3 1   
     3    2   11 1   
     4    3    4 ar  
     5    3    8 ar  
     6    4    5 ar  
     7    4   14 1   
     8    5    6 ar  
     9    5   15 1   
    10    6    7 ar  
    11    6   16 1   
    12    7    8 ar  
    13    7   17 1   
    14    8    9 1   
    15    9   10 2   
    16    9   11 1   
    17   11   12 1   
    18   11   18 1   
    19   12   13 3   
@<TRIPOS>SUBSTRUCTURE
     1 0FN         1 TEMP              0 ****  ****    0 ROOT
