@<TRIPOS>MOLECULE
0FN
   18    19     1     0     0
SMALL
bcc


@<TRIPOS>ATOM
      1 OAH        -0.0210   -0.0060    0.0050 o         1 0FN     -0.476100
      2 CAC         1.2040   -0.0330    0.0250 c         1 0FN      0.592700
      3 CAD         2.0890   -0.0150    1.2090 ca        1 0FN     -0.152600
      4 CAK         1.7480   -0.0020    2.5500 ca        1 0FN     -0.065000
      5 CAL         2.7820    0.0120    3.5010 ca        1 0FN     -0.113000
      6 CAM         4.1170    0.0140    3.1060 ca        1 0FN     -0.113000
      7 CAJ         4.4660    0.0020    1.7460 ca        1 0FN     -0.065000
      8 CAE         3.4490   -0.0130    0.8060 ca        1 0FN     -0.152600
      9 CAB         3.5470   -0.0290   -0.6690 c         1 0FN      0.592700
     10 OAI         4.5630    0.0010   -1.3530 o         1 0FN     -0.476100
     11 CAA         2.1100   -0.0490   -1.2170 c3        1 0FN     -0.207600
     12 CAF         1.8640   -1.1970   -2.0540 c1        1 0FN      0.223700
     13 NAG         1.6630   -2.1150   -2.7370 n1        1 0FN     -0.328800
     14 H1          0.6930   -0.0040    2.8630 ha        1 0FN      0.159000
     15 H2          2.5270    0.0210    4.5720 ha        1 0FN      0.146000
     16 H3          4.9130    0.0250    3.8650 ha        1 0FN      0.146000
     17 H4          5.5210    0.0040    1.4330 ha        1 0FN      0.159000
     18 H5          1.9320    0.8930   -1.8130 hc        1 0FN      0.133700
@<TRIPOS>BOND
     1    1    2 2   
     2    2    3 1   
     3    2   11 1   
     4    3    4 ar  
     5    3    8 ar  
     6    4    5 ar  
     7    4   14 1   
     8    5    6 ar  
     9    5   15 1   
    10    6    7 ar  
    11    6   16 1   
    12    7    8 ar  
    13    7   17 1   
    14    8    9 1   
    15    9   10 2   
    16    9   11 1   
    17   11   12 1   
    18   11   18 1   
    19   12   13 3   
@<TRIPOS>SUBSTRUCTURE
     1 0FN         1 TEMP              0 ****  ****    0 ROOT
