@<TRIPOS>MOLECULE
0FN
   18    15     1     0     0
SMALL
bcc


@<TRIPOS>ATOM
      1 OAH        -2.7270    0.1410   -0.8540 o         1 0FN     -0.237000
      2 CAC        -1.5120    0.1410   -0.8540 c1        1 0FN      0.283000
      3 CAD        -0.6120    0.1410    0.3850 c1        1 0FN     -0.132000
      4 CAK        -0.9270    0.1410    1.7460 c1        1 0FN     -0.089000
      5 CAL         0.0900    0.1410    2.6950 c1        1 0FN     -0.089000
      6 CAM         1.4230    0.1410    2.2880 c1        1 0FN     -0.089000
      7 CAJ         1.7370    0.1410    0.9340 c1        1 0FN     -0.089000
      8 CAE         0.7090    0.1410   -0.0440 c1        1 0FN     -0.132000
      9 CAB         0.7090    0.1410   -1.5760 c2        1 0FN      0.283000
     10 OAI         1.6530   -0.1320   -2.2900 o         1 0FN     -0.237000
     11 CAA        -0.6190    0.1410   -2.0840 c2        1 0FN     -0.120000
     12 CAF        -0.8890   -0.9770   -3.1160 c1        1 0FN     -0.129000
     13 NAG        -1.0690   -1.8020   -3.8830 n1        1 0FN     -0.003000
     14 H1         -1.8600    0.1410    2.0310 ha        1 0FN      0.152500
     15 H2         -0.1300    0.1410    3.6460 ha        1 0FN      0.152500
     16 H3          2.1360    0.1410    2.9540 ha        1 0FN      0.152500
     17 H4          2.6720    0.1410    0.6540 ha        1 0FN      0.152500
     18 H5         -0.7840    0.9330   -2.6310 ha        1 0FN      0.173000
@<TRIPOS>BOND
     1    1    2 1   
     2    2    3 1   
     3    3    8 1   
     4    4    5 1   
     5    4   14 1   
     6    5   15 1   
     7    6    7 1   
     8    6   16 1   
     9    7   17 1   
    10    8    9 1   
    11    9   10 1   
    12    9   11 1   
    13   11   12 1   
    14   11   18 1   
    15   12   13 1   
@<TRIPOS>SUBSTRUCTURE
     1 0FN         1 TEMP              0 ****  ****    0 ROOT
