@<TRIPOS>MOLECULE
0FO
   18    19     1     0     0
SMALL
bcc


@<TRIPOS>ATOM
      1 CAD        -0.0520   -0.1020    0.0190 cc        1 0FO     -0.377200
      2 CAE         1.3930   -0.0530   -0.0370 c         1 0FO      0.742800
      3 OAG         2.1410   -0.0460   -1.0120 o         1 0FO     -0.562500
      4 OAF         2.1350   -0.0050    1.1520 os        1 0FO     -0.326200
      5 CAA         1.4680   -0.0050    2.3520 ca        1 0FO      0.178100
      6 CAL         2.2690    0.0450    3.5100 ca        1 0FO     -0.155000
      7 CAK         1.6590    0.0480    4.7530 ca        1 0FO     -0.051000
      8 CAJ         0.2580    0.0020    4.8670 ca        1 0FO     -0.068900
      9 Br1        -0.5360    0.0060    6.5600 br        1 0FO     -0.071100
     10 CAI        -0.5350   -0.0480    3.7250 ca        1 0FO     -0.024000
     11 CAB         0.0630   -0.0520    2.4550 ca        1 0FO     -0.161800
     12 CAC        -0.6950   -0.1020    1.2180 cd        1 0FO      0.248900
     13 OAH        -2.0520   -0.1460    1.3620 oh        1 0FO     -0.478100
     14 H1         -0.5750   -0.1390   -0.9460 ha        1 0FO      0.173000
     15 H2          3.3640    0.0820    3.4060 ha        1 0FO      0.168000
     16 H3          2.2840    0.0870    5.6610 ha        1 0FO      0.157000
     17 H4         -1.6360   -0.0850    3.7900 ha        1 0FO      0.169000
     18 H5         -2.4540   -0.1770    0.4780 ho        1 0FO      0.439000
@<TRIPOS>BOND
     1    1    2 1   
     2    1   12 2   
     3    1   14 1   
     4    2    3 2   
     5    2    4 1   
     6    4    5 1   
     7    5    6 ar  
     8    5   11 ar  
     9    6    7 ar  
    10    6   15 1   
    11    7    8 ar  
    12    7   16 1   
    13    8    9 1   
    14    8   10 ar  
    15   10   11 ar  
    16   10   17 1   
    17   11   12 1   
    18   12   13 1   
    19   13   18 1   
@<TRIPOS>SUBSTRUCTURE
     1 0FO         1 TEMP              0 ****  ****    0 ROOT
