@<TRIPOS>MOLECULE
0FO
   18    14     1     0     0
SMALL
bcc


@<TRIPOS>ATOM
      1 CAD        -0.3840   -0.0160   -2.5080 c1        1 0FO     -0.358000
      2 CAE         1.0910   -0.0160   -2.5080 c1        1 0FO      0.358000
      3 OAG         1.6990   -0.0380   -3.5600 o         1 0FO     -0.287000
      4 OAF         1.8070   -0.0160   -1.2650 o         1 0FO     -0.191000
      5 CAA         1.0600   -0.0160    0.0280 c2        1 0FO      0.133000
      6 CAL         1.7600   -0.0160    1.2380 c2        1 0FO     -0.155000
      7 CAK         1.0640   -0.0160    2.4470 c1        1 0FO     -0.051000
      8 CAJ        -0.3400   -0.0160    2.4500 c1        1 0FO     -0.209000
      9 BR1        -1.2920   -0.0120    4.1080 br        1 0FO      0.069000
     10 CAI        -1.0410   -0.0160    1.2440 c1        1 0FO     -0.024000
     11 CAB        -0.3460   -0.0160    0.0290 c1        1 0FO     -0.150000
     12 CAC        -1.1010   -0.0160   -1.2520 c1        1 0FO      0.193000
     13 OAH        -2.5000   -0.1650   -1.2400 oh        1 0FO     -0.233000
     14 H1         -0.8730   -0.1090   -3.3480 ha        1 0FO      0.173000
     15 H2          2.7360   -0.0160    1.2370 ha        1 0FO      0.168000
     16 H3          1.5530   -0.0160    3.2920 ha        1 0FO      0.157000
     17 H4         -2.0170   -0.0160    1.2470 ha        1 0FO      0.169000
     18 H5         -2.8750    0.5320   -1.6410 ho        1 0FO      0.238000
@<TRIPOS>BOND
     1    1   12 1   
     2    1   14 1   
     3    2    3 1   
     4    4    5 1   
     5    5    6 1   
     6    5   11 1   
     7    6    7 1   
     8    6   15 1   
     9    7   16 1   
    10    8    9 1   
    11    8   10 1   
    12   10   17 1   
    13   12   13 1   
    14   13   18 1   
@<TRIPOS>SUBSTRUCTURE
     1 0FO         1 TEMP              0 ****  ****    0 ROOT
