@<TRIPOS>MOLECULE
0FO
   18    19     1     0     0
SMALL
bcc


@<TRIPOS>ATOM
      1 CAD         3.3000    1.0300    0.0010 cc        1 0FO     -0.377200
      2 CAE         3.6590   -0.3700    0.0010 c         1 0FO      0.742800
      3 OAG         4.7710   -0.8950    0.0010 o         1 0FO     -0.562500
      4 OAF         2.6540   -1.3480    0.0010 os        1 0FO     -0.326200
      5 CAA         1.3400   -0.9500    0.0010 ca        1 0FO      0.178100
      6 CAL         0.3770   -1.9790    0.0010 ca        1 0FO     -0.155000
      7 CAK        -0.9670   -1.6460    0.0010 ca        1 0FO     -0.051000
      8 CAJ        -1.3740   -0.2990    0.0010 ca        1 0FO     -0.068900
      9 BR1        -3.1970    0.1180    0.0010 br        1 0FO     -0.071100
     10 CAI        -0.4260    0.7180    0.0010 ca        1 0FO     -0.024000
     11 CAB         0.9420    0.4020    0.0010 ca        1 0FO     -0.161800
     12 CAC         1.9910    1.4050    0.0010 cd        1 0FO      0.248900
     13 OAH         1.5640    2.7020    0.0010 oh        1 0FO     -0.478100
     14 H1          4.1320    1.7460    0.0010 ha        1 0FO      0.173000
     15 H2          0.7100   -3.0280    0.0010 ha        1 0FO      0.168000
     16 H3         -1.7220   -2.4490    0.0010 ha        1 0FO      0.157000
     17 H4         -0.7220    1.7810    0.0010 ha        1 0FO      0.169000
     18 H5          2.3430    3.2830    0.0010 ho        1 0FO      0.439000
@<TRIPOS>BOND
     1    1    2 1   
     2    1   12 2   
     3    1   14 1   
     4    2    3 2   
     5    2    4 1   
     6    4    5 1   
     7    5    6 ar  
     8    5   11 ar  
     9    6    7 ar  
    10    6   15 1   
    11    7    8 ar  
    12    7   16 1   
    13    8    9 1   
    14    8   10 ar  
    15   10   11 ar  
    16   10   17 1   
    17   11   12 1   
    18   12   13 1   
    19   13   18 1   
@<TRIPOS>SUBSTRUCTURE
     1 0FO         1 TEMP              0 ****  ****    0 ROOT
