@<TRIPOS>MOLECULE
0FR
   25    27     1     0     0
SMALL
bcc


@<TRIPOS>ATOM
      1 CAI         3.6820    1.0460   -0.0030 ca        1 0FR     -0.141000
      2 CAH         4.3500   -0.1690    0.0300 ca        1 0FR     -0.115000
      3 CAG         3.6550   -1.3920    0.0460 ca        1 0FR     -0.150000
      4 CAF         2.2680   -1.4360    0.0290 ca        1 0FR     -0.077000
      5 CAE         1.5590   -0.2340   -0.0040 ca        1 0FR     -0.052800
      6 CAD         2.2810    1.0160   -0.0200 ca        1 0FR     -0.064200
      7 NAC         1.3390    2.0560   -0.0540 na        1 0FR     -0.184400
      8 CAB         0.0680    1.5040   -0.0580 cc        1 0FR     -0.021100
      9 CAA         0.1450    0.1040   -0.0270 cd        1 0FR     -0.234400
     10 CAJ        -0.9280   -0.8690   -0.0220 c         1 0FR      0.541800
     11 OAP        -0.7110   -2.0930   -0.0390 o         1 0FR     -0.548100
     12 CAK        -2.3260   -0.4200   -0.0000 cc        1 0FR      0.169200
     13 OAL        -2.6360    0.9450    0.0930 os        1 0FR     -0.367800
     14 CAM        -4.0250    1.0350    0.0980 cc        1 0FR      0.257600
     15 CAN        -4.5910   -0.2210    0.0110 cd        1 0FR     -0.274300
     16 CAO        -3.4980   -1.1610   -0.0510 cd        1 0FR     -0.182300
     17 H1          4.2310    1.9970   -0.0150 ha        1 0FR      0.132000
     18 H2          5.4500   -0.1800    0.0440 ha        1 0FR      0.131000
     19 H3          4.2290   -2.3300    0.0710 ha        1 0FR      0.133000
     20 H4          1.7170   -2.3900    0.0400 ha        1 0FR      0.162000
     21 H5          1.5550    3.0170   -0.0720 hn        1 0FR      0.302700
     22 H6         -0.8180    2.1480   -0.0830 h4        1 0FR      0.184000
     23 H7         -4.4080    2.0490    0.1690 h4        1 0FR      0.053100
     24 H8         -5.6480   -0.4730   -0.0070 ha        1 0FR      0.166000
     25 H9         -3.5760   -2.2440   -0.1240 ha        1 0FR      0.178000
@<TRIPOS>BOND
     1    1    2 ar  
     2    1    6 ar  
     3    1   17 1   
     4    2    3 ar  
     5    2   18 1   
     6    3    4 ar  
     7    3   19 1   
     8    4    5 ar  
     9    4   20 1   
    10    5    6 ar  
    11    5    9 1   
    12    6    7 1   
    13    7    8 1   
    14    7   21 1   
    15    8    9 2   
    16    8   22 1   
    17    9   10 1   
    18   10   11 2   
    19   10   12 1   
    20   12   13 1   
    21   12   16 2   
    22   13   14 1   
    23   14   15 2   
    24   14   23 1   
    25   15   16 1   
    26   15   24 1   
    27   16   25 1   
@<TRIPOS>SUBSTRUCTURE
     1 0FR         1 TEMP              0 ****  ****    0 ROOT
