@<TRIPOS>MOLECULE
0FR
   25    27     1     0     0
SMALL
bcc


@<TRIPOS>ATOM
      1 CAI        -0.0320    0.0030   -0.0260 ca        1 0FR     -0.141000
      2 CAH         1.3550   -0.0030    0.0080 ca        1 0FR     -0.115000
      3 CAG         2.0630   -0.0040    1.2230 ca        1 0FR     -0.150000
      4 CAF         1.4040    0.0010    2.4450 ca        1 0FR     -0.077000
      5 CAE         0.0080    0.0070    2.4530 ca        1 0FR     -0.052800
      6 CAD        -0.7100    0.0070    1.2010 ca        1 0FR     -0.064200
      7 NAC        -2.0830    0.0130    1.4920 na        1 0FR     -0.184400
      8 CAB        -2.2450    0.0160    2.8690 cc        1 0FR     -0.021100
      9 CAA        -0.9950    0.0130    3.5060 cd        1 0FR     -0.234400
     10 CAJ        -0.6930    0.0130    4.9220 c         1 0FR      0.541800
     11 OAP         0.4750    0.0040    5.3490 o         1 0FR     -0.548100
     12 CAK        -1.7820    0.0260    5.9070 cc        1 0FR      0.169200
     13 OAL        -3.1220    0.0470    5.4910 os        1 0FR     -0.367800
     14 CAM        -3.8950    0.0550    6.6480 cc        1 0FR      0.257600
     15 CAN        -3.0890    0.0400    7.7690 cd        1 0FR     -0.274300
     16 CAO        -1.7260    0.0210    7.2930 cd        1 0FR     -0.182300
     17 H1         -0.5780    0.0030   -0.9780 ha        1 0FR      0.132000
     18 H2          1.9180   -0.0070   -0.9380 ha        1 0FR      0.131000
     19 H3          3.1630   -0.0090    1.1990 ha        1 0FR      0.133000
     20 H4          1.9520    0.0000    3.4010 ha        1 0FR      0.162000
     21 H5         -2.8050    0.0150    0.8220 hn        1 0FR      0.302700
     22 H6         -3.2470    0.0210    3.3100 h4        1 0FR      0.184000
     23 H7         -4.9670    0.0720    6.4700 h4        1 0FR      0.053100
     24 H8         -3.3990    0.0420    8.8100 ha        1 0FR      0.166000
     25 H9         -0.8260    0.0070    7.9040 ha        1 0FR      0.178000
@<TRIPOS>BOND
     1    1    2 ar  
     2    1    6 ar  
     3    1   17 1   
     4    2    3 ar  
     5    2   18 1   
     6    3    4 ar  
     7    3   19 1   
     8    4    5 ar  
     9    4   20 1   
    10    5    6 ar  
    11    5    9 1   
    12    6    7 1   
    13    7    8 1   
    14    7   21 1   
    15    8    9 2   
    16    8   22 1   
    17    9   10 1   
    18   10   11 2   
    19   10   12 1   
    20   12   13 1   
    21   12   16 2   
    22   13   14 1   
    23   14   15 2   
    24   14   23 1   
    25   15   16 1   
    26   15   24 1   
    27   16   25 1   
@<TRIPOS>SUBSTRUCTURE
     1 0FR         1 TEMP              0 ****  ****    0 ROOT
