@<TRIPOS>MOLECULE
0FR
   25    16     1     0     0
SMALL
bcc


@<TRIPOS>ATOM
      1 CAI         0.5540   -0.1140   -3.6420 c1        1 0FR     -0.109000
      2 CAH         1.9410   -0.0770   -3.6060 c1        1 0FR     -0.132500
      3 CAG         2.6020    0.0100   -2.3890 c1        1 0FR     -0.132500
      4 CAF         1.8770    0.0590   -1.2070 c1        1 0FR     -0.109000
      5 CAE         0.4720    0.0220   -1.2420 c1        1 0FR     -0.030000
      6 CAD        -0.1810   -0.0640   -2.4450 c1        1 0FR     -0.030000
      7 NAC        -1.5400   -0.1100   -2.1900 n1        1 0FR     -0.207000
      8 CAB        -1.7200   -0.0530   -0.8370 c1        1 0FR      0.006000
      9 CAA        -0.4760    0.0290   -0.2430 c1        1 0FR     -0.227000
     10 CAJ        -0.4530    0.8510    1.0270 c1        1 0FR      0.373000
     11 OAP        -0.2670    2.0500    0.9720 o         1 0FR     -0.309000
     12 CAK        -0.6730    0.1800    2.3660 c2        1 0FR     -0.115000
     13 OAL        -1.2480   -1.0470    2.5670 os        1 0FR     -0.109000
     14 CAM        -1.2860   -1.2820    3.9170 c1        1 0FR     -0.074000
     15 CAN        -0.7310   -0.1920    4.5560 c1        1 0FR     -0.209000
     16 CAO        -0.3530    0.7090    3.6000 c1        1 0FR     -0.117000
     17 H1          0.0890   -0.1750   -4.4980 ha        1 0FR      0.147000
     18 H2          2.4510   -0.1120   -4.4380 ha        1 0FR      0.132000
     19 H3          3.5780    0.0350   -2.3640 ha        1 0FR      0.132000
     20 H4          2.3430    0.1200   -0.3510 ha        1 0FR      0.147000
     21 H5         -2.2000   -0.1680   -2.8170 DU        1 0FR      0.194200
     22 H6         -2.5770   -0.0820   -0.3700 DU        1 0FR      0.194200
     23 H7         -1.6430   -2.0810    4.3510 DU        1 0FR      0.194200
     24 H8         -0.6260   -0.0840    5.5200 DU        1 0FR      0.194200
     25 H9          0.0690    1.5740    3.7620 DU        1 0FR      0.194200
@<TRIPOS>BOND
     1    1    6 1   
     2    1   17 1   
     3    2    3 1   
     4    2   18 1   
     5    3   19 1   
     6    4    5 1   
     7    4   20 1   
     8    7    8 1   
     9    8    9 1   
    10   10   11 1   
    11   10   12 1   
    12   12   13 1   
    13   12   16 1   
    14   13   14 1   
    15   14   15 1   
    16   15   16 1   
@<TRIPOS>SUBSTRUCTURE
     1 0FR         1 TEMP              0 ****  ****    0 ROOT
