@<TRIPOS>MOLECULE
0FS
   24    25     1     0     0
SMALL
bcc


@<TRIPOS>ATOM
      1 C01        -1.0930    2.7020   -0.3360 ca        1 0FS     -0.072000
      2 C02        -3.1610    1.4530   -0.3290 ca        1 0FS     -0.060000
      3 C03        -2.4750    2.6590   -0.4820 ca        1 0FS     -0.138000
      4 C04        -2.4460    0.2930   -0.0270 ca        1 0FS     -0.170300
      5 C05        -0.3650    1.5330   -0.0410 ca        1 0FS     -0.090800
      6 C06        -1.0570    0.3250    0.1160 ca        1 0FS     -0.055000
      7 C07         3.4290    0.9340    0.2200 c         1 0FS      0.706700
      8 N08         4.1970   -0.2410    0.1540 n         1 0FS     -0.611500
      9 C09         3.4660   -1.4220   -0.0260 c         1 0FS      0.710100
     10 S10         1.7300   -1.0450   -0.1110 ss        1 0FS     -0.104200
     11 C11         1.9710    0.6360    0.0770 cc        1 0FS     -0.135600
     12 C12        -3.1860   -1.0310    0.1330 c3        1 0FS      0.688200
     13 C13         1.0730    1.6360    0.0950 cf        1 0FS      0.011800
     14 O15         3.9840   -2.5370   -0.1070 o         1 0FS     -0.543500
     15 F16        -2.6310   -1.8860    1.0530 f         1 0FS     -0.233633
     16 F17        -4.4940   -0.9060    0.5340 f         1 0FS     -0.233633
     17 F18        -3.2580   -1.7750   -1.0190 f         1 0FS     -0.233633
     18 H1         -0.5590    3.6590   -0.4550 ha        1 0FS      0.146000
     19 H2         -4.2570    1.4130   -0.4380 ha        1 0FS      0.158000
     20 H3         -3.0340    3.5780   -0.7170 ha        1 0FS      0.150000
     21 H4         -0.5240   -0.6080    0.3750 ha        1 0FS      0.162000
     22 H5          5.1870   -0.2290    0.2280 hn        1 0FS      0.357500
     23 H6          1.4630    2.6710    0.2160 ha        1 0FS      0.164000
     24 O14         3.9330    2.0530    0.3760 o         1 0FS     -0.572500
@<TRIPOS>BOND
     1    1    3 ar  
     2    1    5 ar  
     3    1   18 1   
     4    2    3 ar  
     5    2    4 ar  
     6    2   19 1   
     7    3   20 1   
     8    4    6 ar  
     9    4   12 1   
    10    5    6 ar  
    11    5   13 1   
    12    6   21 1   
    13    7    8 1   
    14    7   11 1   
    15    7   24 2   
    16    8    9 1   
    17    8   22 1   
    18    9   10 1   
    19    9   14 2   
    20   10   11 1   
    21   11   13 2   
    22   12   15 1   
    23   12   16 1   
    24   12   17 1   
    25   13   23 1   
@<TRIPOS>SUBSTRUCTURE
     1 0FS         1 TEMP              0 ****  ****    0 ROOT
