@<TRIPOS>MOLECULE
0FS
   24    24     1     0     0
SMALL
bcc


@<TRIPOS>ATOM
      1 C01        -1.0720    2.1590    1.0610 c2        1 0FS     -0.491000
      2 C02         1.3000   -1.5660    2.1260 c2        1 0FS     -0.123000
      3 C03        -0.8420    3.4440    1.2380 c1        1 0FS      0.265000
      4 C04         1.6720   -0.2820    2.1080 c2        1 0FS     -0.162000
      5 C05        -0.4230    1.0360    1.7350 c2        1 0FS      0.002000
      6 C06         0.8980    0.8130    1.5550 c2        1 0FS     -0.088000
      7 C07        -3.4090   -0.5340    3.5780 c2        1 0FS      0.346000
      8 N08        -4.7710   -0.1970    3.5180 n         1 0FS     -0.391000
      9 C09        -5.0840    0.8750    2.6700 c2        1 0FS      0.175000
     10 S10        -3.6010    1.4990    1.9130 ss        1 0FS      0.325000
     11 C11        -2.5990    0.3550    2.6940 c2        1 0FS     -0.343000
     12 C12         3.0500    0.1360    2.6420 c3        1 0FS      0.457000
     13 C13        -1.2670    0.2140    2.5820 c2        1 0FS     -0.019000
     14 O15        -6.2330    1.2900    2.5030 o         1 0FS     -0.271000
     15 F16         2.9990    0.9080    3.7750 f         1 0FS     -0.161333
     16 F17         3.8750   -0.9080    2.9810 f         1 0FS     -0.161333
     17 F18         3.7920    0.8770    1.7550 f         1 0FS     -0.161333
     18 H1         -1.8260    1.8660    0.2900 ha        1 0FS      0.215000
     19 H2          0.3310   -1.8990    1.7270 ha        1 0FS      0.144000
     20 H3          1.9480   -2.3590    2.5290 ha        1 0FS      0.144000
     21 H4          1.4870    1.5140    0.9300 ha        1 0FS      0.159000
     22 H5         -5.4580   -0.6800    4.0490 hn        1 0FS      0.270000
     23 H6         -0.7610   -0.5670    3.1850 ha        1 0FS      0.167000
     24 O14        -2.9760   -1.4580    4.2760 o         1 0FS     -0.297000
@<TRIPOS>BOND
     1    1    3 1   
     2    1    5 1   
     3    1   18 1   
     4    2    4 1   
     5    2   19 1   
     6    2   20 1   
     7    4    6 1   
     8    4   12 1   
     9    5    6 1   
    10    5   13 1   
    11    6   21 1   
    12    7    8 1   
    13    7   11 1   
    14    7   24 1   
    15    8    9 1   
    16    8   22 1   
    17    9   10 1   
    18    9   14 1   
    19   10   11 1   
    20   11   13 1   
    21   12   15 1   
    22   12   16 1   
    23   12   17 1   
    24   13   23 1   
@<TRIPOS>SUBSTRUCTURE
     1 0FS         1 TEMP              0 ****  ****    0 ROOT
