@<TRIPOS>MOLECULE
0FS
   24    24     1     0     0
SMALL
bcc


@<TRIPOS>ATOM
      1 C01        -0.9590   -1.5390   -0.3230 c2        1 0FS     -0.460000
      2 C02         0.7000    1.4800    2.6250 c2        1 0FS     -0.110000
      3 C03        -0.0790   -1.8620   -1.2500 c1        1 0FS      0.236000
      4 C04         0.9810    0.1610    2.4720 c2        1 0FS     -0.203000
      5 C05        -0.7530   -0.6740    0.8380 c2        1 0FS     -0.012000
      6 C06         0.4690   -0.6910    1.4370 c2        1 0FS     -0.083000
      7 C07        -3.5640    1.2160    2.6660 c2        1 0FS      0.348000
      8 N08        -3.6650    1.7470    3.9630 n         1 0FS     -0.391000
      9 C09        -2.5020    1.6480    4.7360 c2        1 0FS      0.141000
     10 S10        -1.2160    0.8430    3.7810 ss        1 0FS      0.438000
     11 C11        -2.2070    0.6370    2.4210 c2        1 0FS     -0.397000
     12 C12         2.0480   -0.5000    3.3570 c3        1 0FS      0.461000
     13 C13        -1.9300    0.0540    1.2350 c2        1 0FS     -0.007000
     14 O15        -2.4200    2.0730    5.8900 o         1 0FS     -0.266000
     15 F16         1.6350   -1.6480    3.9860 f         1 0FS     -0.161667
     16 F17         3.1720   -0.8830    2.6650 f         1 0FS     -0.161667
     17 F18         2.5280    0.2900    4.3710 f         1 0FS     -0.161667
     18 H1         -1.9820   -1.9650   -0.4310 ha        1 0FS      0.201000
     19 H2          0.1100    2.0310    1.8750 ha        1 0FS      0.148000
     20 H3          1.2080    2.0930    3.3870 ha        1 0FS      0.148000
     21 H4          1.2020   -1.4510    1.0900 ha        1 0FS      0.154000
     22 H5         -4.5020    2.1680    4.2950 hn        1 0FS      0.269000
     23 H6         -2.7450    0.0730    0.4750 ha        1 0FS      0.166000
     24 O14        -4.5010    1.2390    1.8600 o         1 0FS     -0.296000
@<TRIPOS>BOND
     1    1    3 1   
     2    1    5 1   
     3    1   18 1   
     4    2    4 1   
     5    2   19 1   
     6    2   20 1   
     7    4    6 1   
     8    4   12 1   
     9    5    6 1   
    10    5   13 1   
    11    6   21 1   
    12    7    8 1   
    13    7   11 1   
    14    7   24 1   
    15    8    9 1   
    16    8   22 1   
    17    9   10 1   
    18    9   14 1   
    19   10   11 1   
    20   11   13 1   
    21   12   15 1   
    22   12   16 1   
    23   12   17 1   
    24   13   23 1   
@<TRIPOS>SUBSTRUCTURE
     1 0FS         1 TEMP              0 ****  ****    0 ROOT
