@<TRIPOS>MOLECULE
0FS
   24    20     1     0     0
SMALL
bcc


@<TRIPOS>ATOM
      1 C01         0.8720    0.6820   -1.5450 c1        1 0FS     -0.073000
      2 C02         2.9280    0.7430   -0.3070 c1        1 0FS     -0.098000
      3 C03         2.2580    0.6800   -1.5190 c1        1 0FS     -0.098000
      4 C04         2.2120    0.8090    0.8780 c1        1 0FS     -0.166000
      5 C05         0.1560    0.7470   -0.3600 c1        1 0FS     -0.080000
      6 C06         0.8260    0.8100    0.8520 c2        1 0FS     -0.052000
      7 C07        -3.6170   -0.4380   -0.4750 c1        1 0FS      0.266000
      8 N08        -4.0220   -2.0130   -0.4570 n3        1 0FS     -0.391000
      9 C09        -2.7480   -2.8330   -0.5230 c1        1 0FS      0.266000
     10 S10        -1.4890   -1.8060   -0.4650 s         1 0FS      0.308000
     11 C11        -2.0750   -0.3340   -0.4380 c1        1 0FS     -0.356000
     12 C12         2.9440    0.8630    2.2010 c3        1 0FS      0.467000
     13 C13        -1.3560    0.8060   -0.3920 c1        1 0FS      0.003000
     14 O14        -4.3930    0.4970   -0.4680 o         1 0FS     -0.282500
     15 O15        -2.6810   -4.0450   -0.5510 o         1 0FS     -0.282500
     16 F16         3.2970    2.1280    2.4640 f         1 0FS     -0.162333
     17 F17         4.0410    0.0980    2.1370 f         1 0FS     -0.162333
     18 F18         2.1420    0.4130    3.1740 f         1 0FS     -0.162333
     19 H1          0.4000    0.6370   -2.3980 ha        1 0FS      0.151000
     20 H2          3.9040    0.7420   -0.2880 ha        1 0FS      0.154500
     21 H3          2.7620    0.6340   -2.3530 ha        1 0FS      0.154500
     22 H4          0.3220    0.8560    1.6860 ha        1 0FS      0.158000
     23 H5         -4.8710   -2.3450   -0.4730 hn        1 0FS      0.272000
     24 H6         -1.8120    1.6700   -0.3790 ha        1 0FS      0.166000
@<TRIPOS>BOND
     1    1    5 1   
     2    1   19 1   
     3    2    3 1   
     4    2   20 1   
     5    3   21 1   
     6    4    6 1   
     7    4   12 1   
     8    5    6 1   
     9    6   22 1   
    10    7    8 1   
    11    7   14 1   
    12    8    9 1   
    13    8   23 1   
    14    9   15 1   
    15   10   11 1   
    16   11   13 1   
    17   12   16 1   
    18   12   17 1   
    19   12   18 1   
    20   13   24 1   
@<TRIPOS>SUBSTRUCTURE
     1 0FS         1 TEMP              0 ****  ****    0 ROOT
