@<TRIPOS>MOLECULE
0FT
   41    41     1     0     0
SMALL
bcc


@<TRIPOS>ATOM
      1 C4         -0.0380   -0.1240   -0.0580 c         1 0FT      0.716700
      2 C5          1.3060    0.4790   -0.0270 cc        1 0FT     -0.257400
      3 C6          2.0930    0.3250    1.0750 cd        1 0FT      0.047600
      4 C8          2.5440    0.7960    4.1430 cc        1 0FT      0.201600
      5 C9          1.9230    1.0840    5.3770 cd        1 0FT     -0.184600
      6 N1          1.6990   -0.4240    2.1750 n         1 0FT     -0.369000
      7 N3         -0.4270   -0.8390    1.0900 n         1 0FT     -0.583500
      8 C2          0.3920   -0.9800    2.2180 c         1 0FT      0.805500
      9 O4         -0.8400   -0.0440   -1.0040 o         1 0FT     -0.610500
     10 C5A         1.7360    1.2340   -1.2190 c3        1 0FT     -0.029900
     11 N5          3.2310    1.9710    3.7500 nc        1 0FT     -0.353000
     12 N6          3.0630    2.8710    4.6330 nd        1 0FT     -0.188800
     13 N7          2.2920    2.4040    5.6310 na        1 0FT     -0.050600
     14 C1'         0.7130    6.0450    8.1270 c1        1 0FT      0.540600
     15 O4'        -0.3510    6.2700    8.6070 o         1 0FT     -0.356500
     16 C4'         1.6610    6.8720    5.1930 c3        1 0FT     -0.122400
     17 C5'         0.5660    7.9020    5.4080 c3        1 0FT      0.136400
     18 O5'        -0.2040    7.9350    4.2180 oh        1 0FT     -0.593800
     19 C3'         2.4790    6.6650    6.4630 c3        1 0FT      0.212300
     20 O3'         3.7630    6.1420    6.1670 oh        1 0FT     -0.594800
     21 C2'         1.8080    5.7400    7.4380 c2        1 0FT     -0.242200
     22 O2'         2.4620    4.5550    7.7300 oh        1 0FT     -0.510100
     23 H1          3.0990    0.7830    1.1490 h4        1 0FT      0.180000
     24 H2          2.1360   -1.2960    4.0320 h1        1 0FT      0.088700
     25 H3          3.5750   -0.7260    3.0420 h1        1 0FT      0.088700
     26 H4          1.2930    0.4900    6.0370 h4        1 0FT      0.204000
     27 H5         -1.3310   -1.2580    1.1300 hn        1 0FT      0.351500
     28 H6          2.6770    1.8030   -1.0210 hc        1 0FT      0.051367
     29 H7          0.9340    1.9530   -1.5260 hc        1 0FT      0.051367
     30 H8          1.9120    0.5320   -2.0740 hc        1 0FT      0.051367
     31 H9          2.0540    2.9690    6.4190 hn        1 0FT      0.351700
     32 H10         1.2080    5.9040    4.8580 hc        1 0FT      0.077200
     33 H11        -0.0850    7.6100    6.2780 h1        1 0FT      0.019700
     34 H12         2.3440    7.2230    4.3750 hc        1 0FT      0.077200
     35 H13        -0.8910    8.5980    4.3530 ho        1 0FT      0.405000
     36 H14         1.0070    8.9150    5.6110 h1        1 0FT      0.019700
     37 H15         3.6430    5.3770    5.5860 ho        1 0FT      0.426000
     38 H16         2.6980    7.6570    6.9580 h1        1 0FT      0.078700
     39 H17         3.3720    4.8020    7.9730 ho        1 0FT      0.433000
     40 C7          2.5240   -0.4690    3.3660 c3        1 0FT      0.087700
     41 O2         -0.0130   -1.6060    3.2230 o         1 0FT     -0.653500
@<TRIPOS>BOND
     1    1    2 1   
     2    1    7 1   
     3    1    9 2   
     4    2    3 2   
     5    2   10 1   
     6    3    6 1   
     7    3   23 1   
     8    4    5 2   
     9    4   11 1   
    10    4   40 1   
    11    5   13 1   
    12    5   26 1   
    13    6    8 1   
    14    6   40 1   
    15    7    8 1   
    16    7   27 1   
    17    8   41 2   
    18   10   28 1   
    19   10   29 1   
    20   10   30 1   
    21   11   12 2   
    22   12   13 1   
    23   13   31 1   
    24   14   15 2   
    25   14   21 2   
    26   16   17 1   
    27   16   19 1   
    28   16   32 1   
    29   16   34 1   
    30   17   18 1   
    31   17   33 1   
    32   17   36 1   
    33   18   35 1   
    34   19   20 1   
    35   19   21 1   
    36   19   38 1   
    37   20   37 1   
    38   21   22 1   
    39   22   39 1   
    40   24   40 1   
    41   25   40 1   
@<TRIPOS>SUBSTRUCTURE
     1 0FT         1 TEMP              0 ****  ****    0 ROOT
