@<TRIPOS>MOLECULE
0FT
   41    42     1     0     0
SMALL
bcc


@<TRIPOS>ATOM
      1 C4          0.8800   -0.4470   -0.1090 c2        1 0FT     -0.035000
      2 C5          2.2400   -0.1580    0.3080 c2        1 0FT     -0.231000
      3 C6          2.5220   -0.0040    1.6290 c2        1 0FT      0.012000
      4 C8          1.8950    1.5980    4.3720 c2        1 0FT     -0.167000
      5 C9          1.1500    2.3040    5.2760 c2        1 0FT     -0.024000
      6 N1          1.5250   -0.0710    2.6030 n         1 0FT     -0.279000
      7 N3         -0.0780   -0.6640    0.8810 ns        1 0FT     -0.283000
      8 C2          0.1840   -0.3610    2.2260 c2        1 0FT      0.390000
      9 O4          0.3560    0.0100   -1.2890 os        1 0FT      0.030000
     10 C5A         1.0900    0.5950   -2.2040 c2        1 0FT     -0.286000
     11 N5          2.8610    2.5220    3.7610 n2        1 0FT     -0.009000
     12 N6          2.7330    3.6510    4.2250 n2        1 0FT      0.021000
     13 N7          1.6830    3.7040    5.2680 nx        1 0FT      0.063000
     14 C1'         2.0740    4.0220    6.6280 c1        1 0FT     -0.429000
     15 O4'         1.1870    6.3990    4.4440 oh        1 0FT     -0.371000
     16 C4'         1.5670    7.1090    5.6190 c3        1 0FT     -0.007000
     17 C5'         0.3600    7.0820    6.5570 c3        1 0FT     -0.016000
     18 O5'        -0.7000    7.8600    6.0430 oh        1 0FT     -0.324000
     19 C3'         2.8160    6.4890    6.2740 c3        1 0FT      0.031000
     20 O3'         3.7310    6.2870    5.2000 oh        1 0FT     -0.346000
     21 C2'         2.5330    5.2200    7.0270 c2        1 0FT     -0.096000
     22 O2'         2.8140    5.4070    8.3740 oh        1 0FT     -0.267000
     23 H1          3.5450    0.1750    2.0090 h4        1 0FT      0.168000
     24 H2          1.0310   -0.3370    4.6240 h1        1 0FT      0.136000
     25 H3          2.8280   -0.3180    4.2280 h1        1 0FT      0.136000
     26 H4          0.3650    2.0420    5.9890 hx        1 0FT      0.235000
     27 H5         -1.0170   -0.8760    0.6300 hn        1 0FT      0.269000
     28 H6          3.0230   -0.1230   -0.4590 ha        1 0FT      0.168000
     29 H7          0.7850    0.3750   -3.2330 h4        1 0FT      0.140000
     30 H8          2.0130    1.1210   -1.9600 h4        1 0FT      0.140000
     31 H9          0.9550    4.3700    4.9310 hn        1 0FT      0.249000
     32 H10         1.9480    6.4250    3.8480 ho        1 0FT      0.234000
     33 H11         0.0260    6.0220    6.7190 h1        1 0FT      0.100500
     34 H12         1.8050    8.1720    5.3330 h1        1 0FT      0.102000
     35 H13        -0.8930    7.5260    5.1570 ho        1 0FT      0.207000
     36 H14         0.6270    7.5530    7.5400 h1        1 0FT      0.100500
     37 H15         4.4180    5.6900    5.5190 ho        1 0FT      0.221000
     38 H16         3.2580    7.2480    6.9840 h1        1 0FT      0.109000
     39 H17         2.5940    4.5810    8.8320 ho        1 0FT      0.227000
     40 C7          1.8290    0.1580    3.9930 c3        1 0FT      0.059000
     41 O2         -0.7280   -0.3990    3.0830 o         1 0FT     -0.380000
@<TRIPOS>BOND
     1    1    2 1   
     2    1    7 1   
     3    1    9 1   
     4    2    3 1   
     5    2   28 1   
     6    3    6 1   
     7    3   23 1   
     8    4    5 1   
     9    4   11 1   
    10    4   40 1   
    11    5   13 1   
    12    5   26 1   
    13    6    8 1   
    14    6   40 1   
    15    7    8 1   
    16    7   27 1   
    17    8   41 1   
    18    9   10 1   
    19   10   29 1   
    20   10   30 1   
    21   11   12 1   
    22   12   13 1   
    23   13   14 1   
    24   13   31 1   
    25   14   21 1   
    26   15   16 1   
    27   15   32 1   
    28   16   17 1   
    29   16   19 1   
    30   16   34 1   
    31   17   18 1   
    32   17   33 1   
    33   17   36 1   
    34   18   35 1   
    35   19   20 1   
    36   19   21 1   
    37   19   38 1   
    38   20   37 1   
    39   21   22 1   
    40   22   39 1   
    41   24   40 1   
    42   25   40 1   
@<TRIPOS>SUBSTRUCTURE
     1 0FT         1 TEMP              0 ****  ****    0 ROOT
