@<TRIPOS>MOLECULE
0FT
   41    38     1     0     0
SMALL
bcc


@<TRIPOS>ATOM
      1 C4         -1.1510    1.4450   -5.6940 c1        1 0FT      0.355000
      2 C5          0.2260    1.8410   -5.2960 c1        1 0FT     -0.234000
      3 C6          0.5490    2.0430   -3.8700 c1        1 0FT      0.045000
      4 C7         -0.1950    2.2380   -1.5060 c3        1 0FT      0.066000
      5 C8         -0.2900    0.9810   -0.6500 c2        1 0FT     -0.217000
      6 C9         -0.4380    0.9440    0.7170 c1        1 0FT     -0.081000
      7 N1         -0.4750    1.9030   -2.8780 n2        1 0FT     -0.262000
      8 N3         -2.1700    1.3230   -4.7050 n         1 0FT     -0.364000
      9 O2         -2.7030    1.3990   -2.4450 o         1 0FT     -0.378000
     10 C2         -1.8410    1.5080   -3.2780 c2        1 0FT      0.395000
     11 O4         -1.4180    1.2780   -6.8550 o         1 0FT     -0.334000
     12 C5A         1.2770    2.1060   -6.3570 c2        1 0FT     -0.153000
     13 N5         -0.1010   -0.2690   -1.0760 n2        1 0FT     -0.085000
     14 N6         -0.1280   -1.0930    0.0050 n2        1 0FT      0.018000
     15 N7         -0.3370   -0.3320    1.1090 n2        1 0FT     -0.196000
     16 C1'        -0.5200   -0.8330    2.4840 c2        1 0FT      0.143000
     17 O4'         0.6520   -0.3520    3.3950 os        1 0FT     -0.276000
     18 C4'         1.1400   -1.6050    4.1310 c3        1 0FT     -0.016000
     19 C5'         1.2550   -1.3300    5.6360 c3        1 0FT     -0.016000
     20 O5'         2.2830   -0.4000    5.8670 oh        1 0FT     -0.316000
     21 C3'         0.2250   -2.5090    3.9050 c3        1 0FT      0.012000
     22 O3'         0.8400   -3.8360    3.8110 oh        1 0FT     -0.304000
     23 C2'        -0.4600   -2.1140    2.5040 c3        1 0FT     -0.031000
     24 O2'        -1.8020   -2.6770    2.4270 oh        1 0FT     -0.315000
     25 H1          1.4610    2.3060   -3.6040 ha        1 0FT      0.180000
     26 H2         -0.8540    2.9070   -1.1880 h1        1 0FT      0.129000
     27 H3          0.7160    2.6150   -1.4380 h1        1 0FT      0.129000
     28 H4         -0.5920    1.7230    1.3080 DU        1 0FT      0.202000
     29 H5         -3.0250    1.0760   -4.9530 hn        1 0FT      0.265000
     30 H6          2.1490    2.2010   -5.9330 ha        1 0FT      0.091333
     31 H7          1.3010    1.3700   -6.9740 ha        1 0FT      0.091333
     32 H8          1.0600    2.9160   -6.8310 ha        1 0FT      0.091333
     33 H9         -1.3800   -0.5280    2.8480 h4        1 0FT      0.141000
     34 H10         2.0150   -1.9000    3.7650 h1        1 0FT      0.141000
     35 H11         0.4120   -0.9710    5.9650 h1        1 0FT      0.098500
     36 H12         1.4600   -2.1650    6.1060 h1        1 0FT      0.098500
     37 H13         2.5140   -0.4170    6.7310 ho        1 0FT      0.211000
     38 H14        -0.4400   -2.4970    4.6170 h1        1 0FT      0.115000
     39 H15         0.4720   -4.3790    4.4170 ho        1 0FT      0.213000
     40 H16         0.0820   -2.4350    1.7630 h1        1 0FT      0.132000
     41 H17        -1.7670   -3.4800    2.0200 ho        1 0FT      0.214000
@<TRIPOS>BOND
     1    1    8 1   
     2    1   11 1   
     3    2    3 1   
     4    3   25 1   
     5    4    5 1   
     6    4    7 1   
     7    4   26 1   
     8    4   27 1   
     9    5    6 1   
    10    5   13 1   
    11    6   15 1   
    12    7   10 1   
    13    8   10 1   
    14    8   29 1   
    15    9   10 1   
    16   12   30 1   
    17   12   31 1   
    18   12   32 1   
    19   13   14 1   
    20   14   15 1   
    21   16   17 1   
    22   16   23 1   
    23   16   33 1   
    24   17   18 1   
    25   18   19 1   
    26   18   21 1   
    27   18   34 1   
    28   19   20 1   
    29   19   35 1   
    30   19   36 1   
    31   20   37 1   
    32   21   22 1   
    33   21   23 1   
    34   21   38 1   
    35   22   39 1   
    36   23   24 1   
    37   23   40 1   
    38   24   41 1   
@<TRIPOS>SUBSTRUCTURE
     1 0FT         1 TEMP              0 ****  ****    0 ROOT
