@<TRIPOS>MOLECULE
0FT
   41    43     1     0     0
SMALL
bcc


@<TRIPOS>ATOM
      1 C4         -4.7500   -1.3590    0.1360 c         1 0FT      0.716700
      2 C5         -4.2020   -0.5430    1.2340 cc        1 0FT     -0.254400
      3 C6         -3.4090    0.5280    0.9530 cd        1 0FT      0.045600
      4 C8         -0.7700    1.6600   -0.3030 cc        1 0FT      0.204600
      5 C9          0.2680    1.3540   -1.2000 cd        1 0FT     -0.170600
      6 N1         -3.1200    0.9220   -0.3460 n         1 0FT     -0.370000
      7 N3         -4.4000   -0.9620   -1.1690 n         1 0FT     -0.583500
      8 C2         -3.5740    0.1370   -1.4390 c         1 0FT      0.805500
      9 O4         -5.4800   -2.3540    0.2750 o         1 0FT     -0.608500
     10 C5A        -4.5530   -0.9430    2.6110 c3        1 0FT     -0.030900
     11 N5         -0.2090    1.6010    1.0020 nc        1 0FT     -0.348000
     12 N6          1.0170    1.3000    0.9280 nd        1 0FT     -0.152800
     13 N7          1.3880    1.1650   -0.3740 na        1 0FT      0.016400
     14 C1'         2.6790    0.6690   -0.8440 c3        1 0FT      0.234800
     15 O4'         2.7310   -0.7540   -0.7450 os        1 0FT     -0.417600
     16 C4'         3.6200   -1.1580    0.3140 c3        1 0FT      0.094100
     17 C5'         4.3070   -2.4420   -0.1500 c3        1 0FT      0.134400
     18 O5'         3.3930   -3.5120   -0.2290 oh        1 0FT     -0.588800
     19 C3'         4.6140   -0.0020    0.5250 c3        1 0FT      0.123100
     20 O3'         4.8230    0.1400    1.9130 oh        1 0FT     -0.575800
     21 C2'         3.9070    1.2420   -0.0670 c3        1 0FT      0.079100
     22 O2'         4.8000    1.8470   -0.9790 oh        1 0FT     -0.587800
     23 H1         -2.9580    1.1520    1.7500 h4        1 0FT      0.179000
     24 H2         -2.4990    2.8780    0.0470 h1        1 0FT      0.088700
     25 H3         -2.2700    2.2970   -1.6820 h1        1 0FT      0.088700
     26 H4          0.2950    1.2680   -2.2850 h4        1 0FT      0.203000
     27 H5         -4.7280   -1.4870   -1.9510 hn        1 0FT      0.351500
     28 H6         -5.6420   -0.7600    2.7970 hc        1 0FT      0.051700
     29 H7         -4.3600   -2.0370    2.7520 hc        1 0FT      0.051700
     30 H8         -3.9580   -0.3700    3.3630 hc        1 0FT      0.051700
     31 H9          2.7420    0.9020   -1.9490 h2        1 0FT      0.101700
     32 H10         3.0090   -1.3410    1.2390 h1        1 0FT      0.102700
     33 H11         4.8040   -2.2770   -1.1430 h1        1 0FT      0.059200
     34 H12         5.0640   -2.7560    0.6170 h1        1 0FT      0.059200
     35 H13         2.6970   -3.2490   -0.8450 ho        1 0FT      0.413000
     36 H14         5.5850   -0.1860   -0.0110 h1        1 0FT      0.075700
     37 H15         5.5290    0.7890    2.0240 ho        1 0FT      0.414000
     38 H16         3.6200    1.9570    0.7480 h1        1 0FT      0.092700
     39 H17         4.4480    2.7220   -1.1850 ho        1 0FT      0.414000
     40 C7         -2.1850    2.0020   -0.5940 c3        1 0FT      0.087700
     41 O2         -3.2720    0.4310   -2.6170 o         1 0FT     -0.654500
@<TRIPOS>BOND
     1    1    2 1   
     2    1    7 1   
     3    1    9 2   
     4    2    3 2   
     5    2   10 1   
     6    3    6 1   
     7    3   23 1   
     8    4    5 2   
     9    4   11 1   
    10    4   40 1   
    11    5   13 1   
    12    5   26 1   
    13    6    8 1   
    14    6   40 1   
    15    7    8 1   
    16    7   27 1   
    17    8   41 2   
    18   10   28 1   
    19   10   29 1   
    20   10   30 1   
    21   11   12 2   
    22   12   13 1   
    23   13   14 1   
    24   14   15 1   
    25   14   21 1   
    26   14   31 1   
    27   15   16 1   
    28   16   17 1   
    29   16   19 1   
    30   16   32 1   
    31   17   18 1   
    32   17   33 1   
    33   17   34 1   
    34   18   35 1   
    35   19   20 1   
    36   19   21 1   
    37   19   36 1   
    38   20   37 1   
    39   21   22 1   
    40   21   38 1   
    41   22   39 1   
    42   24   40 1   
    43   25   40 1   
@<TRIPOS>SUBSTRUCTURE
     1 0FT         1 TEMP              0 ****  ****    0 ROOT
