@<TRIPOS>MOLECULE
0FT
   41    41     1     0     0
SMALL
bcc


@<TRIPOS>ATOM
      1 C4          0.0850    0.7200    0.5260 c         1 0FT      0.716700
      2 C5          0.7230    1.9190    1.0950 cc        1 0FT     -0.257400
      3 C6          1.5780    1.8000    2.1490 cd        1 0FT      0.042600
      4 C8          2.0330    0.8800    5.1440 cc        1 0FT      0.212600
      5 C9          1.5520    0.0540    6.1690 cd        1 0FT     -0.148600
      6 N1          1.9120    0.5710    2.7020 n         1 0FT     -0.371000
      7 N3          0.4150   -0.5070    1.1330 n         1 0FT     -0.583500
      8 C2          1.2870   -0.6120    2.2230 c         1 0FT      0.804500
      9 O4         -0.7130    0.7110   -0.4260 o         1 0FT     -0.610500
     10 C5A         0.4010    3.2220    0.4810 c3        1 0FT     -0.030900
     11 N5          1.7280    2.2200    5.5160 nc        1 0FT     -0.355000
     12 N6          1.1390    2.2460    6.6300 nd        1 0FT     -0.127800
     13 N7          0.9960    0.9610    7.0980 na        1 0FT      0.215400
     14 C1'         0.4090    0.6130    8.2590 c1        1 0FT     -0.162300
     15 O4'         1.8970    6.9870    3.8270 os        1 0FT     -0.467600
     16 C4'         3.2020    7.4430    3.4690 c3        1 0FT      0.087400
     17 C5'         1.3860    5.9820    2.9790 c3        1 0FT      0.325200
     18 O5'         2.1120    4.8150    3.2640 oh        1 0FT     -0.646800
     19 C3'         3.6150    8.4410    4.5450 c3        1 0FT      0.131400
     20 O3'         2.8080    9.5990    4.5200 oh        1 0FT     -0.599800
     21 C2'        -0.1250    0.3760    9.3030 c1        1 0FT      0.031600
     22 O2'        -0.7970    0.0300   10.3810 oh        1 0FT     -0.347600
     23 H1          2.0600    2.6870    2.6150 h4        1 0FT      0.198000
     24 H2          3.1100   -0.5610    3.9970 h1        1 0FT      0.090700
     25 H3          3.6210    1.1860    3.7360 h1        1 0FT      0.090700
     26 H4          1.5490   -1.0260    6.3140 h4        1 0FT      0.214000
     27 H5          0.0050   -1.3520    0.7960 hn        1 0FT      0.351500
     28 H6          0.7580    4.0650    1.1260 hc        1 0FT      0.050700
     29 H7         -0.7050    3.3140    0.3370 hc        1 0FT      0.050700
     30 H8          0.8870    3.3040   -0.5230 hc        1 0FT      0.050700
     31 H9          0.2990    5.8940    3.2480 h2        1 0FT      0.063700
     32 H10         3.9090    6.5740    3.4360 h1        1 0FT      0.046200
     33 H11         1.5490    6.1950    1.8900 h2        1 0FT      0.063700
     34 H12         3.1550    7.9370    2.4620 h1        1 0FT      0.046200
     35 H13         2.0300    4.6330    4.2100 ho        1 0FT      0.432000
     36 H14         3.5660    7.9570    5.5560 h1        1 0FT      0.053700
     37 H15         1.8930    9.3070    4.6300 ho        1 0FT      0.412000
     38 H16         4.6570    8.8060    4.3440 h1        1 0FT      0.053700
     39 H17        -0.1660    0.0850   11.1280 ho        1 0FT      0.439000
     40 C7          2.7360    0.5010    3.8900 c3        1 0FT      0.087700
     41 O2          1.5280   -1.7250    2.7430 o         1 0FT     -0.655500
@<TRIPOS>BOND
     1    1    2 1   
     2    1    7 1   
     3    1    9 2   
     4    2    3 2   
     5    2   10 1   
     6    3    6 1   
     7    3   23 1   
     8    4    5 2   
     9    4   11 1   
    10    4   40 1   
    11    5   13 1   
    12    5   26 1   
    13    6    8 1   
    14    6   40 1   
    15    7    8 1   
    16    7   27 1   
    17    8   41 2   
    18   10   28 1   
    19   10   29 1   
    20   10   30 1   
    21   11   12 2   
    22   12   13 1   
    23   13   14 1   
    24   14   21 3   
    25   15   16 1   
    26   15   17 1   
    27   16   19 1   
    28   16   32 1   
    29   16   34 1   
    30   17   18 1   
    31   17   31 1   
    32   17   33 1   
    33   18   35 1   
    34   19   20 1   
    35   19   36 1   
    36   19   38 1   
    37   20   37 1   
    38   21   22 1   
    39   22   39 1   
    40   24   40 1   
    41   25   40 1   
@<TRIPOS>SUBSTRUCTURE
     1 0FT         1 TEMP              0 ****  ****    0 ROOT
