@<TRIPOS>MOLECULE
0FU
   17    17     1     0     0
SMALL
bcc


@<TRIPOS>ATOM
      1 C4          0.4620    1.1010   -0.0800 ca        1 0FU      0.677600
      2 N3         -0.8870    1.2120   -0.0890 nb        1 0FU     -0.853000
      3 C2         -1.5800    0.0100   -0.0890 ca        1 0FU      0.927900
      4 NAA        -2.9730    0.0740   -0.2180 nh        1 0FU     -0.927500
      5 N1         -1.0070   -1.2440   -0.0320 nb        1 0FU     -0.839000
      6 C6          0.3620   -1.3130   -0.0080 ca        1 0FU      0.745200
      7 NAB         0.9490   -2.5580    0.1360 nh        1 0FU     -0.935500
      8 C5          1.1850   -0.1230   -0.0570 ca        1 0FU     -0.291000
      9 NAC         2.5940   -0.2160   -0.1060 nh        1 0FU     -0.761200
     10 O4          1.2170    2.2510   -0.1030 oh        1 0FU     -0.626300
     11 H1         -3.4790   -0.7430    0.0360 hn        1 0FU      0.426300
     12 H2         -3.3990    0.9430    0.0040 hn        1 0FU      0.426300
     13 H3          0.3850   -3.3620   -0.0090 hn        1 0FU      0.431800
     14 H4          1.9070   -2.6320   -0.1170 hn        1 0FU      0.431800
     15 H7          2.9580    0.4790   -0.7320 hn        1 0FU      0.359800
     16 H8          2.9780   -0.0560    0.8080 hn        1 0FU      0.359800
     17 H71         0.6300    3.0250   -0.1530 ho        1 0FU      0.447000
@<TRIPOS>BOND
     1    1    2 ar  
     2    1    8 ar  
     3    1   10 1   
     4    2    3 ar  
     5    3    4 1   
     6    3    5 ar  
     7    4   11 1   
     8    4   12 1   
     9    5    6 ar  
    10    6    7 1   
    11    6    8 ar  
    12    7   13 1   
    13    7   14 1   
    14    8    9 1   
    15    9   15 1   
    16    9   16 1   
    17   10   17 1   
@<TRIPOS>SUBSTRUCTURE
     1 0FU         1 TEMP              0 ****  ****    0 ROOT
