@<TRIPOS>MOLECULE
0FU
   17    17     1     0     0
SMALL
bcc


@<TRIPOS>ATOM
      1 C4         -0.0200    0.1830    0.0750 ca        1 0FU      0.677600
      2 N3          1.3290    0.1360   -0.0320 nb        1 0FU     -0.854000
      3 C2          2.0120   -0.0540    1.1610 ca        1 0FU      0.928900
      4 NAA         3.4100    0.0020    1.1160 nh        1 0FU     -0.928500
      5 N1          1.4270   -0.2490    2.3960 nb        1 0FU     -0.841000
      6 C6          0.0590   -0.1800    2.4650 ca        1 0FU      0.747200
      7 NAB        -0.5360   -0.2580    3.7100 nh        1 0FU     -0.937500
      8 C5         -0.7530    0.0280    1.2840 ca        1 0FU     -0.291000
      9 NAC        -2.1640    0.0300    1.3640 nh        1 0FU     -0.762200
     10 O4         -0.7630    0.3710   -1.0670 oh        1 0FU     -0.626300
     11 H1          3.8960   -0.3730    1.8960 hn        1 0FU      0.427300
     12 H2          3.8320   -0.1290    0.2260 hn        1 0FU      0.427300
     13 H3         -1.5020   -0.4840    3.7350 hn        1 0FU      0.433300
     14 H4          0.0170   -0.5570    4.4790 hn        1 0FU      0.433300
     15 H7         -2.5510   -0.4170    0.5520 hn        1 0FU      0.359800
     16 H8         -2.5010    0.9750    1.4020 hn        1 0FU      0.359800
     17 H71        -0.1690    0.4480   -1.8320 ho        1 0FU      0.447000
@<TRIPOS>BOND
     1    1    2 ar  
     2    1    8 ar  
     3    1   10 1   
     4    2    3 ar  
     5    3    4 1   
     6    3    5 ar  
     7    4   11 1   
     8    4   12 1   
     9    5    6 ar  
    10    6    7 1   
    11    6    8 ar  
    12    7   13 1   
    13    7   14 1   
    14    8    9 1   
    15    9   15 1   
    16    9   16 1   
    17   10   17 1   
@<TRIPOS>SUBSTRUCTURE
     1 0FU         1 TEMP              0 ****  ****    0 ROOT
