@<TRIPOS>MOLECULE
0FU
   17    14     1     0     0
SMALL
bcc


@<TRIPOS>ATOM
      1 C4         -0.2720    0.0120   -1.3330 c1        1 0FU      0.179000
      2 N3          1.0700    0.0120   -1.3330 n1        1 0FU     -0.328000
      3 C2          1.7520    0.0120   -0.1530 c1        1 0FU      0.210000
      4 NAA         3.1700    0.0140   -0.1540 n3        1 0FU     -0.326000
      5 N1          1.0720    0.0120    1.0280 n1        1 0FU     -0.315000
      6 C6         -0.2690    0.0120    1.0300 c1        1 0FU      0.226000
      7 NAB        -0.9760   -0.0250    2.2600 n2        1 0FU     -0.335000
      8 C5         -0.9530    0.0120   -0.1500 c2        1 0FU     -0.242000
      9 NAC        -2.3710    0.0700   -0.1490 n3        1 0FU     -0.271000
     10 O4         -0.9750    0.0490   -2.5510 oh        1 0FU     -0.255000
     11 H1          3.6270   -0.5590   -0.6980 hn        1 0FU      0.222500
     12 H2          3.6260    0.5900    0.3860 hn        1 0FU      0.222500
     13 H3         -1.2760    0.7500    2.6360 hn        1 0FU      0.228500
     14 H4         -1.0860   -0.8170    2.6990 hn        1 0FU      0.228500
     15 H7         -2.8590   -0.6930   -0.2550 hn        1 0FU      0.155000
     16 H8         -2.7940    0.8750   -0.0760 hn        1 0FU      0.155000
     17 H71        -0.4840   -0.3250   -3.1880 ho        1 0FU      0.246000
@<TRIPOS>BOND
     1    1    8 1   
     2    1   10 1   
     3    2    3 1   
     4    3    4 1   
     5    4   11 1   
     6    4   12 1   
     7    5    6 1   
     8    6    8 1   
     9    7   13 1   
    10    7   14 1   
    11    8    9 1   
    12    9   15 1   
    13    9   16 1   
    14   10   17 1   
@<TRIPOS>SUBSTRUCTURE
     1 0FU         1 TEMP              0 ****  ****    0 ROOT
