@<TRIPOS>MOLECULE
0FU
   20    20     1     0     0
SMALL
bcc


@<TRIPOS>ATOM
      1 C4         -0.0180   -0.1020   -0.0240 ca        1 0FU      0.811600
      2 N3          1.3500   -0.1170   -0.0850 nb        1 0FU     -0.670000
      3 C2          2.0160   -0.0490    1.0960 ca        1 0FU      0.880900
      4 NAA         3.5080   -0.0640    1.0470 n4        1 0FU     -0.828300
      5 N1          1.4330    0.0320    2.3470 nb        1 0FU     -0.682000
      6 C6          0.0790    0.0460    2.4040 ca        1 0FU      0.642200
      7 NAB        -0.4880    0.1340    3.7700 n4        1 0FU     -0.855300
      8 C5         -0.7430   -0.0190    1.2370 ca        1 0FU     -0.284000
      9 NAC        -2.1950   -0.0090    1.2230 n4        1 0FU     -0.706000
     10 O4         -0.7680   -0.1650   -1.1310 oh        1 0FU     -0.548300
     11 H1          3.8820    0.8070    1.4730 hn        1 0FU      0.528800
     12 H2          3.8690   -0.8810    1.5760 hn        1 0FU      0.528800
     13 H3         -1.0620   -0.7000    3.9780 hn        1 0FU      0.518800
     14 H4         -1.0490    0.9970    3.8740 hn        1 0FU      0.518800
     15 H7         -2.5830   -0.8250    1.7250 hn        1 0FU      0.509800
     16 H8         -2.5360   -0.0670    0.2350 hn        1 0FU      0.509800
     17 H71        -0.2440   -0.2210   -1.9770 ho        1 0FU      0.570000
     18 HAA3        3.8410   -0.1270    0.0620 hn        1 0FU      0.528800
     19 HAB3        0.2740    0.1720    4.4880 hn        1 0FU      0.518800
     20 HAC3       -2.5700    0.8680    1.6220 hn        1 0FU      0.509800
@<TRIPOS>BOND
     1    1    2 ar  
     2    1    8 ar  
     3    1   10 1   
     4    2    3 ar  
     5    3    4 1   
     6    3    5 ar  
     7    4   11 1   
     8    4   12 1   
     9    4   18 1   
    10    5    6 ar  
    11    6    7 1   
    12    6    8 ar  
    13    7   13 1   
    14    7   14 1   
    15    7   19 1   
    16    8    9 1   
    17    9   15 1   
    18    9   16 1   
    19    9   20 1   
    20   10   17 1   
@<TRIPOS>SUBSTRUCTURE
     1 0FU         1 TEMP              0 ****  ****    0 ROOT
