@<TRIPOS>MOLECULE
0FU
   17    17     1     0     0
SMALL
bcc


@<TRIPOS>ATOM
      1 C4          0.0170   -0.0790   -0.0480 ca        1 0FU      0.730600
      2 N3          1.3710   -0.0380   -0.0870 nb        1 0FU     -0.860000
      3 C2          2.0130    0.1110    1.1320 ca        1 0FU      0.930900
      4 NAA         3.3990    0.2810    1.1130 nv        1 0FU     -0.930500
      5 N1          1.3840    0.1410    2.3630 nb        1 0FU     -0.831000
      6 C6          0.0180    0.1130    2.3620 ca        1 0FU      0.672200
      7 NAB        -0.6470    0.2570    3.5870 nv        1 0FU     -0.927500
      8 C5         -0.7580    0.0080    1.1490 ca        1 0FU     -0.269000
      9 NAC        -2.1670    0.0260    1.0990 nv        1 0FU     -0.758200
     10 O4         -0.6490   -0.2270   -1.2350 oh        1 0FU     -0.582300
     11 H1          3.8750    0.0090    0.2860 hn        1 0FU      0.429800
     12 H2          3.8810    0.1480    1.9710 hn        1 0FU      0.429800
     13 H3         -1.4700   -0.2950    3.6770 hn        1 0FU      0.406800
     14 H4         -0.0710    0.2520    4.4010 hn        1 0FU      0.406800
     15 H7         -2.5300    0.8340    1.5670 hn        1 0FU      0.356800
     16 H8         -2.5500   -0.8060    1.5050 hn        1 0FU      0.356800
     17 H71        -0.0060   -0.2470   -1.9650 ho        1 0FU      0.437000
@<TRIPOS>BOND
     1    1    2 ar  
     2    1    8 ar  
     3    1   10 1   
     4    2    3 ar  
     5    3    4 1   
     6    3    5 ar  
     7    4   11 1   
     8    4   12 1   
     9    5    6 ar  
    10    6    7 1   
    11    6    8 ar  
    12    7   13 1   
    13    7   14 1   
    14    8    9 1   
    15    9   15 1   
    16    9   16 1   
    17   10   17 1   
@<TRIPOS>SUBSTRUCTURE
     1 0FU         1 TEMP              0 ****  ****    0 ROOT
