@<TRIPOS>MOLECULE
0FV
   36    32     1     0     0
SMALL
bcc


@<TRIPOS>ATOM
      1 C1          1.9250   -0.9000   -0.2120 c3        1 0FV      0.158000
      2 O1          3.3100   -1.1540   -0.1920 os        1 0FV     -0.680000
      3 C2          1.4100   -0.7990    1.2080 c1        1 0FV      0.147000
      4 F2          2.2030   -1.1370    2.2320 f         1 0FV     -0.121000
      5 C3          0.1550   -0.3690    1.4400 c1        1 0FV     -0.395000
      6 C4         -0.3590   -0.2680    2.8600 c3        1 0FV     -0.114000
      7 C5         -0.7410    0.0120    0.2820 c2        1 0FV     -0.059000
      8 C6         -1.8910    0.8540    0.7900 c3        1 0FV     -0.154000
      9 C7         -2.7820    1.2430   -0.3690 c2        1 0FV     -0.083000
     10 C8         -3.8900    1.9780   -0.1500 c1        1 0FV     -0.212000
     11 C9         -4.7810    2.3670   -1.3090 c3        1 0FV     -0.153000
     12 C10        -4.2440    2.4130    1.2550 c2        1 0FV     -0.154000
     13 PA          3.9700   -1.8250   -1.4620 p5        1 0FV      2.060000
     14 O1A         3.4720   -3.2440   -1.5980 o         1 0FV     -0.933500
     15 O2A         3.5980   -1.0410   -2.6970 o         1 0FV     -0.933500
     16 O3A         5.5420   -1.8330   -1.2960 os        1 0FV     -1.192000
     17 PB          6.5170   -2.6600   -2.2260 p5        1 0FV      1.616500
     18 O1B         5.9090   -2.7920   -3.6020 o         1 0FV     -0.921500
     19 O2B         7.8430   -1.9450   -2.3280 o         1 0FV     -0.921500
     20 O3B         6.7300   -4.0330   -1.6360 o         1 0FV     -0.921500
     21 H1          1.7540   -0.0570   -0.6820 h1        1 0FV      0.026500
     22 H2          1.4650   -1.6310   -0.6740 h1        1 0FV      0.026500
     23 H3          0.2730   -0.7050    3.4680 hc        1 0FV      0.032000
     24 H4         -1.2320   -0.7110    2.9230 hc        1 0FV      0.032000
     25 H5         -0.4530    0.6750    3.1070 hc        1 0FV      0.032000
     26 H6         -1.0920   -0.7980   -0.1390 ha        1 0FV      0.072000
     27 H7         -0.2270    0.5240   -0.3730 ha        1 0FV      0.072000
     28 H8         -1.5400    1.6610    1.2170 hc        1 0FV      0.095000
     29 H9         -2.4090    0.3390    1.4410 hc        1 0FV      0.095000
     30 H10        -2.5550    0.9590   -1.2750 ha        1 0FV      0.132000
     31 H11        -4.3570    3.0890   -1.8190 hc        1 0FV      0.057000
     32 H12        -5.6470    2.6730   -0.9680 hc        1 0FV      0.057000
     33 H13        -4.9150    1.5910   -1.8930 hc        1 0FV      0.057000
     34 H14        -4.4280    1.6230    1.8050 ha        1 0FV      0.060333
     35 H15        -5.0390    2.9860    1.2290 ha        1 0FV      0.060333
     36 H16        -3.4940    2.9120    1.6410 ha        1 0FV      0.060333
@<TRIPOS>BOND
     1    1    2 1   
     2    1    3 1   
     3    1   21 1   
     4    1   22 1   
     5    2   13 1   
     6    3    5 1   
     7    5    6 1   
     8    6   23 1   
     9    6   24 1   
    10    6   25 1   
    11    7    8 1   
    12    7   26 1   
    13    7   27 1   
    14    8    9 1   
    15    8   28 1   
    16    8   29 1   
    17    9   10 1   
    18    9   30 1   
    19   10   11 1   
    20   11   31 1   
    21   11   32 1   
    22   11   33 1   
    23   12   34 1   
    24   12   35 1   
    25   12   36 1   
    26   13   14 1   
    27   13   15 1   
    28   13   16 1   
    29   16   17 1   
    30   17   18 1   
    31   17   19 1   
    32   17   20 1   
@<TRIPOS>SUBSTRUCTURE
     1 0FV         1 TEMP              0 ****  ****    0 ROOT
