@<TRIPOS>MOLECULE
0FV
   36    35     1     0     0
SMALL
bcc


@<TRIPOS>ATOM
      1 C1         -0.1260   -1.0750   -1.1220 c3        1 0FV      0.237600
      2 O1         -0.7060   -0.4500   -0.0590 os        1 0FV     -0.554200
      3 C2          1.4030   -1.0430   -1.0720 c2        1 0FV      0.114300
      4 F2          1.9630   -0.8920   -2.3130 f         1 0FV     -0.244500
      5 C3          2.2230   -1.1800    0.0010 c2        1 0FV     -0.224400
      6 C4          1.7370   -1.3930    1.3810 c3        1 0FV     -0.056900
      7 C5          3.7090   -1.1460   -0.1460 c3        1 0FV     -0.017200
      8 C6          4.2550    0.2490    0.1070 c3        1 0FV     -0.064200
      9 C7          5.7310    0.3100    0.0230 c2        1 0FV     -0.119200
     10 C8          6.4450    1.4360    0.1960 c2        1 0FV     -0.192400
     11 C9          5.7960    2.7350    0.4900 c3        1 0FV     -0.040900
     12 C10         7.9240    1.4520    0.1030 c3        1 0FV     -0.040900
     13 PA         -1.8870   -1.3270    0.8450 p5        1 0FV      1.569800
     14 O1A        -1.7040   -2.7190    0.3340 o         1 0FV     -0.917500
     15 O2A        -1.3660   -1.0700    2.2200 o         1 0FV     -0.917500
     16 O3A        -3.2110   -0.6370    0.4400 os        1 0FV     -0.799800
     17 PB         -4.7880    0.0790   -0.0360 p5        1 0FV      1.455900
     18 O1B        -4.7000    1.5070    0.4240 o         1 0FV     -0.956167
     19 O2B        -4.8140   -0.0970   -1.5280 o         1 0FV     -0.956167
     20 O3B        -5.7740   -0.7650    0.7220 o         1 0FV     -0.956167
     21 H1         -0.4330   -2.1640   -1.1830 h1        1 0FV      0.040200
     22 H2         -0.4090   -0.5480   -2.0840 h1        1 0FV      0.040200
     23 H3          1.9430   -2.4470    1.6950 hc        1 0FV      0.054367
     24 H4          2.2750   -0.7090    2.0850 hc        1 0FV      0.054367
     25 H5          0.6230   -1.2040    1.4860 hc        1 0FV      0.054367
     26 H6          4.1720   -1.8610    0.5860 hc        1 0FV      0.016200
     27 H7          4.0130   -1.4770   -1.1750 hc        1 0FV      0.016200
     28 H8          3.8040    0.9600   -0.6390 hc        1 0FV      0.067700
     29 H9          3.9180    0.5990    1.1230 hc        1 0FV      0.067700
     30 H10         6.2420   -0.6430   -0.1960 ha        1 0FV      0.106000
     31 H11         5.1810    2.6600    1.4230 hc        1 0FV      0.027033
     32 H12         6.5490    3.5480    0.6240 hc        1 0FV      0.027033
     33 H13         5.1060    3.0210   -0.3440 hc        1 0FV      0.027033
     34 H14         8.3690    1.8020    1.0680 hc        1 0FV      0.027033
     35 H15         8.3330    0.4370   -0.1240 hc        1 0FV      0.027033
     36 H16         8.2540    2.1530   -0.7040 hc        1 0FV      0.027033
@<TRIPOS>BOND
     1    1    2 1   
     2    1    3 1   
     3    1   21 1   
     4    1   22 1   
     5    2   13 1   
     6    3    4 1   
     7    3    5 2   
     8    5    6 1   
     9    5    7 1   
    10    6   23 1   
    11    6   24 1   
    12    6   25 1   
    13    7    8 1   
    14    7   26 1   
    15    7   27 1   
    16    8    9 1   
    17    8   28 1   
    18    8   29 1   
    19    9   10 2   
    20    9   30 1   
    21   10   11 1   
    22   10   12 1   
    23   11   31 1   
    24   11   32 1   
    25   11   33 1   
    26   12   34 1   
    27   12   35 1   
    28   12   36 1   
    29   13   14 1   
    30   13   15 1   
    31   13   16 1   
    32   16   17 1   
    33   17   18 1   
    34   17   19 1   
    35   17   20 1   
@<TRIPOS>SUBSTRUCTURE
     1 0FV         1 TEMP              0 ****  ****    0 ROOT
