@<TRIPOS>MOLECULE
0FV
   36    35     1     0     0
SMALL
bcc


@<TRIPOS>ATOM
      1 C1          0.5920   -0.6710    0.0650 c3        1 0FV      0.237600
      2 O1          1.6920    0.1330    0.0210 os        1 0FV     -0.554200
      3 C2         -0.2990   -0.3960    1.2780 c2        1 0FV      0.114300
      4 F2         -0.8520   -1.5390    1.7910 f         1 0FV     -0.244500
      5 C3         -0.6200    0.7950    1.8470 c2        1 0FV     -0.224400
      6 C4         -0.1220    2.0970    1.3550 c3        1 0FV     -0.056900
      7 C5         -1.5340    0.8740    3.0240 c3        1 0FV     -0.017200
      8 C6         -0.7530    0.9050    4.3270 c3        1 0FV     -0.064200
      9 C7         -1.6260    1.0430    5.5140 c2        1 0FV     -0.118200
     10 C8         -1.1750    1.0360    6.7800 c2        1 0FV     -0.192400
     11 C9          0.2650    0.8810    7.0960 c3        1 0FV     -0.041400
     12 C10        -2.0840    1.1790    7.9410 c3        1 0FV     -0.041400
     13 PA          1.9890    1.0110   -1.4360 p5        1 0FV      1.569800
     14 O1A         0.7010    0.8410   -2.1740 o         1 0FV     -0.917500
     15 O2A         2.2240    2.3630   -0.8500 o         1 0FV     -0.917500
     16 O3A         3.2060    0.2720   -2.0400 os        1 0FV     -0.799800
     17 PB          4.5780   -0.5810   -2.8270 p5        1 0FV      1.455900
     18 O1B         5.7150   -0.4260   -1.8560 o         1 0FV     -0.956167
     19 O2B         4.0730   -1.9880   -2.9790 o         1 0FV     -0.956167
     20 O3B         4.7430    0.1790   -4.1130 o         1 0FV     -0.956167
     21 H1         -0.0530   -0.5440   -0.8570 h1        1 0FV      0.040200
     22 H2          0.9070   -1.7550    0.1600 h1        1 0FV      0.040200
     23 H3          0.7250    1.9880    0.6060 hc        1 0FV      0.054367
     24 H4          0.2480    2.7140    2.2130 hc        1 0FV      0.054367
     25 H5         -0.9550    2.6570    0.8590 hc        1 0FV      0.054367
     26 H6         -2.2370   -0.0010    3.0390 hc        1 0FV      0.016200
     27 H7         -2.1600    1.8030    2.9480 hc        1 0FV      0.016200
     28 H8         -0.1430   -0.0360    4.4120 hc        1 0FV      0.067200
     29 H9         -0.0190    1.7580    4.2970 hc        1 0FV      0.067200
     30 H10        -2.7040    1.1570    5.3110 ha        1 0FV      0.105000
     31 H11         0.8680    1.6520    6.5510 hc        1 0FV      0.027033
     32 H12         0.4580    0.9850    8.1910 hc        1 0FV      0.027033
     33 H13         0.6270   -0.1250    6.7640 hc        1 0FV      0.027033
     34 H14        -1.8150    2.0880    8.5350 hc        1 0FV      0.027033
     35 H15        -3.1510    1.2730    7.6190 hc        1 0FV      0.027033
     36 H16        -1.9980    0.2890    8.6130 hc        1 0FV      0.027033
@<TRIPOS>BOND
     1    1    2 1   
     2    1    3 1   
     3    1   21 1   
     4    1   22 1   
     5    2   13 1   
     6    3    4 1   
     7    3    5 2   
     8    5    6 1   
     9    5    7 1   
    10    6   23 1   
    11    6   24 1   
    12    6   25 1   
    13    7    8 1   
    14    7   26 1   
    15    7   27 1   
    16    8    9 1   
    17    8   28 1   
    18    8   29 1   
    19    9   10 2   
    20    9   30 1   
    21   10   11 1   
    22   10   12 1   
    23   11   31 1   
    24   11   32 1   
    25   11   33 1   
    26   12   34 1   
    27   12   35 1   
    28   12   36 1   
    29   13   14 1   
    30   13   15 1   
    31   13   16 1   
    32   16   17 1   
    33   17   18 1   
    34   17   19 1   
    35   17   20 1   
@<TRIPOS>SUBSTRUCTURE
     1 0FV         1 TEMP              0 ****  ****    0 ROOT
