@<TRIPOS>MOLECULE
0FV
   36    35     1     0     0
SMALL
bcc


@<TRIPOS>ATOM
      1 C1          0.5820   -0.6530    0.0510 c3        1 0FV      0.237600
      2 O1          1.6910    0.1380    0.0180 os        1 0FV     -0.554200
      3 C2         -0.3090   -0.3830    1.2650 c2        1 0FV      0.114300
      4 F2         -0.8760   -1.5260    1.7630 f         1 0FV     -0.244500
      5 C3         -0.6170    0.8050    1.8470 c2        1 0FV     -0.224400
      6 C4         -0.1030    2.1070    1.3720 c3        1 0FV     -0.056900
      7 C5         -1.5330    0.8800    3.0240 c3        1 0FV     -0.017200
      8 C6         -0.7550    0.8870    4.3290 c3        1 0FV     -0.064200
      9 C7         -1.6290    1.0170    5.5150 c2        1 0FV     -0.118200
     10 C8         -1.1780    1.0160    6.7810 c2        1 0FV     -0.192400
     11 C9          0.2630    0.8780    7.0970 c3        1 0FV     -0.040900
     12 C10        -2.0900    1.1500    7.9420 c3        1 0FV     -0.040900
     13 PA          2.0010    1.0300   -1.4280 p5        1 0FV      1.569800
     14 O1A         0.7120    0.8850   -2.1680 o         1 0FV     -0.917500
     15 O2A         2.2520    2.3720   -0.8240 o         1 0FV     -0.917500
     16 O3A         3.2090    0.2830   -2.0390 os        1 0FV     -0.799800
     17 PB          4.5720   -0.5770   -2.8340 p5        1 0FV      1.455900
     18 O1B         5.7100   -0.4480   -1.8610 o         1 0FV     -0.956167
     19 O2B         4.0490   -1.9760   -3.0050 o         1 0FV     -0.956167
     20 O3B         4.7480    0.1970   -4.1120 o         1 0FV     -0.956167
     21 H1         -0.0600   -0.5090   -0.8710 h1        1 0FV      0.040200
     22 H2          0.8840   -1.7420    0.1340 h1        1 0FV      0.040200
     23 H3         -0.9280    2.6820    0.8820 hc        1 0FV      0.054367
     24 H4          0.2720    2.7090    2.2380 hc        1 0FV      0.054367
     25 H5          0.7440    1.9960    0.6240 hc        1 0FV      0.054367
     26 H6         -2.1490    1.8170    2.9570 hc        1 0FV      0.016200
     27 H7         -2.2460    0.0120    3.0260 hc        1 0FV      0.016200
     28 H8         -0.0130    1.7320    4.3110 hc        1 0FV      0.067700
     29 H9         -0.1550   -0.0620    4.4020 hc        1 0FV      0.067700
     30 H10        -2.7080    1.1200    5.3110 ha        1 0FV      0.106000
     31 H11         0.8520    1.6780    6.5810 hc        1 0FV      0.027033
     32 H12         0.4510    0.9480    8.1960 hc        1 0FV      0.027033
     33 H13         0.6460   -0.1090    6.7320 hc        1 0FV      0.027033
     34 H14        -3.1560    1.2390    7.6200 hc        1 0FV      0.027033
     35 H15        -1.9980    0.2580    8.6110 hc        1 0FV      0.027033
     36 H16        -1.8260    2.0580    8.5390 hc        1 0FV      0.027033
@<TRIPOS>BOND
     1    1    2 1   
     2    1    3 1   
     3    1   21 1   
     4    1   22 1   
     5    2   13 1   
     6    3    4 1   
     7    3    5 2   
     8    5    6 1   
     9    5    7 1   
    10    6   23 1   
    11    6   24 1   
    12    6   25 1   
    13    7    8 1   
    14    7   26 1   
    15    7   27 1   
    16    8    9 1   
    17    8   28 1   
    18    8   29 1   
    19    9   10 2   
    20    9   30 1   
    21   10   11 1   
    22   10   12 1   
    23   11   31 1   
    24   11   32 1   
    25   11   33 1   
    26   12   34 1   
    27   12   35 1   
    28   12   36 1   
    29   13   14 1   
    30   13   15 1   
    31   13   16 1   
    32   16   17 1   
    33   17   18 1   
    34   17   19 1   
    35   17   20 1   
@<TRIPOS>SUBSTRUCTURE
     1 0FV         1 TEMP              0 ****  ****    0 ROOT
