@<TRIPOS>MOLECULE
0FW
   51    54     1     0     0
SMALL
bcc


@<TRIPOS>ATOM
      1 OAA        -3.8140   -4.3690    1.5710 o         1 0FW     -0.839800
      2 OAB        -1.1650   -2.5650   -0.9940 o         1 0FW     -0.860800
      3 OAC         1.5050    3.9680   -0.7550 o         1 0FW     -0.654100
      4 OAD        -2.2530   -3.4070    2.8350 o         1 0FW     -0.839800
      5 OAE        -0.5740   -0.6840    0.0290 o         1 0FW     -0.860800
      6 CAF         8.1300   -2.4030   -0.3050 ca        1 0FW     -0.147000
      7 CAG         7.0140   -2.7280   -1.0760 ca        1 0FW     -0.137000
      8 CAH         8.1200   -1.2440    0.4700 ca        1 0FW     -0.137000
      9 CAI        -2.6530    4.6900   -0.8640 ca        1 0FW     -0.108000
     10 CAJ        -1.3530    4.2370   -0.6460 ca        1 0FW     -0.209000
     11 CAK        -3.7660    3.9140   -0.5530 ca        1 0FW     -0.210000
     12 CAL         5.8950   -1.8980   -1.0770 ca        1 0FW     -0.120000
     13 CAM         7.0040   -0.4110    0.4730 ca        1 0FW     -0.120000
     14 CAN        -5.0580   -0.1240    1.5620 ca        1 0FW     -0.173000
     15 CAO         2.2910    0.4400   -0.3910 ca        1 0FW     -0.088500
     16 CAP         3.7480    2.3700   -0.2580 ca        1 0FW     -0.088500
     17 CAQ         3.4160   -0.3890   -0.3770 ca        1 0FW     -0.138500
     18 CAR         4.8620    1.5410   -0.2480 ca        1 0FW     -0.138500
     19 CAS        -4.6440   -1.4110    1.9010 ca        1 0FW     -0.131000
     20 CAT        -2.2730    2.2560    0.4150 ca        1 0FW     -0.217000
     21 CAU        -3.3630   -0.1340   -0.1740 ca        1 0FW     -0.163000
     22 CAX        -3.1350   -3.3650    1.9330 c         1 0FW      0.926200
     23 CAZ         1.3130    2.7940   -0.3560 c         1 0FW      0.674700
     24 CBA        -1.1470    2.9810   -0.0380 ca        1 0FW      0.097600
     25 CBB        -3.5620    2.6660    0.0600 ca        1 0FW      0.156100
     26 CBC        -4.3800    0.5210    0.5260 ca        1 0FW      0.019100
     27 CBD         2.4560    1.8270   -0.3260 ca        1 0FW     -0.141600
     28 CBE         5.8780   -0.7270   -0.3030 cp        1 0FW     -0.010000
     29 CBF         4.7070    0.1470   -0.3070 cp        1 0FW     -0.050000
     30 CBG        -3.5060   -2.0120    1.3340 ca        1 0FW     -0.071600
     31 CBH        -2.8250   -1.3350    0.3110 ca        1 0FW     -0.075600
     32 HAF         9.0090   -3.0610   -0.3030 ha        1 0FW      0.115000
     33 HAG         7.0120   -3.6450   -1.6820 ha        1 0FW      0.120000
     34 HAH         8.9940   -0.9890    1.0870 ha        1 0FW      0.120000
     35 HAI        -2.8000    5.6770   -1.3260 ha        1 0FW      0.104000
     36 HAJ        -0.4970    4.8480   -0.9670 ha        1 0FW      0.154000
     37 HAK        -4.7830    4.2470   -0.7920 ha        1 0FW      0.125000
     38 HAL         5.0130   -2.1610   -1.6830 ha        1 0FW      0.141000
     39 HAM         6.9960    0.4950    1.0960 ha        1 0FW      0.141000
     40 HAN        -5.8750    0.3770    2.0940 ha        1 0FW      0.104000
     41 HAO         1.2870   -0.0490   -0.4540 ha        1 0FW      0.193000
     42 HAP         3.8660    3.4650   -0.2240 ha        1 0FW      0.193000
     43 HAQ         3.2650   -1.4810   -0.4070 ha        1 0FW      0.134500
     44 HAR         5.8700    1.9780   -0.2040 ha        1 0FW      0.134500
     45 HAS        -5.1920   -1.9660    2.6770 ha        1 0FW      0.120000
     46 HAT        -2.1120    1.3210    0.9890 ha        1 0FW      0.203000
     47 HAU        -2.8900    0.3480   -1.0440 ha        1 0FW      0.132000
     48 HNAV        0.0240    1.3630    0.3600 hn        1 0FW      0.388500
     49 CAY        -1.4310   -1.5970   -0.2410 c         1 0FW      0.944200
     50 OAW        -4.6860    1.8720    0.2530 os        1 0FW     -0.267200
     51 NAV         0.0990    2.3480    0.1210 n         1 0FW     -0.443100
@<TRIPOS>BOND
     1    1   22 1   
     2    2   49 1   
     3    3   23 2   
     4    4   22 1   
     5    5   49 1   
     6    6    7 ar  
     7    6    8 ar  
     8    6   32 1   
     9    7   12 ar  
    10    7   33 1   
    11    8   13 ar  
    12    8   34 1   
    13    9   10 ar  
    14    9   11 ar  
    15    9   35 1   
    16   10   24 ar  
    17   10   36 1   
    18   11   25 ar  
    19   11   37 1   
    20   12   28 ar  
    21   12   38 1   
    22   13   28 ar  
    23   13   39 1   
    24   14   19 ar  
    25   14   26 ar  
    26   14   40 1   
    27   15   17 ar  
    28   15   27 ar  
    29   15   41 1   
    30   16   18 ar  
    31   16   27 ar  
    32   16   42 1   
    33   17   29 ar  
    34   17   43 1   
    35   18   29 ar  
    36   18   44 1   
    37   19   30 ar  
    38   19   45 1   
    39   20   24 ar  
    40   20   25 ar  
    41   20   46 1   
    42   21   26 ar  
    43   21   31 ar  
    44   21   47 1   
    45   22   30 1   
    46   23   27 1   
    47   23   51 1   
    48   24   51 1   
    49   25   50 1   
    50   26   50 1   
    51   28   29 1   
    52   30   31 ar  
    53   31   49 1   
    54   48   51 1   
@<TRIPOS>SUBSTRUCTURE
     1 0FW         1 TEMP              0 ****  ****    0 ROOT
