@<TRIPOS>MOLECULE
0FW
   52    55     1     0     0
SMALL
bcc


@<TRIPOS>ATOM
      1 OAA         0.8560   -1.8050    0.3440 o         1 0FW     -0.555000
      2 OAB         2.8800    2.2280   -1.3370 o         1 0FW     -0.812300
      3 OAC         9.1620    4.2130    0.9610 o         1 0FW     -0.589100
      4 OAD         2.6530   -1.5100   -0.8300 oh        1 0FW     -0.600100
      5 OAE         4.5330    0.7550   -1.0160 o         1 0FW     -0.812300
      6 CAF         9.6290   -0.5290   -6.9650 ca        1 0FW     -0.135000
      7 CAG         8.4310    0.1090   -6.6440 ca        1 0FW     -0.135000
      8 CAH        10.6590   -0.5820   -6.0270 ca        1 0FW     -0.135000
      9 CAI         6.5730    4.8070    4.2220 ca        1 0FW     -0.096000
     10 CAJ         7.4500    4.2320    3.3040 ca        1 0FW     -0.172000
     11 CAK         5.3260    4.2490    4.4940 ca        1 0FW     -0.177000
     12 CAL         8.2610    0.6930   -5.3910 ca        1 0FW     -0.115500
     13 CAM        10.4950    0.0020   -4.7730 ca        1 0FW     -0.115500
     14 CAN         2.4780    0.5850    3.5030 ca        1 0FW     -0.178000
     15 CAO         7.7050    1.7880   -1.2220 ca        1 0FW     -0.087000
     16 CAP        10.0150    2.5210   -1.2600 ca        1 0FW     -0.087000
     17 CAQ         7.8790    1.2010   -2.4760 ca        1 0FW     -0.126500
     18 CAR        10.1850    1.9290   -2.5070 ca        1 0FW     -0.126500
     19 CAS         2.0180   -0.2830    2.5190 ca        1 0FW     -0.074000
     20 CAT         5.8730    2.4090    2.9930 ca        1 0FW     -0.228000
     21 CAU         3.3960    2.0050    1.7500 ca        1 0FW     -0.169000
     22 CAX         1.8890   -1.1310    0.2250 c         1 0FW      0.662700
     23 CAZ         8.6240    3.1190    0.7130 c         1 0FW      0.677700
     24 CBA         7.0970    3.0300    2.6580 ca        1 0FW      0.081600
     25 CBB         4.9790    3.0530    3.8500 ca        1 0FW      0.140100
     26 CBC         3.2010    1.7170    3.1020 ca        1 0FW      0.104100
     27 CBD         8.7770    2.4450   -0.6100 ca        1 0FW     -0.163600
     28 CBE         9.1180    1.2620   -3.1280 cp        1 0FW     -0.029000
     29 CBF         9.2940    0.6470   -4.4420 cp        1 0FW     -0.032000
     30 CBG         2.3250   -0.0750    1.1630 ca        1 0FW     -0.174600
     31 CBH         3.0100    1.0810    0.7720 ca        1 0FW     -0.059600
     32 HAF         9.7590   -0.9920   -7.9540 ha        1 0FW      0.123000
     33 HAG         7.6140    0.1500   -7.3790 ha        1 0FW      0.127000
     34 HAH        11.6030   -1.0890   -6.2750 ha        1 0FW      0.127000
     35 HAI         6.8650    5.7420    4.7250 ha        1 0FW      0.126000
     36 HAJ         8.4020    4.7290    3.0620 ha        1 0FW      0.163000
     37 HAK         4.6190    4.7290    5.1820 ha        1 0FW      0.142000
     38 HAL         7.3130    1.1960   -5.1410 ha        1 0FW      0.141000
     39 HAM        11.3070   -0.0500   -4.0330 ha        1 0FW      0.141000
     40 HAN         2.2900    0.3950    4.5670 ha        1 0FW      0.137000
     41 HAO         6.6970    1.7280   -0.7640 ha        1 0FW      0.168500
     42 HAP        10.8450    3.0620   -0.7800 ha        1 0FW      0.168500
     43 HAQ         7.0210    0.6850   -2.9400 ha        1 0FW      0.148000
     44 HAR        11.1580    1.9980   -3.0160 ha        1 0FW      0.148000
     45 HAS         1.4240   -1.1680    2.8000 ha        1 0FW      0.142000
     46 HAT         5.6010    1.4370    2.5470 ha        1 0FW      0.163000
     47 HAU         3.8930    2.9370    1.4390 ha        1 0FW      0.160000
     48 HNAV        3.4310   -0.9260   -0.9350 ho        1 0FW      0.480000
     49 CAY         3.4890    1.3810   -0.6460 c         1 0FW      0.903200
     50 HAV2        7.5350    1.5300    1.3630 hn        1 0FW      0.317500
     51 OAW         3.7100    2.5410    4.1150 os        1 0FW     -0.257200
     52 NAV         7.8960    2.4110    1.6770 n         1 0FW     -0.452100
@<TRIPOS>BOND
     1    1   22 2   
     2    2   49 1   
     3    3   23 2   
     4    4   22 1   
     5    4   48 1   
     6    5   49 1   
     7    6    7 ar  
     8    6    8 ar  
     9    6   32 1   
    10    7   12 ar  
    11    7   33 1   
    12    8   13 ar  
    13    8   34 1   
    14    9   10 ar  
    15    9   11 ar  
    16    9   35 1   
    17   10   24 ar  
    18   10   36 1   
    19   11   25 ar  
    20   11   37 1   
    21   12   29 ar  
    22   12   38 1   
    23   13   29 ar  
    24   13   39 1   
    25   14   19 ar  
    26   14   26 ar  
    27   14   40 1   
    28   15   17 ar  
    29   15   27 ar  
    30   15   41 1   
    31   16   18 ar  
    32   16   27 ar  
    33   16   42 1   
    34   17   28 ar  
    35   17   43 1   
    36   18   28 ar  
    37   18   44 1   
    38   19   30 ar  
    39   19   45 1   
    40   20   24 ar  
    41   20   25 ar  
    42   20   46 1   
    43   21   26 ar  
    44   21   31 ar  
    45   21   47 1   
    46   22   30 1   
    47   23   27 1   
    48   23   52 1   
    49   24   52 1   
    50   25   51 1   
    51   26   51 1   
    52   28   29 1   
    53   30   31 ar  
    54   31   49 1   
    55   50   52 1   
@<TRIPOS>SUBSTRUCTURE
     1 0FW         1 TEMP              0 ****  ****    0 ROOT
