@<TRIPOS>MOLECULE
0FW
   51    43     1     0     0
SMALL
bcc


@<TRIPOS>ATOM
      1 OAA        -7.9440   -0.6990    3.4490 o         1 0FW     -0.585250
      2 OAB        -5.8680   -1.4020   -0.3780 o         1 0FW     -0.585250
      3 OAC         1.3380    0.7140    1.8350 o         1 0FW     -0.414000
      4 OAD        -6.0150   -1.7560    3.6500 o         1 0FW     -0.585250
      5 OAE        -7.8100   -0.6590    0.1180 o         1 0FW     -0.585250
      6 CAF         6.7450   -4.5720   -3.7550 c1        1 0FW     -0.140250
      7 CAG         7.2970   -3.5230   -3.0110 c1        1 0FW     -0.140250
      8 CAH         5.3800   -4.7760   -3.7530 c1        1 0FW     -0.140250
      9 CAI        -0.8400    4.2450    2.0170 c1        1 0FW     -0.140250
     10 CAJ         0.0580    3.3720    1.4400 c1        1 0FW     -0.140250
     11 CAK        -2.1820    4.2240    1.6310 c1        1 0FW     -0.191500
     12 CAL         6.4610   -2.6740   -2.2590 c1        1 0FW     -0.140250
     13 CAM         4.5320   -3.9140   -2.9910 c1        1 0FW     -0.115500
     14 CAN        -4.6820    2.4630    2.6310 c1        1 0FW     -0.191500
     15 CAO         2.6330   -0.0700   -1.5310 c1        1 0FW     -0.079000
     16 CAP         3.1990   -1.0650    0.5850 c1        1 0FW     -0.140250
     17 CAQ         3.4850   -0.9800   -2.1960 c1        1 0FW     -0.115500
     18 CAR         4.0540   -1.9780   -0.0830 c1        1 0FW     -0.140250
     19 CAS        -5.3690    1.4630    3.2730 c1        1 0FW     -0.146500
     20 CAT        -1.7180    2.4440    0.0850 c1        1 0FW     -0.217000
     21 CAU        -5.2330    1.4880    0.4930 c1        1 0FW     -0.146500
     22 NAV         0.6230    1.5990   -0.2120 n         1 0FW     -0.298000
     23 OAW        -3.9640    3.4600    0.5080 os        1 0FW     -0.177000
     24 CAX        -6.7070   -0.7300    3.2570 c2        1 0FW      0.384000
     25 CAY        -6.5770   -0.5820    0.2050 c2        1 0FW      0.384000
     26 CAZ         1.4530    0.7410    0.5550 c2        1 0FW      0.349000
     27 CBA        -0.3710    2.4670    0.4730 c1        1 0FW      0.106000
     28 CBB        -2.6160    3.3190    0.6630 c1        1 0FW      0.042500
     29 CBC        -4.6120    2.4770    1.2250 c1        1 0FW      0.042500
     30 CBD         2.5010   -0.1250   -0.1370 c1        1 0FW     -0.121000
     31 CBE         5.0850   -2.8740   -2.2530 c1        1 0FW     -0.031500
     32 CBF         4.1860   -1.9230   -1.4750 c1        1 0FW     -0.031500
     33 CBG        -6.0020    0.4540    2.5260 c2        1 0FW     -0.053000
     34 CBH        -5.9330    0.4680    1.1480 c2        1 0FW     -0.053000
     35 HAF         7.3030   -5.1340   -4.2550 ha        1 0FW      0.124750
     36 HAG         8.3250   -3.3730   -3.0100 ha        1 0FW      0.124750
     37 HAH         4.9900   -5.5200   -4.2800 ha        1 0FW      0.124750
     38 HAI        -0.5300    4.8960    2.6930 ha        1 0FW      0.124750
     39 HAJ         1.0130    3.3880    1.7160 ha        1 0FW      0.124750
     40 HAK        -2.8030    4.8490    2.0170 ha        1 0FW      0.114500
     41 HAL         6.8710   -1.9060   -1.7090 ha        1 0FW      0.124750
     42 HAM         3.5260   -4.0590   -2.9870 ha        1 0FW      0.155500
     43 HAN        -4.5760    3.2760    3.1830 ha        1 0FW      0.114500
     44 HAO         2.1860    0.6390   -2.0360 ha        1 0FW      0.243000
     45 HAP         3.1540   -1.0610    1.6040 ha        1 0FW      0.124750
     46 HAQ         3.6070   -0.9170   -3.2000 ha        1 0FW      0.155500
     47 HAR         4.1950   -2.7070    0.5250 ha        1 0FW      0.124750
     48 HAS        -5.4440    1.5850    4.2070 ha        1 0FW      0.126000
     49 HAT        -2.0230    1.8080   -0.5950 ha        1 0FW      0.201000
     50 HAU        -5.1290    1.4640   -0.4990 ha        1 0FW      0.126000
     51 HNAV        0.7500    1.6740   -1.1040 hn        1 0FW      0.303000
@<TRIPOS>BOND
     1    1   24 1   
     2    2   25 1   
     3    3   26 1   
     4    4   24 1   
     5    5   25 1   
     6    6    8 1   
     7    6   35 1   
     8    7   12 1   
     9    7   36 1   
    10    8   37 1   
    11    9   10 1   
    12    9   38 1   
    13   10   39 1   
    14   11   28 1   
    15   11   40 1   
    16   12   41 1   
    17   13   31 1   
    18   13   42 1   
    19   14   29 1   
    20   14   43 1   
    21   15   30 1   
    22   15   44 1   
    23   16   18 1   
    24   16   45 1   
    25   17   32 1   
    26   17   46 1   
    27   18   47 1   
    28   19   33 1   
    29   19   48 1   
    30   20   27 1   
    31   20   49 1   
    32   21   34 1   
    33   21   50 1   
    34   22   26 1   
    35   22   27 1   
    36   22   51 1   
    37   23   28 1   
    38   23   29 1   
    39   24   33 1   
    40   25   34 1   
    41   26   30 1   
    42   31   32 1   
    43   33   34 1   
@<TRIPOS>SUBSTRUCTURE
     1 0FW         1 TEMP              0 ****  ****    0 ROOT
