@<TRIPOS>MOLECULE
0FW
   51    54     1     0     0
SMALL
bcc


@<TRIPOS>ATOM
      1 OAA         0.0980   -0.7550    0.1180 o         1 0FW     -0.839800
      2 OAB         2.9470    1.7580   -1.4380 o         1 0FW     -0.860800
      3 OAC         9.3520    3.3210    1.0880 o         1 0FW     -0.654100
      4 OAD         2.0290   -1.8660    0.1670 o         1 0FW     -0.839800
      5 OAE         4.7730    1.3610   -0.2370 o         1 0FW     -0.860800
      6 CAF         9.8600   -0.4820   -7.2760 ca        1 0FW     -0.147000
      7 CAG         8.7420    0.3150   -7.0280 ca        1 0FW     -0.137000
      8 CAH        10.7320   -0.7930   -6.2330 ca        1 0FW     -0.137000
      9 CAI         6.8240    4.4130    4.2880 ca        1 0FW     -0.108000
     10 CAJ         7.4810    3.8240    3.2090 ca        1 0FW     -0.209000
     11 CAK         5.5260    4.0580    4.6450 ca        1 0FW     -0.210000
     12 CAL         8.4980    0.8030   -5.7460 ca        1 0FW     -0.120000
     13 CAM        10.4910   -0.3070   -4.9490 ca        1 0FW     -0.120000
     14 CAN         2.0880    0.9430    3.6850 ca        1 0FW     -0.173000
     15 CAO         7.5620    1.6250   -1.5780 ca        1 0FW     -0.088500
     16 CAP         9.9450    1.9100   -1.2540 ca        1 0FW     -0.088500
     17 CAQ         7.8120    1.1240   -2.8590 ca        1 0FW     -0.138500
     18 CAR        10.1880    1.4150   -2.5290 ca        1 0FW     -0.138500
     19 CAS         1.5500    0.1110    2.7040 ca        1 0FW     -0.131000
     20 CAT         5.5900    2.3250    2.9390 ca        1 0FW     -0.217000
     21 CAU         3.1070    2.2360    1.9030 ca        1 0FW     -0.163000
     22 CAX         1.3150   -0.8630    0.4470 c         1 0FW      0.926200
     23 CAZ         8.4610    2.5820    0.6070 c         1 0FW      0.674700
     24 CBA         6.8450    2.7930    2.4870 ca        1 0FW      0.097600
     25 CBB         4.8960    3.0250    3.9300 ca        1 0FW      0.156100
     26 CBC         2.8980    1.9990    3.2640 ca        1 0FW      0.019100
     27 CBD         8.6330    2.0150   -0.7690 ca        1 0FW     -0.141600
     28 CBE         9.3730    0.4990   -4.6910 cp        1 0FW     -0.010000
     29 CBF         9.1190    1.0150   -3.3480 cp        1 0FW     -0.050000
     30 CBG         1.8990    0.2230    1.3460 ca        1 0FW     -0.071600
     31 CBH         2.7340    1.2780    0.9480 ca        1 0FW     -0.075600
     32 HAF        10.0480   -0.8690   -8.2860 ha        1 0FW      0.115000
     33 HAG         8.0470    0.5560   -7.8450 ha        1 0FW      0.120000
     34 HAH        11.6080   -1.4290   -6.4210 ha        1 0FW      0.120000
     35 HAI         7.3360    5.2070    4.8510 ha        1 0FW      0.104000
     36 HAJ         8.4790    4.1790    2.9140 ha        1 0FW      0.154000
     37 HAK         4.9910    4.5740    5.4490 ha        1 0FW      0.125000
     38 HAL         7.6120    1.4280   -5.5540 ha        1 0FW      0.141000
     39 HAM        11.1750   -0.5670   -4.1270 ha        1 0FW      0.141000
     40 HAN         1.8990    0.7720    4.7510 ha        1 0FW      0.104000
     41 HAO         6.4950    1.6930   -1.2470 ha        1 0FW      0.193000
     42 HAP        10.7800    2.2370   -0.6130 ha        1 0FW      0.193000
     43 HAQ         6.9570    0.8010   -3.4740 ha        1 0FW      0.134500
     44 HAR        11.2200    1.3460   -2.9020 ha        1 0FW      0.134500
     45 HAS         0.8650   -0.6970    3.0000 ha        1 0FW      0.120000
     46 HAT         5.1360    1.4450    2.4410 ha        1 0FW      0.203000
     47 HAU         3.6760    3.1200    1.5750 ha        1 0FW      0.132000
     48 HNAV        6.6360    1.6570    0.8090 hn        1 0FW      0.388500
     49 CAY         3.5000    1.4470   -0.3560 c         1 0FW      0.944200
     50 OAW         3.5640    2.7730    4.2390 os        1 0FW     -0.267200
     51 NAV         7.3340    2.2050    1.3060 ns        1 0FW     -0.443100
@<TRIPOS>BOND
     1    1   22 1   
     2    2   49 1   
     3    3   23 2   
     4    4   22 1   
     5    5   49 1   
     6    6    7 ar  
     7    6    8 ar  
     8    6   32 1   
     9    7   12 ar  
    10    7   33 1   
    11    8   13 ar  
    12    8   34 1   
    13    9   10 ar  
    14    9   11 ar  
    15    9   35 1   
    16   10   24 ar  
    17   10   36 1   
    18   11   25 ar  
    19   11   37 1   
    20   12   28 ar  
    21   12   38 1   
    22   13   28 ar  
    23   13   39 1   
    24   14   19 ar  
    25   14   26 ar  
    26   14   40 1   
    27   15   17 ar  
    28   15   27 ar  
    29   15   41 1   
    30   16   18 ar  
    31   16   27 ar  
    32   16   42 1   
    33   17   29 ar  
    34   17   43 1   
    35   18   29 ar  
    36   18   44 1   
    37   19   30 ar  
    38   19   45 1   
    39   20   24 ar  
    40   20   25 ar  
    41   20   46 1   
    42   21   26 ar  
    43   21   31 ar  
    44   21   47 1   
    45   22   30 1   
    46   23   27 1   
    47   23   51 1   
    48   24   51 1   
    49   25   50 1   
    50   26   50 1   
    51   28   29 1   
    52   30   31 ar  
    53   31   49 1   
    54   48   51 1   
@<TRIPOS>SUBSTRUCTURE
     1 0FW         1 TEMP              0 ****  ****    0 ROOT
