@<TRIPOS>MOLECULE
0FW
   51    54     1     0     0
SMALL
bcc


@<TRIPOS>ATOM
      1 OAA         0.1260   -0.7790    0.1760 o         1 0FW     -0.839800
      2 OAB         2.9510    1.7230   -1.4390 o         1 0FW     -0.860800
      3 OAC         9.3540    3.3810    1.0350 o         1 0FW     -0.654100
      4 OAD         2.0640   -1.8750    0.2400 o         1 0FW     -0.839800
      5 OAE         4.7840    1.3630   -0.2360 o         1 0FW     -0.860800
      6 CAF         9.8610   -0.5780   -7.2560 ca        1 0FW     -0.147000
      7 CAG         8.7390    0.2160   -7.0200 ca        1 0FW     -0.137000
      8 CAH        10.7380   -0.8630   -6.2110 ca        1 0FW     -0.137000
      9 CAI         6.8270    4.5180    4.2200 ca        1 0FW     -0.108000
     10 CAJ         7.4850    3.9130    3.1510 ca        1 0FW     -0.209000
     11 CAK         5.5340    4.1610    4.5890 ca        1 0FW     -0.210000
     12 CAL         8.4950    0.7260   -5.7470 ca        1 0FW     -0.120000
     13 CAM        10.4990   -0.3550   -4.9360 ca        1 0FW     -0.120000
     14 CAN         2.1140    1.0040    3.7020 ca        1 0FW     -0.173000
     15 CAO         7.5660    1.6210   -1.5920 ca        1 0FW     -0.088500
     16 CAP         9.9490    1.9290   -1.2820 ca        1 0FW     -0.088500
     17 CAQ         7.8160    1.0970   -2.8640 ca        1 0FW     -0.138500
     18 CAR        10.1910    1.4110   -2.5470 ca        1 0FW     -0.138500
     19 CAS         1.5790    0.1490    2.7390 ca        1 0FW     -0.131000
     20 CAT         5.6040    2.3950    2.9170 ca        1 0FW     -0.217000
     21 CAU         3.1190    2.2690    1.8920 ca        1 0FW     -0.163000
     22 CAX         1.3450   -0.8710    0.5030 c         1 0FW      0.926200
     23 CAZ         8.4660    2.6270    0.5720 c         1 0FW      0.674700
     24 CBA         6.8540    2.8630    2.4520 ca        1 0FW      0.097600
     25 CBB         4.9080    3.1090    3.8970 ca        1 0FW      0.156100
     26 CBC         2.9160    2.0570    3.2580 ca        1 0FW      0.019100
     27 CBD         8.6380    2.0340   -0.7940 ca        1 0FW     -0.141600
     28 CBE         9.3750    0.4490   -4.6890 cp        1 0FW     -0.010000
     29 CBF         9.1220    0.9880   -3.3550 cp        1 0FW     -0.050000
     30 CBG         1.9230    0.2360    1.3780 ca        1 0FW     -0.071600
     31 CBH         2.7500    1.2890    0.9570 ca        1 0FW     -0.075600
     32 HAF        10.0490   -0.9820   -8.2600 ha        1 0FW      0.115000
     33 HAG         8.0390    0.4370   -7.8390 ha        1 0FW      0.120000
     34 HAH        11.6190   -1.4960   -6.3900 ha        1 0FW      0.120000
     35 HAI         7.3350    5.3270    4.7660 ha        1 0FW      0.104000
     36 HAJ         8.4800    4.2680    2.8460 ha        1 0FW      0.154000
     37 HAK         4.9970    4.6890    5.3850 ha        1 0FW      0.125000
     38 HAL         7.6050    1.3490   -5.5630 ha        1 0FW      0.141000
     39 HAM        11.1860   -0.5940   -4.1110 ha        1 0FW      0.141000
     40 HAN         1.9300    0.8530    4.7720 ha        1 0FW      0.104000
     41 HAO         6.5010    1.6880   -1.2590 ha        1 0FW      0.193000
     42 HAP        10.7830    2.2730   -0.6500 ha        1 0FW      0.193000
     43 HAQ         6.9620    0.7560   -3.4700 ha        1 0FW      0.134500
     44 HAR        11.2220    1.3420   -2.9230 ha        1 0FW      0.134500
     45 HAS         0.9010   -0.6580    3.0540 ha        1 0FW      0.120000
     46 HAT         5.1550    1.5020    2.4380 ha        1 0FW      0.202000
     47 HAU         3.6800    3.1490    1.5440 ha        1 0FW      0.132000
     48 HNAV        6.6490    1.6930    0.7970 hn        1 0FW      0.388500
     49 CAY         3.5100    1.4380   -0.3520 c         1 0FW      0.944200
     50 OAW         3.5790    2.8540    4.2150 os        1 0FW     -0.267200
     51 NAV         7.3430    2.2550    1.2810 n         1 0FW     -0.443100
@<TRIPOS>BOND
     1    1   22 1   
     2    2   49 1   
     3    3   23 2   
     4    4   22 1   
     5    5   49 1   
     6    6    7 ar  
     7    6    8 ar  
     8    6   32 1   
     9    7   12 ar  
    10    7   33 1   
    11    8   13 ar  
    12    8   34 1   
    13    9   10 ar  
    14    9   11 ar  
    15    9   35 1   
    16   10   24 ar  
    17   10   36 1   
    18   11   25 ar  
    19   11   37 1   
    20   12   28 ar  
    21   12   38 1   
    22   13   28 ar  
    23   13   39 1   
    24   14   19 ar  
    25   14   26 ar  
    26   14   40 1   
    27   15   17 ar  
    28   15   27 ar  
    29   15   41 1   
    30   16   18 ar  
    31   16   27 ar  
    32   16   42 1   
    33   17   29 ar  
    34   17   43 1   
    35   18   29 ar  
    36   18   44 1   
    37   19   30 ar  
    38   19   45 1   
    39   20   24 ar  
    40   20   25 ar  
    41   20   46 1   
    42   21   26 ar  
    43   21   31 ar  
    44   21   47 1   
    45   22   30 1   
    46   23   27 1   
    47   23   51 1   
    48   24   51 1   
    49   25   50 1   
    50   26   50 1   
    51   28   29 1   
    52   30   31 ar  
    53   31   49 1   
    54   48   51 1   
@<TRIPOS>SUBSTRUCTURE
     1 0FW         1 TEMP              0 ****  ****    0 ROOT
