@<TRIPOS>MOLECULE
0FY
   72    77     1     0     0
SMALL
bcc


@<TRIPOS>ATOM
      1 C34        -9.6940    1.9990   -0.0820 ca        1 0FY     -0.190000
      2 C14         5.4810   -1.6480    0.5790 cc        1 0FY     -0.294300
      3 C28        -3.9860   -1.3330   -0.4940 cc        1 0FY      0.376200
      4 C25        -3.8950   -0.7370    1.6960 cd        1 0FY     -0.042300
      5 C35       -10.8100    2.5100   -0.7370 ca        1 0FY      0.012700
      6 C37       -11.0130    0.5620   -2.0660 ca        1 0FY     -0.027300
      7 C8         -1.1470   -2.8360    0.9680 cd        1 0FY     -0.036100
      8 C10        -3.0830   -1.2070    0.6410 cc        1 0FY     -0.296100
      9 C33        -9.1890    0.7090   -0.4010 ca        1 0FY      0.176600
     10 C38        -9.8930   -0.0090   -1.4430 ca        1 0FY      0.050900
     11 C9         -1.7060   -1.5740    0.6840 cc        1 0FY     -0.001300
     12 C15         6.6140   -0.8390    0.2210 cc        1 0FY      0.332600
     13 C13         4.2920   -0.9750    0.2550 cd        1 0FY      0.077500
     14 C4          0.5750   -1.4390    0.5530 ca        1 0FY     -0.161800
     15 C6         -0.5580    0.6240    0.0700 ca        1 0FY     -0.223600
     16 C3          1.8580   -0.7670    0.3330 ca        1 0FY      0.699200
     17 C1          0.6980    1.2180   -0.1470 ca        1 0FY      0.485600
     18 C30        -7.3220    0.6840    1.2380 c         1 0FY      0.670100
     19 C21        10.3110   -0.0110   -2.2740 c3        1 0FY     -0.105400
     20 C22        11.6380   -0.1810   -1.5680 c3        1 0FY     -0.097400
     21 C20         9.2130   -0.8300   -1.6070 c3        1 0FY      0.116800
     22 C24        10.4030   -0.7380    0.5450 c3        1 0FY      0.112800
     23 C23        11.5390    0.0820   -0.0750 c3        1 0FY     -0.085700
     24 C11         0.7460    2.6590   -0.5360 c3        1 0FY     -0.165400
     25 C40        11.4020    1.5550    0.2400 c3        1 0FY     -0.115100
     26 C29        -6.3460   -0.2640    1.9570 c3        1 0FY     -0.019700
     27 N27        -5.2360   -0.9750   -0.1300 nd        1 0FY     -0.516800
     28 N16         6.2970    0.3380   -0.3250 nd        1 0FY     -0.604100
     29 N2          1.8790    0.5360   -0.0130 nb        1 0FY     -0.685000
     30 N26        -5.1820   -0.6150    1.1730 na        1 0FY      0.086400
     31 N5         -0.6160   -0.7030    0.4200 na        1 0FY      0.127700
     32 N36       -11.4560    1.8010   -1.7090 na        1 0FY     -0.100100
     33 N7          0.2400   -2.7440    0.8890 na        1 0FY     -0.126400
     34 N32        -8.1170    0.1150    0.2270 n         1 0FY     -0.439100
     35 N12         3.0240   -1.5230    0.4210 nh        1 0FY     -0.674300
     36 N19         9.0880   -0.5050   -0.1460 n4        1 0FY     -0.681400
     37 O31        -7.4220    1.8630    1.5850 o         1 0FY     -0.504100
     38 F39        -9.4870   -1.2370   -1.8280 f         1 0FY     -0.083900
     39 S17         4.7080    0.5300   -0.4270 ss        1 0FY      0.465200
     40 H34        -9.2140    2.6260    0.6960 ha        1 0FY      0.231000
     41 H14         5.5650   -2.6370    1.0310 ha        1 0FY      0.185000
     42 H28        -3.7470   -1.6670   -1.5080 h4        1 0FY      0.073100
     43 H25        -3.6540   -0.4960    2.7350 h4        1 0FY      0.207000
     44 H35       -11.2150    3.5160   -0.4880 h4        1 0FY      0.226000
     45 H37       -11.5650    0.0150   -2.8630 h4        1 0FY      0.234000
     46 H8         -1.6600   -3.7750    1.2170 h4        1 0FY      0.243000
     47 H6         -1.5170    1.1640   -0.0290 h4        1 0FY      0.220000
     48 H211       10.0220    1.0730   -2.3060 hc        1 0FY      0.089700
     49 H212       10.3970   -0.3640   -3.3380 hc        1 0FY      0.089700
     50 H222       12.0210   -1.2240   -1.7340 hc        1 0FY      0.083700
     51 H221       12.3890    0.5230   -2.0180 hc        1 0FY      0.083700
     52 H201        8.2200   -0.6230   -2.0960 hx        1 0FY      0.099700
     53 H202        9.4470   -1.9290   -1.6960 hx        1 0FY      0.099700
     54 H242       10.6410   -1.8360    0.4680 hx        1 0FY      0.099700
     55 H241       10.2810   -0.4580    1.6300 hx        1 0FY      0.099700
     56 H23        12.4870   -0.2930    0.4150 hc        1 0FY      0.109700
     57 H111        1.3410    3.2450    0.2110 hc        1 0FY      0.090367
     58 H113        1.2330    2.7740   -1.5390 hc        1 0FY      0.090367
     59 H112       -0.2870    3.0850   -0.5860 hc        1 0FY      0.090367
     60 H402       10.5300    2.0120   -0.2870 hc        1 0FY      0.057367
     61 H403       11.2860    1.7160    1.3390 hc        1 0FY      0.057367
     62 H401       12.3230    2.0970   -0.0930 hc        1 0FY      0.057367
     63 H181        8.1650   -1.2540    1.6280 hx        1 0FY      0.115700
     64 H182        8.1130   -2.3790    0.1770 hx        1 0FY      0.115700
     65 H292       -5.9980    0.2750    2.8880 h1        1 0FY      0.117700
     66 H291       -6.8940   -1.2050    2.2610 h1        1 0FY      0.117700
     67 H32        -7.8660   -0.8030   -0.0950 hn        1 0FY      0.369500
     68 H12         2.9860   -2.3660    0.9540 hn        1 0FY      0.457800
     69 H36       -12.2670    2.1890   -2.1670 hn        1 0FY      0.358700
     70 H7          0.8830   -3.4940    1.0050 hn        1 0FY      0.356700
     71 H19         8.8710    0.5000   -0.0650 hn        1 0FY      0.466800
     72 C18         8.0080   -1.3040    0.5080 c3        1 0FY      0.093500
@<TRIPOS>BOND
     1    1    5 ar  
     2    1    9 ar  
     3    1   40 1   
     4    2   12 1   
     5    2   13 2   
     6    2   41 1   
     7    3    8 1   
     8    3   27 2   
     9    3   42 1   
    10    4    8 2   
    11    4   30 1   
    12    4   43 1   
    13    5   32 2   
    14    5   44 1   
    15    6   10 ar  
    16    6   32 1   
    17    6   45 1   
    18    7   11 2   
    19    7   33 1   
    20    7   46 1   
    21    8   11 1   
    22    9   10 ar  
    23    9   34 1   
    24   10   38 1   
    25   11   31 1   
    26   12   28 2   
    27   12   72 1   
    28   13   35 1   
    29   13   39 1   
    30   14   16 ar  
    31   14   31 2   
    32   14   33 1   
    33   15   17 ar  
    34   15   31 1   
    35   15   47 1   
    36   16   29 ar  
    37   16   35 1   
    38   17   24 1   
    39   17   29 ar  
    40   18   26 1   
    41   18   34 1   
    42   18   37 2   
    43   19   20 1   
    44   19   21 1   
    45   19   48 1   
    46   19   49 1   
    47   20   23 1   
    48   20   50 1   
    49   20   51 1   
    50   21   36 1   
    51   21   52 1   
    52   21   53 1   
    53   22   23 1   
    54   22   36 1   
    55   22   54 1   
    56   22   55 1   
    57   23   25 1   
    58   23   56 1   
    59   24   57 1   
    60   24   58 1   
    61   24   59 1   
    62   25   60 1   
    63   25   61 1   
    64   25   62 1   
    65   26   30 1   
    66   26   65 1   
    67   26   66 1   
    68   27   30 1   
    69   28   39 1   
    70   32   69 1   
    71   33   70 1   
    72   34   67 1   
    73   35   68 1   
    74   36   71 1   
    75   36   72 1   
    76   63   72 1   
    77   64   72 1   
@<TRIPOS>SUBSTRUCTURE
     1 0FY         1 TEMP              0 ****  ****    0 ROOT
