@<TRIPOS>MOLECULE
0FY
   74    74     1     0     0
SMALL
bcc


@<TRIPOS>ATOM
      1 C34       561.1540  243.3050  346.4710 c3        1 0FY     -0.218000
      2 C14      -138.6580  -63.3280  -88.2040 c1        1 0FY     -0.428000
      3 C28      -147.8970  -57.7180  -82.7080 c1        1 0FY      0.212000
      4 C25      -144.8860  -57.6190  -84.5340 c2        1 0FY     -0.046000
      5 C35       560.1750  243.8360  345.4320 c2        1 0FY      0.153000
      6 C37       560.7800  243.8310  344.0600 c1        1 0FY     -0.103000
      7 C8       -142.2350  -59.1880  -84.5710 c2        1 0FY      0.002000
      8 C10      -144.8000  -58.9600  -84.6650 c2        1 0FY     -0.148000
      9 C33       562.3740  242.9940  345.6150 c2        1 0FY      0.145000
     10 C38       562.0620  243.3330  344.2170 c2        1 0FY     -0.062000
     11 C9       -143.5320  -59.5950  -84.9530 c2        1 0FY     -0.034000
     12 C15      -137.7400  -64.2030  -88.7490 c2        1 0FY      0.248000
     13 C13      -139.5040  -62.5060  -87.7430 c2        1 0FY     -0.018000
     14 C4       -141.9950  -61.1500  -85.6620 c2        1 0FY      0.013000
     15 C6       -144.2770  -61.6770  -86.2290 c2        1 0FY     -0.060000
     16 C3       -141.5820  -62.3930  -86.2930 c2        1 0FY      0.022000
     17 C1       -143.8160  -62.8640  -86.8340 c2        1 0FY      0.044000
     18 C30      -146.4380  -55.6370  -86.1430 c1        1 0FY      0.360000
     19 C21      -138.3140  -61.6240  -83.5790 c3        1 0FY     -0.238000
     20 C22      -137.4530  -67.3810  -90.8480 c2        1 0FY     -0.519000
     21 C20      -137.9420  -60.4050  -84.3710 c3        1 0FY     -0.238000
     22 C24      -133.9230  -63.7220  -88.7020 c3        1 0FY     -0.157000
     23 C23      -137.6070  -68.5450  -91.3570 c1        1 0FY      0.267000
     24 C11      -144.8060  -63.7850  -87.4650 c3        1 0FY     -0.198000
     25 C40      -137.7980  -69.8060  -91.9180 c3        1 0FY     -0.253000
     26 C29      -146.3040  -55.7070  -84.8030 c2        1 0FY     -0.387000
     27 N27      -147.0210  -57.4600  -83.4310 n2        1 0FY     -0.051000
     28 N16      -137.9950  -65.4070  -89.1630 n2        1 0FY     -0.650000
     29 N2       -142.4860  -63.2060  -86.8540 n2        1 0FY     -0.043000
     30 N26      -145.9400  -56.8050  -84.0020 n3        1 0FY      0.135000
     31 N5       -143.3740  -60.8270  -85.6420 na        1 0FY      0.028000
     32 N36       558.9600  244.2510  345.6660 n3        1 0FY     -0.142000
     33 N7       -141.3120  -60.1350  -85.0100 na        1 0FY     -0.148000
     34 N32       563.5050  242.5030  346.0760 n3        1 0FY     -0.208000
     35 N12      -140.1620  -62.7630  -86.3550 n4        1 0FY     -0.033000
     36 N19      -135.2490  -64.3090  -88.6480 n3        1 0FY     -0.103000
     37 O31      -146.5320  -55.4780  -87.2990 o         1 0FY      0.032000
     38 F39       562.9780  243.1490  343.2560 f         1 0FY     -0.046000
     39 S17      -138.5760  -66.5660  -89.8070 ss        1 0FY      0.960000
     40 H34       561.3900  244.0730  347.2560 hc        1 0FY      0.170000
     41 H14      -139.9300  -61.5730  -88.1370 hx        1 0FY      0.184000
     42 H28      -148.7200  -57.9900  -82.0430 ha        1 0FY      0.365000
     43 H25      -145.6610  -59.6370  -84.5260 ha        1 0FY      0.171000
     44 H35       560.7650  242.3820  346.9790 hc        1 0FY      0.170000
     45 H37       558.3980  244.5840  344.8950 hn        1 0FY      0.288500
     46 H8       -141.9260  -58.2950  -84.0070 h4        1 0FY      0.253000
     47 H6       -145.3480  -61.3930  -86.2030 h4        1 0FY      0.230000
     48 H211     -139.4230  -61.7360  -83.4910 hc        1 0FY      0.081333
     49 H212     -137.8990  -61.5530  -82.5400 hc        1 0FY      0.081333
     50 H222     -137.8970  -62.5500  -84.0440 hc        1 0FY      0.081333
     51 H221     -136.5450  -66.7960  -91.1300 h4        1 0FY      0.269000
     52 H201     -136.8290  -60.2820  -84.3940 hc        1 0FY      0.081333
     53 H202     -138.3650  -59.4790  -83.9090 hc        1 0FY      0.081333
     54 H242     -133.4040  -63.9040  -87.7180 h1        1 0FY      0.157667
     55 H241     -133.9720  -62.6180  -88.9020 h1        1 0FY      0.157667
     56 H23      -133.3360  -64.2230  -89.5240 h1        1 0FY      0.157667
     57 H111     -144.7800  -64.7890  -86.9640 hc        1 0FY      0.145333
     58 H113     -144.5650  -63.9340  -88.5510 hc        1 0FY      0.145333
     59 H112     -145.8410  -63.3680  -87.3810 hc        1 0FY      0.145333
     60 H402     -138.7340  -69.8690  -92.5510 hc        1 0FY      0.219667
     61 H403     -137.7920  -70.6350  -91.1480 hc        1 0FY      0.219667
     62 H401     -136.9300  -70.0360  -92.6290 hc        1 0FY      0.219667
     63 H181     -135.2680  -65.3000  -88.4580 hn        1 0FY      0.274000
     64 H182     -136.3050  -62.5330  -88.9880 h4        1 0FY      0.223000
     65 H292     -144.0160  -56.9460  -84.7230 h4        1 0FY      0.208000
     66 H291     -146.5130  -54.7790  -84.2190 h4        1 0FY      0.265000
     67 H32       564.2680  242.3240  345.4460 hn        1 0FY      0.281500
     68 H12      -139.6430  -62.2510  -85.6320 hn        1 0FY      0.243500
     69 H36       558.5490  244.2570  346.5800 hn        1 0FY      0.288500
     70 H7       -140.3240  -60.1020  -84.8440 hn        1 0FY      0.325000
     71 H19      -138.2960  -60.4770  -85.4300 hc        1 0FY      0.081333
     72 H322      563.6450  242.2950  347.0430 hn        1 0FY      0.281500
     73 H122     -140.0710  -63.7710  -86.1450 hn        1 0FY      0.243500
     74 C18      -136.3570  -63.6360  -88.8060 c2        1 0FY      0.117000
@<TRIPOS>BOND
     1    1    5 1   
     2    1    9 1   
     3    1   40 1   
     4    1   44 1   
     5    2   12 1   
     6    2   13 1   
     7    3   27 1   
     8    3   42 1   
     9    4    8 1   
    10    4   30 1   
    11    4   65 1   
    12    5    6 1   
    13    5   32 1   
    14    6   10 1   
    15    7   11 1   
    16    7   33 1   
    17    7   46 1   
    18    8   11 1   
    19    8   43 1   
    20    9   10 1   
    21    9   34 1   
    22   10   38 1   
    23   11   31 1   
    24   12   28 1   
    25   12   74 1   
    26   13   35 1   
    27   13   41 1   
    28   14   16 1   
    29   14   31 1   
    30   14   33 1   
    31   15   17 1   
    32   15   31 1   
    33   15   47 1   
    34   16   29 1   
    35   16   35 1   
    36   17   24 1   
    37   17   29 1   
    38   18   26 1   
    39   18   37 1   
    40   19   21 1   
    41   19   48 1   
    42   19   49 1   
    43   19   50 1   
    44   20   23 1   
    45   20   39 1   
    46   20   51 1   
    47   21   52 1   
    48   21   53 1   
    49   21   71 1   
    50   22   36 1   
    51   22   54 1   
    52   22   55 1   
    53   22   56 1   
    54   23   25 1   
    55   24   57 1   
    56   24   58 1   
    57   24   59 1   
    58   25   60 1   
    59   25   61 1   
    60   25   62 1   
    61   26   30 1   
    62   26   66 1   
    63   27   30 1   
    64   28   39 1   
    65   32   45 1   
    66   32   69 1   
    67   33   70 1   
    68   34   67 1   
    69   34   72 1   
    70   35   68 1   
    71   35   73 1   
    72   36   63 1   
    73   36   74 1   
    74   64   74 1   
@<TRIPOS>SUBSTRUCTURE
     1 0FY         1 TEMP              0 ****  ****    0 ROOT
