@<TRIPOS>MOLECULE
0FY
   72    60     1     0     0
SMALL
bcc


@<TRIPOS>ATOM
      1 C34         7.0310    5.4200    8.0770 c1        1 0FY     -0.204000
      2 C14        -2.5610   -2.5520   -1.9090 c1        1 0FY     -0.230000
      3 C28         3.4630    2.1980    2.3510 c1        1 0FY     -0.094000
      4 C25         2.2410    4.0030    2.7460 c1        1 0FY     -0.014000
      5 C35         7.2180    5.2690    9.4530 c1        1 0FY      0.033000
      6 C37         4.8730    5.2510    9.7750 c1        1 0FY     -0.009000
      7 C8          0.5260    1.2370    2.0330 c1        1 0FY     -0.012000
      8 C10         2.2760    2.8210    2.0580 c1        1 0FY     -0.219000
      9 C33         5.7640    5.4850    7.5630 c1        1 0FY      0.179000
     10 C38         4.6810    5.4020    8.4020 c1        1 0FY      0.051000
     11 C9          1.2130    2.1010    1.2150 c1        1 0FY      0.017000
     12 C15        -3.0090   -3.3990   -3.1590 c1        1 0FY     -0.089000
     13 C13        -1.9480   -1.3810   -2.3710 c1        1 0FY     -0.274000
     14 C4         -0.0500    0.8440   -0.0590 c1        1 0FY     -0.025000
     15 C6          1.2020    2.4230   -1.2550 c1        1 0FY     -0.133000
     16 C3         -0.6220    0.3910   -1.2710 c1        1 0FY      0.177000
     17 C1          0.6340    1.9720   -2.4550 c1        1 0FY      0.063000
     18 C30         4.3410    5.0630    5.5150 c1        1 0FY      0.295000
     19 C21        -6.2360   -5.8530   -5.0200 c3        1 0FY     -0.183000
     20 C22        -5.8200   -6.4200   -6.1600 c3        1 0FY     -0.179000
     21 C20        -5.5640   -4.8860   -4.3320 c3        1 0FY     -0.121000
     22 C24        -3.7540   -6.6210   -4.6720 c3        1 0FY     -0.126000
     23 C23        -4.3790   -6.6450   -6.1480 c3        1 0FY     -0.126000
     24 C11         0.9320    2.7410   -3.7510 c2        1 0FY     -0.190000
     25 C40        -3.7110   -5.5640   -6.9810 c3        1 0FY     -0.229000
     26 C18        -3.6460   -4.8160   -3.1160 c2        1 0FY     -0.048000
     27 C29         4.0750    5.2770    4.0050 c3        1 0FY     -0.026000
     28 N27         4.1520    2.9910    3.2130 n2        1 0FY     -0.085000
     29 N16        -2.6360   -2.6800   -4.3480 n2        1 0FY     -0.383000
     30 N2         -0.2680    0.9640   -2.4400 n2        1 0FY     -0.159000
     31 N26         3.3970    4.1100    3.4590 n3        1 0FY     -0.126000
     32 N5          0.8450    1.8440   -0.0730 n2        1 0FY      0.050000
     33 N36         6.1360    5.1870   10.2860 n2        1 0FY     -0.095000
     34 N7         -0.2480    0.4670    1.2620 n1        1 0FY     -0.149000
     35 N32         5.5640    5.5730    6.1140 n2        1 0FY     -0.304000
     36 N12        -1.8950   -0.1740   -1.6370 n1        1 0FY     -0.195000
     37 N19        -4.1370   -5.1250   -4.3330 n4        1 0FY      0.001000
     38 O31         3.4810    4.5610    6.2180 o         1 0FY     -0.236000
     39 F39         3.3940    5.6630    8.1560 f         1 0FY     -0.026000
     40 S17        -1.9690   -1.4120   -3.9300 ss        1 0FY      0.777000
     41 H34         7.8030    5.4790    7.4830 ha        1 0FY      0.200000
     42 H14        -2.7140   -2.7890   -0.9680 DU        1 0FY      0.229800
     43 H28         3.7600    1.3340    2.0010 DU        1 0FY      0.229800
     44 H25         1.5120    4.6580    2.7300 DU        1 0FY      0.229800
     45 H35         8.1170    5.2230    9.8180 ha        1 0FY      0.223000
     46 H37         4.1010    5.1930   10.3730 ha        1 0FY      0.236000
     47 H8          0.5400    1.2390    3.0180 DU        1 0FY      0.229800
     48 H6          1.9060    3.1250   -1.2720 ha        1 0FY      0.221000
     49 H211       -7.1240   -5.4790   -5.2130 hc        1 0FY      0.128500
     50 H212       -6.3700   -6.5870   -4.3880 hc        1 0FY      0.128500
     51 H222       -6.0450   -5.8350   -6.9090 hc        1 0FY      0.121500
     52 H221       -6.2780   -7.2790   -6.2750 hc        1 0FY      0.121500
     53 H201       -5.7410   -4.0250   -4.7420 hx        1 0FY      0.140000
     54 H202       -5.8890   -4.8700   -3.3920 hx        1 0FY      0.140000
     55 H242       -2.8020   -6.7500   -4.6870 hx        1 0FY      0.139500
     56 H241       -4.1990   -7.2480   -4.0830 hx        1 0FY      0.139500
     57 H23        -4.1920   -7.5190   -6.5550 hc        1 0FY      0.145000
     58 H111        0.0910    2.9560   -4.2040 ha        1 0FY      0.130333
     59 H113        1.4110    3.5730   -3.5360 ha        1 0FY      0.130333
     60 H112        1.4900    2.1840   -4.3420 ha        1 0FY      0.130333
     61 H402       -2.7430   -5.7550   -7.0540 hc        1 0FY      0.097667
     62 H403       -4.1080   -5.5490   -7.8720 hc        1 0FY      0.097667
     63 H401       -3.8400   -4.6970   -6.5540 hc        1 0FY      0.097667
     64 H181       -2.9730   -5.4660   -2.8640 hx        1 0FY      0.155000
     65 H182       -4.3670   -4.8280   -2.4640 hx        1 0FY      0.155000
     66 H292        4.9310    5.4070    3.5370 h1        1 0FY      0.158500
     67 H291        3.5210    6.0570    3.8840 h1        1 0FY      0.158500
     68 H32         6.1880    5.9900    5.5910 hn        1 0FY      0.276000
     69 H12        -2.6690    0.2240   -1.3560 hn        1 0FY      0.252000
     70 H36         6.2620    5.0860   11.2050 hn        1 0FY      0.310000
     71 H7         -0.8160   -0.2030    1.5580 DU        1 0FY      0.229800
     72 H19        -3.7530   -4.5820   -4.9470 hn        1 0FY      0.259000
@<TRIPOS>BOND
     1    1    9 1   
     2    1   41 1   
     3    2   12 1   
     4    2   13 1   
     5    3    8 1   
     6    3   28 1   
     7    4    8 1   
     8    4   31 1   
     9    5   33 1   
    10    5   45 1   
    11    6   10 1   
    12    6   46 1   
    13    7   11 1   
    14    7   34 1   
    15    9   35 1   
    16   10   39 1   
    17   11   32 1   
    18   12   29 1   
    19   13   40 1   
    20   14   32 1   
    21   15   17 1   
    22   15   48 1   
    23   16   30 1   
    24   17   30 1   
    25   18   27 1   
    26   18   38 1   
    27   19   20 1   
    28   19   21 1   
    29   19   49 1   
    30   19   50 1   
    31   20   23 1   
    32   20   51 1   
    33   20   52 1   
    34   21   37 1   
    35   21   53 1   
    36   21   54 1   
    37   22   23 1   
    38   22   37 1   
    39   22   55 1   
    40   22   56 1   
    41   23   25 1   
    42   23   57 1   
    43   24   58 1   
    44   24   59 1   
    45   24   60 1   
    46   25   61 1   
    47   25   62 1   
    48   25   63 1   
    49   26   37 1   
    50   26   64 1   
    51   26   65 1   
    52   27   31 1   
    53   27   66 1   
    54   27   67 1   
    55   28   31 1   
    56   29   40 1   
    57   33   70 1   
    58   35   68 1   
    59   36   69 1   
    60   37   72 1   
@<TRIPOS>SUBSTRUCTURE
     1 0FY         1 TEMP              0 ****  ****    0 ROOT
