@<TRIPOS>MOLECULE
0FZ
   38    40     1     0     0
SMALL
bcc


@<TRIPOS>ATOM
      1 CAB         5.2390    3.3690    0.6200 c3        1 0FZ      0.111700
      2 OAR         5.4140    2.0090    0.2370 os        1 0FZ     -0.324900
      3 CAX         4.2710    1.2410    0.1700 ca        1 0FZ      0.147100
      4 CAM         4.4830   -0.1000   -0.1990 ca        1 0FZ     -0.164000
      5 CAW         2.9810    1.7140    0.4410 ca        1 0FZ     -0.213000
      6 CAL         1.9010    0.8400    0.3380 ca        1 0FZ     -0.057000
      7 CAG         2.0920   -0.4930   -0.0320 ca        1 0FZ     -0.219900
      8 CAT         3.3960   -0.9630   -0.2970 ca        1 0FZ     -0.022300
      9 CAO         3.6040   -2.3770   -0.7090 c3        1 0FZ     -0.068100
     10 CAN         2.4630   -3.2990   -0.2760 c3        1 0FZ      0.101800
     11 NAP         1.1410   -2.7420   -0.2260 n2        1 0FZ     -0.572900
     12 CAS         0.9790   -1.4600   -0.1220 ce        1 0FZ      0.505500
     13 CAU        -0.3970   -0.9050   -0.0840 ca        1 0FZ     -0.060900
     14 CAI        -0.8070    0.0190   -1.0520 ca        1 0FZ     -0.135000
     15 CAK        -2.1020    0.5270   -1.0190 ca        1 0FZ     -0.024000
     16 CAH        -1.2920   -1.3130    0.9110 ca        1 0FZ     -0.135000
     17 CAJ        -2.5830   -0.7920    0.9350 ca        1 0FZ     -0.024000
     18 CAV        -3.0080    0.1290   -0.0290 ca        1 0FZ     -0.381500
     19 SAY        -4.5720    0.7690    0.0170 sy        1 0FZ      1.527200
     20 OAE        -5.0350    0.7160    1.3490 o         1 0FZ     -0.658800
     21 OAF        -4.5530    2.0290   -0.6200 o         1 0FZ     -0.658800
     22 NAC        -5.4150   -0.2580   -0.8760 n3        1 0FZ     -1.026700
     23 H1          6.2820    3.7780    0.6080 h1        1 0FZ      0.047700
     24 H2          4.5960    3.9070   -0.1190 h1        1 0FZ      0.047700
     25 H3          4.8000    3.4370    1.6450 h1        1 0FZ      0.047700
     26 H4          5.5050   -0.4490   -0.4040 ha        1 0FZ      0.153000
     27 H5          2.8080    2.7590    0.7340 ha        1 0FZ      0.143000
     28 H6          0.8850    1.2090    0.5530 ha        1 0FZ      0.146000
     29 H7          3.7020   -2.4040   -1.8290 hc        1 0FZ      0.062700
     30 H8          4.5660   -2.7670   -0.2840 hc        1 0FZ      0.062700
     31 H9          2.4130   -4.1720   -0.9870 h1        1 0FZ      0.068700
     32 H10         2.6900   -3.7130    0.7500 h1        1 0FZ      0.068700
     33 H14        -0.1040    0.3420   -1.8350 ha        1 0FZ      0.151000
     34 H15        -2.4180    1.2690   -1.7740 ha        1 0FZ      0.154000
     35 H16        -0.9770   -2.0470    1.6690 ha        1 0FZ      0.151000
     36 H17        -3.2810   -1.0970    1.7350 ha        1 0FZ      0.154000
     37 H18        -5.8720   -1.0550   -0.5090 hn        1 0FZ      0.447800
     38 H19        -5.5480   -0.1560   -1.8500 hn        1 0FZ      0.447800
@<TRIPOS>BOND
     1    1    2 1   
     2    1   23 1   
     3    1   24 1   
     4    1   25 1   
     5    2    3 1   
     6    3    4 ar  
     7    3    5 ar  
     8    4    8 ar  
     9    4   26 1   
    10    5    6 ar  
    11    5   27 1   
    12    6    7 ar  
    13    6   28 1   
    14    7    8 ar  
    15    7   12 1   
    16    8    9 1   
    17    9   10 1   
    18    9   29 1   
    19    9   30 1   
    20   10   11 1   
    21   10   31 1   
    22   10   32 1   
    23   11   12 2   
    24   12   13 1   
    25   13   14 ar  
    26   13   16 ar  
    27   14   15 ar  
    28   14   33 1   
    29   15   18 ar  
    30   15   34 1   
    31   16   17 ar  
    32   16   35 1   
    33   17   18 ar  
    34   17   36 1   
    35   18   19 1   
    36   19   20 2   
    37   19   21 2   
    38   19   22 1   
    39   22   37 1   
    40   22   38 1   
@<TRIPOS>SUBSTRUCTURE
     1 0FZ         1 TEMP              0 ****  ****    0 ROOT
