@<TRIPOS>MOLECULE
0FZ
   39    41     1     0     0
SMALL
bcc


@<TRIPOS>ATOM
      1 CAB         0.0430    0.3010   -0.1540 c3        1 0FZ      0.108700
      2 OAR         1.4630    0.2390   -0.0420 os        1 0FZ     -0.312900
      3 CAX         1.9770    0.1390    1.2280 ca        1 0FZ      0.168100
      4 CAM         3.3850    0.1170    1.2940 ca        1 0FZ     -0.157000
      5 CAW         1.2060    0.0610    2.3970 ca        1 0FZ     -0.213000
      6 CAL         1.8470   -0.0430    3.6280 ca        1 0FZ     -0.065000
      7 CAG         3.2400   -0.0770    3.7100 ca        1 0FZ     -0.238900
      8 CAT         4.0120    0.0150    2.5310 ca        1 0FZ     -0.011300
      9 CAO         5.4980   -0.0230    2.6070 c3        1 0FZ     -0.071100
     10 CAN         6.0390    0.3860    3.9780 c3        1 0FZ      0.096800
     11 NAP         5.2380    0.0710    5.1260 n2        1 0FZ     -0.555900
     12 CAS         3.9660   -0.1510    4.9880 ce        1 0FZ      0.474500
     13 CAU         3.1900   -0.5110    6.1990 ca        1 0FZ      0.039100
     14 CAI         2.4240   -1.6900    6.2230 ca        1 0FZ     -0.134500
     15 CAK         1.7410   -2.0500    7.3700 ca        1 0FZ      0.008000
     16 CAH         3.2400    0.3050    7.3420 ca        1 0FZ     -0.134500
     17 CAJ         2.5470   -0.0590    8.4840 ca        1 0FZ      0.008000
     18 CAV         1.7880   -1.2520    8.5390 ca        1 0FZ     -0.573500
     19 SAY         0.9580   -1.6420    9.8380 sy        1 0FZ      1.498200
     20 OAE         0.7950   -0.6400   10.7700 o         1 0FZ     -0.569800
     21 OAF         0.0160   -2.6350    9.6710 o         1 0FZ     -0.569800
     22 NAC         2.3390   -2.6670   10.7220 n4        1 0FZ     -0.785500
     23 H1         -0.4220   -0.6350    0.2380 h1        1 0FZ      0.054367
     24 H2         -0.1210    0.3930   -1.2590 h1        1 0FZ      0.054367
     25 H3         -0.3550    1.1960    0.3810 h1        1 0FZ      0.054367
     26 H4          3.9690    0.1860    0.3640 ha        1 0FZ      0.166000
     27 H5          0.1090    0.0890    2.3520 ha        1 0FZ      0.150000
     28 H6          1.2380   -0.0910    4.5440 ha        1 0FZ      0.125000
     29 H7          5.9420    0.6540    1.8290 hc        1 0FZ      0.075200
     30 H8          5.8360   -1.0680    2.3670 hc        1 0FZ      0.075200
     31 H9          7.0380   -0.1130    4.1420 h1        1 0FZ      0.084700
     32 H10         6.2150    1.5030    3.9960 h1        1 0FZ      0.084700
     33 H14         2.3730   -2.3240    5.3200 ha        1 0FZ      0.185500
     34 H15         1.1320   -2.9750    7.3750 ha        1 0FZ      0.168000
     35 H16         3.8370    1.2340    7.3260 ha        1 0FZ      0.185500
     36 H17         2.5760    0.6010    9.3720 ha        1 0FZ      0.168000
     37 H18         2.0250   -3.6230   10.8770 hn        1 0FZ      0.454133
     38 H19         3.1980   -2.7030   10.1820 hn        1 0FZ      0.454133
     39 HAC3        2.5540   -2.2590   11.6300 hn        1 0FZ      0.454133
@<TRIPOS>BOND
     1    1    2 1   
     2    1   23 1   
     3    1   24 1   
     4    1   25 1   
     5    2    3 1   
     6    3    4 ar  
     7    3    5 ar  
     8    4    8 ar  
     9    4   26 1   
    10    5    6 ar  
    11    5   27 1   
    12    6    7 ar  
    13    6   28 1   
    14    7    8 ar  
    15    7   12 1   
    16    8    9 1   
    17    9   10 1   
    18    9   29 1   
    19    9   30 1   
    20   10   11 1   
    21   10   31 1   
    22   10   32 1   
    23   11   12 2   
    24   12   13 1   
    25   13   14 ar  
    26   13   16 ar  
    27   14   15 ar  
    28   14   33 1   
    29   15   18 ar  
    30   15   34 1   
    31   16   17 ar  
    32   16   35 1   
    33   17   18 ar  
    34   17   36 1   
    35   18   19 1   
    36   19   20 2   
    37   19   21 2   
    38   19   22 1   
    39   22   37 1   
    40   22   38 1   
    41   22   39 1   
@<TRIPOS>SUBSTRUCTURE
     1 0FZ         1 TEMP              0 ****  ****    0 ROOT
