@<TRIPOS>MOLECULE
0FZ
   39    41     1     0     0
SMALL
bcc


@<TRIPOS>ATOM
      1 CAB         0.0450    0.3010   -0.1550 c3        1 0FZ      0.108700
      2 OAR         1.4650    0.2430   -0.0420 os        1 0FZ     -0.312900
      3 CAX         1.9790    0.1430    1.2280 ca        1 0FZ      0.168100
      4 CAM         3.3870    0.1250    1.2940 ca        1 0FZ     -0.157000
      5 CAW         1.2080    0.0640    2.3960 ca        1 0FZ     -0.213000
      6 CAL         1.8480   -0.0390    3.6270 ca        1 0FZ     -0.065000
      7 CAG         3.2420   -0.0690    3.7100 ca        1 0FZ     -0.238900
      8 CAT         4.0140    0.0250    2.5310 ca        1 0FZ     -0.011300
      9 CAO         5.5000   -0.0090    2.6080 c3        1 0FZ     -0.071100
     10 CAN         6.0390    0.4010    3.9780 c3        1 0FZ      0.096800
     11 NAP         5.2390    0.0840    5.1260 n2        1 0FZ     -0.555900
     12 CAS         3.9680   -0.1420    4.9890 ce        1 0FZ      0.474500
     13 CAU         3.1920   -0.5040    6.1990 ca        1 0FZ      0.039100
     14 CAI         2.4290   -1.6850    6.2220 ca        1 0FZ     -0.134500
     15 CAK         1.7460   -2.0470    7.3690 ca        1 0FZ      0.008000
     16 CAH         3.2400    0.3110    7.3430 ca        1 0FZ     -0.134500
     17 CAJ         2.5490   -0.0560    8.4850 ca        1 0FZ      0.008000
     18 CAV         1.7910   -1.2500    8.5380 ca        1 0FZ     -0.573500
     19 SAY         0.9620   -1.6430    9.8360 sy        1 0FZ      1.498200
     20 OAE         0.7980   -0.6420   10.7700 o         1 0FZ     -0.569800
     21 OAF         0.0220   -2.6360    9.6690 o         1 0FZ     -0.569800
     22 NAC         2.3450   -2.6670   10.7200 n4        1 0FZ     -0.785500
     23 H1         -0.4180   -0.6370    0.2370 h1        1 0FZ      0.054367
     24 H2         -0.3560    1.1950    0.3800 h1        1 0FZ      0.054367
     25 H3         -0.1190    0.3930   -1.2600 h1        1 0FZ      0.054367
     26 H4          3.9710    0.1960    0.3640 ha        1 0FZ      0.166000
     27 H5          0.1100    0.0890    2.3510 ha        1 0FZ      0.150000
     28 H6          1.2390   -0.0890    4.5430 ha        1 0FZ      0.125000
     29 H7          5.9420    0.6680    1.8300 hc        1 0FZ      0.075200
     30 H8          5.8400   -1.0540    2.3680 hc        1 0FZ      0.075200
     31 H9          7.0400   -0.0950    4.1430 h1        1 0FZ      0.084700
     32 H10         6.2120    1.5180    3.9970 h1        1 0FZ      0.084700
     33 H14         2.3790   -2.3180    5.3180 ha        1 0FZ      0.185500
     34 H15         1.1390   -2.9730    7.3730 ha        1 0FZ      0.167500
     35 H16         3.8350    1.2410    7.3280 ha        1 0FZ      0.185500
     36 H17         2.5760    0.6040    9.3730 ha        1 0FZ      0.167500
     37 H18         2.5590   -2.2600   11.6280 hn        1 0FZ      0.454133
     38 H19         3.2040   -2.7000   10.1800 hn        1 0FZ      0.454133
     39 HAC3        2.0330   -3.6230   10.8730 hn        1 0FZ      0.454133
@<TRIPOS>BOND
     1    1    2 1   
     2    1   23 1   
     3    1   24 1   
     4    1   25 1   
     5    2    3 1   
     6    3    4 ar  
     7    3    5 ar  
     8    4    8 ar  
     9    4   26 1   
    10    5    6 ar  
    11    5   27 1   
    12    6    7 ar  
    13    6   28 1   
    14    7    8 ar  
    15    7   12 1   
    16    8    9 1   
    17    9   10 1   
    18    9   29 1   
    19    9   30 1   
    20   10   11 1   
    21   10   31 1   
    22   10   32 1   
    23   11   12 2   
    24   12   13 1   
    25   13   14 ar  
    26   13   16 ar  
    27   14   15 ar  
    28   14   33 1   
    29   15   18 ar  
    30   15   34 1   
    31   16   17 ar  
    32   16   35 1   
    33   17   18 ar  
    34   17   36 1   
    35   18   19 1   
    36   19   20 2   
    37   19   21 2   
    38   19   22 1   
    39   22   37 1   
    40   22   38 1   
    41   22   39 1   
@<TRIPOS>SUBSTRUCTURE
     1 0FZ         1 TEMP              0 ****  ****    0 ROOT
