@<TRIPOS>MOLECULE
0FZ
   39    41     1     0     0
SMALL
bcc


@<TRIPOS>ATOM
      1 CAB         0.0260    0.2950   -0.1470 c3        1 0FZ      0.108700
      2 OAR         1.4470    0.2400   -0.0380 os        1 0FZ     -0.312900
      3 CAX         1.9650    0.1400    1.2310 ca        1 0FZ      0.168100
      4 CAM         3.3730    0.1240    1.2930 ca        1 0FZ     -0.157000
      5 CAW         1.1970    0.0590    2.4010 ca        1 0FZ     -0.213000
      6 CAL         1.8410   -0.0440    3.6310 ca        1 0FZ     -0.065000
      7 CAG         3.2350   -0.0720    3.7090 ca        1 0FZ     -0.238900
      8 CAT         4.0040    0.0240    2.5280 ca        1 0FZ     -0.011300
      9 CAO         5.4900   -0.0080    2.6010 c3        1 0FZ     -0.071100
     10 CAN         6.0320    0.4030    3.9700 c3        1 0FZ      0.096800
     11 NAP         5.2360    0.0830    5.1200 n2        1 0FZ     -0.555900
     12 CAS         3.9640   -0.1450    4.9860 ce        1 0FZ      0.474500
     13 CAU         3.1930   -0.5100    6.1980 ca        1 0FZ      0.039100
     14 CAI         2.4310   -1.6910    6.2220 ca        1 0FZ     -0.134500
     15 CAK         1.7520   -2.0560    7.3710 ca        1 0FZ      0.008000
     16 CAH         3.2430    0.3040    7.3430 ca        1 0FZ     -0.134500
     17 CAJ         2.5550   -0.0640    8.4860 ca        1 0FZ      0.008000
     18 CAV         1.8000   -1.2600    8.5410 ca        1 0FZ     -0.573500
     19 SAY         0.9750   -1.6550    9.8410 sy        1 0FZ      1.498200
     20 OAE         0.8120   -0.6560   10.7760 o         1 0FZ     -0.569800
     21 OAF         0.0350   -2.6500    9.6750 o         1 0FZ     -0.569800
     22 NAC         2.3620   -2.6780   10.7190 nz        1 0FZ     -0.785500
     23 H1         -0.1410    0.3880   -1.2510 h1        1 0FZ      0.054367
     24 H2         -0.3740    1.1880    0.3900 h1        1 0FZ      0.054367
     25 H3         -0.4330   -0.6440    0.2460 h1        1 0FZ      0.054367
     26 H4          3.9550    0.1960    0.3610 ha        1 0FZ      0.166000
     27 H5          0.0990    0.0820    2.3590 ha        1 0FZ      0.150000
     28 H6          1.2350   -0.0950    4.5480 ha        1 0FZ      0.125000
     29 H7          5.8310   -1.0520    2.3600 hc        1 0FZ      0.075200
     30 H8          5.9290    0.6710    1.8220 hc        1 0FZ      0.075200
     31 H9          7.0340   -0.0920    4.1320 h1        1 0FZ      0.084700
     32 H10         6.2030    1.5200    3.9900 h1        1 0FZ      0.084700
     33 H14         2.3790   -2.3230    5.3170 ha        1 0FZ      0.185500
     34 H15         1.1460   -2.9820    7.3750 ha        1 0FZ      0.167500
     35 H16         3.8370    1.2350    7.3270 ha        1 0FZ      0.185500
     36 H17         2.5840    0.5950    9.3750 ha        1 0FZ      0.167500
     37 H18         2.5780   -2.2720   11.6270 hn        1 0FZ      0.454133
     38 H19         3.2190   -2.7090   10.1770 hn        1 0FZ      0.454133
     39 HAC3        2.0510   -3.6350   10.8720 hn        1 0FZ      0.454133
@<TRIPOS>BOND
     1    1    2 1   
     2    1   23 1   
     3    1   24 1   
     4    1   25 1   
     5    2    3 1   
     6    3    4 ar  
     7    3    5 ar  
     8    4    8 ar  
     9    4   26 1   
    10    5    6 ar  
    11    5   27 1   
    12    6    7 ar  
    13    6   28 1   
    14    7    8 ar  
    15    7   12 1   
    16    8    9 1   
    17    9   10 1   
    18    9   29 1   
    19    9   30 1   
    20   10   11 1   
    21   10   31 1   
    22   10   32 1   
    23   11   12 2   
    24   12   13 1   
    25   13   14 ar  
    26   13   16 ar  
    27   14   15 ar  
    28   14   33 1   
    29   15   18 ar  
    30   15   34 1   
    31   16   17 ar  
    32   16   35 1   
    33   17   18 ar  
    34   17   36 1   
    35   18   19 1   
    36   19   20 2   
    37   19   21 2   
    38   19   22 1   
    39   22   37 1   
    40   22   38 1   
    41   22   39 1   
@<TRIPOS>SUBSTRUCTURE
     1 0FZ         1 TEMP              0 ****  ****    0 ROOT
