@<TRIPOS>MOLECULE
0FZ
   38    34     1     0     0
SMALL
bcc


@<TRIPOS>ATOM
      1 CAB        -1.3040    1.5820   -5.5400 c3        1 0FZ     -0.078000
      2 OAR        -1.0710    0.2990   -5.0800 os        1 0FZ     -0.206000
      3 CAX        -0.5060    0.2500   -3.7780 c2        1 0FZ      0.102000
      4 CAM         0.8660    0.2990   -3.6180 c2        1 0FZ     -0.212000
      5 CAW        -1.3260    0.1370   -2.6730 c1        1 0FZ     -0.164000
      6 CAL        -0.7690    0.0710   -1.3960 c1        1 0FZ     -0.064000
      7 CAG         0.6190    0.1200   -1.2360 c1        1 0FZ     -0.135000
      8 CAT         1.4280    0.2330   -2.3300 c1        1 0FZ     -0.009000
      9 CAO         2.9310    0.2040   -2.1650 c2        1 0FZ     -0.155000
     10 CAN         3.5170    0.2780   -0.7680 c3        1 0FZ     -0.102000
     11 NAP         2.6510   -0.2240    0.2630 n2        1 0FZ     -0.161000
     12 CAS         1.2230   -0.1040    0.1230 c2        1 0FZ      0.051000
     13 CAU         0.3340   -0.2730    1.3180 c2        1 0FZ      0.023000
     14 CAI        -0.1680   -1.5330    1.6390 c2        1 0FZ     -0.143000
     15 CAK        -0.9240   -1.7050    2.7870 c1        1 0FZ     -0.024000
     16 CAH         0.0740    0.8150    2.1520 c1        1 0FZ     -0.127000
     17 CAJ        -0.6850    0.6430    3.3030 c1        1 0FZ     -0.023000
     18 CAV        -1.1860   -0.6150    3.6250 c1        1 0FZ     -0.825000
     19 SAY        -2.2860   -0.8040    5.0100 s4        1 0FZ      2.082800
     20 OAE        -3.0780    0.3860    5.2160 o         1 0FZ     -0.545900
     21 OAF        -3.3300   -1.7950    4.7290 o         1 0FZ     -0.545900
     22 NAC        -1.4320   -1.2000    6.3670 n2        1 0FZ     -0.953000
     23 H1         -0.4600    2.0560   -5.6170 h1        1 0FZ      0.086333
     24 H2         -1.7400    1.5410   -6.4230 h1        1 0FZ      0.086333
     25 H3         -1.8920    2.0590   -4.9030 h1        1 0FZ      0.086333
     26 H4          1.4520    0.3210   -4.4090 ha        1 0FZ      0.141000
     27 H5         -2.2670    0.0340   -2.7880 ha        1 0FZ      0.156000
     28 H6         -1.3470   -0.0090   -0.6140 ha        1 0FZ      0.148000
     29 H7          3.3030    0.9680   -2.6850 ha        1 0FZ      0.100000
     30 H8          3.2520   -0.6130   -2.5720 ha        1 0FZ      0.100000
     31 H9          3.8170    1.1670   -0.5250 h1        1 0FZ      0.107500
     32 H10         4.3640   -0.2010   -0.7680 h1        1 0FZ      0.107500
     33 H14         0.0180   -2.3140    1.0410 ha        1 0FZ      0.149000
     34 H15        -1.2710   -2.5770    3.0090 ha        1 0FZ      0.154000
     35 H16         0.4270    1.7040    1.9240 ha        1 0FZ      0.153000
     36 H17        -0.8720    1.4240    3.9020 ha        1 0FZ      0.154000
     37 H18        -1.0350   -0.5370    6.8740 hn        1 0FZ      0.243000
     38 H19        -1.3260   -2.0860    6.6040 hn        1 0FZ      0.243000
@<TRIPOS>BOND
     1    1    2 1   
     2    1   23 1   
     3    1   24 1   
     4    1   25 1   
     5    2    3 1   
     6    3    4 1   
     7    3    5 1   
     8    4    8 1   
     9    4   26 1   
    10    5   27 1   
    11    6    7 1   
    12    6   28 1   
    13    7   12 1   
    14    9   10 1   
    15    9   29 1   
    16    9   30 1   
    17   10   11 1   
    18   10   31 1   
    19   10   32 1   
    20   11   12 1   
    21   12   13 1   
    22   13   14 1   
    23   13   16 1   
    24   14   15 1   
    25   14   33 1   
    26   15   34 1   
    27   16   35 1   
    28   17   18 1   
    29   17   36 1   
    30   18   19 1   
    31   19   20 1   
    32   19   21 1   
    33   22   37 1   
    34   22   38 1   
@<TRIPOS>SUBSTRUCTURE
     1 0FZ         1 TEMP              0 ****  ****    0 ROOT
