@<TRIPOS>MOLECULE
0G
   36    38     1     0     0
SMALL
bcc


@<TRIPOS>ATOM
      1 OP3         6.0610   -0.2070    0.7130 o         1 0G      -0.929500
      2 P           4.6300   -0.0870    1.1290 p5        1 0G       1.335900
      3 OP1         3.9140   -1.3730    1.5030 o         1 0G      -0.929500
      4 OP2         4.2090    1.1000    1.9440 o         1 0G      -0.929500
      5 O5'         3.7870    0.2140   -0.3720 os        1 0G      -0.553200
      6 C5'         2.4390    0.3770   -0.2230 c3        1 0G       0.229400
      7 C4'         1.6910   -0.9200   -0.6180 c3        1 0G       0.051100
      8 O4'         0.4600   -0.5970   -1.3160 os        1 0G      -0.431600
      9 C3'         1.3410   -1.8230    0.5800 c3        1 0G       0.131100
     10 O3'         2.0310   -3.0480    0.5060 oh        1 0G      -0.685800
     11 C2'        -0.1750   -2.0970    0.4710 c3        1 0G       0.103100
     12 O2'        -0.5240   -3.4050    0.0710 oh        1 0G      -0.617800
     13 C1'        -0.6710   -1.1060   -0.6350 c3        1 0G       0.213800
     14 N9         -1.4660    0.0040   -0.1130 na        1 0G      -0.178900
     15 C8         -0.9980    1.2070    0.4560 cc        1 0G       0.447400
     16 N7         -1.9910    2.0640    0.7860 nd        1 0G      -0.629000
     17 C6         -4.5480    1.8200    0.5240 c         1 0G       0.645000
     18 O6         -5.0170    2.8760    0.9860 o         1 0G      -0.643500
     19 C5         -3.1640    1.4120    0.4130 cd        1 0G       0.194800
     20 N1         -5.4760    0.8740    0.0180 n         1 0G      -0.497400
     21 C2         -5.0750   -0.3690   -0.5140 cd        1 0G       0.594800
     22 N2         -6.1430   -1.2550   -0.9060 nh        1 0G      -0.866800
     23 N3         -3.8020   -0.7710   -0.6450 nc        1 0G      -0.615100
     24 C4         -2.8550    0.1200   -0.1600 cc        1 0G       0.057800
     25 H5'         2.1800    0.6590    0.8390 h1        1 0G      -0.001800
     26 H5''        2.0710    1.1900   -0.9170 h1        1 0G      -0.001800
     27 H4'         2.3080   -1.4860   -1.3690 h1        1 0G       0.082700
     28 H3'         1.5850   -1.3100    1.5530 h1        1 0G       0.118700
     29 HO3'        2.9470   -2.8490    0.8240 ho        1 0G       0.517000
     30 H2'        -0.6940   -1.9330    1.4510 h1        1 0G       0.068700
     31 HO2'        0.2670   -3.8240   -0.2960 ho        1 0G       0.432000
     32 H1'        -1.3060   -1.6420   -1.4000 h2        1 0G       0.086700
     33 H8          0.0870    1.3810    0.5860 h5        1 0G       0.116100
     34 H1         -6.4440    1.0700    0.1310 hn        1 0G       0.322500
     35 H21        -6.5900   -0.9120   -1.7350 hn        1 0G       0.382300
     36 H22        -5.8010   -2.1850   -1.0580 hn        1 0G       0.382300
@<TRIPOS>BOND
     1    1    2 1   
     2    2    3 1   
     3    2    4 1   
     4    2    5 1   
     5    5    6 1   
     6    6    7 1   
     7    6   25 1   
     8    6   26 1   
     9    7    8 1   
    10    7    9 1   
    11    7   27 1   
    12    8   13 1   
    13    9   10 1   
    14    9   11 1   
    15    9   28 1   
    16   10   29 1   
    17   11   12 1   
    18   11   13 1   
    19   11   30 1   
    20   12   31 1   
    21   13   14 1   
    22   13   32 1   
    23   14   15 1   
    24   14   24 1   
    25   15   16 2   
    26   15   33 1   
    27   16   19 1   
    28   17   18 2   
    29   17   19 1   
    30   17   20 1   
    31   19   24 2   
    32   20   21 1   
    33   20   34 1   
    34   21   22 1   
    35   21   23 2   
    36   22   35 1   
    37   22   36 1   
    38   23   24 1   
@<TRIPOS>SUBSTRUCTURE
     1 0G          1 TEMP              0 ****  ****    0 ROOT
