@<TRIPOS>MOLECULE
0G
   36    35     1     0     0
SMALL
bcc


@<TRIPOS>ATOM
      1 OP3        -1.7030    0.7160    4.1040 o         1 0G      -0.910833
      2 P          -0.4090   -0.0390    4.4190 p5        1 0G       1.577500
      3 OP1        -0.0740    0.1120    5.9380 o         1 0G      -0.910833
      4 OP2        -0.5850   -1.4910    4.0870 o         1 0G      -0.910833
      5 O5'         0.7520    0.5460    3.5740 os        1 0G      -0.738000
      6 C5'         0.7070    0.3880    2.1110 c3        1 0G       0.071000
      7 C4'         1.4260    1.4750    1.4930 c3        1 0G      -0.031000
      8 O4'         0.6170    2.1950    0.7660 os        1 0G      -0.303000
      9 C3'         2.5580    0.8730    0.4650 c3        1 0G       0.000000
     10 O3'         3.6310    1.9130    0.1940 oh        1 0G      -0.406000
     11 C2'         1.9700    0.6040   -0.5580 c3        1 0G       0.011000
     12 O2'         2.8490    0.8570   -1.7470 oh        1 0G      -0.357000
     13 C1'         0.6940    1.6060   -0.5830 c3        1 0G       0.139000
     14 N9         -0.4330    0.9280   -0.8570 n3        1 0G      -0.184000
     15 C8         -1.2750    1.9910   -0.9750 c1        1 0G      -0.125000
     16 N7         -2.4400    1.5450   -1.5240 n2        1 0G      -0.089000
     17 C6         -3.2750   -0.8180   -2.3280 c1        1 0G       0.403000
     18 O6         -4.3480   -0.4750   -2.7410 o         1 0G      -0.426000
     19 C5         -2.3210    0.2070   -1.7460 c1        1 0G      -0.328000
     20 N1         -2.8790   -2.1590   -2.4390 n3        1 0G      -0.375000
     21 C2         -1.5780   -2.5570   -2.0100 c2        1 0G       0.280000
     22 N2         -1.1370   -3.8980   -2.2270 n3        1 0G      -0.325000
     23 N3         -0.6680   -1.5790   -1.4560 n1        1 0G      -0.226000
     24 C4         -1.0790   -0.1770   -1.3340 c1        1 0G       0.138000
     25 H5'        -0.1940    0.3930    1.8190 h1        1 0G       0.049000
     26 H5''        1.1330   -0.4730    1.8550 h1        1 0G       0.049000
     27 H4'         1.8440    2.0210    2.1630 h1        1 0G       0.071000
     28 H3'         2.9630    0.0550    0.8490 h1        1 0G       0.198000
     29 HO3'        4.2630    1.7890    0.6940 ho        1 0G       0.293000
     30 H2'         1.6780   -0.3110   -0.5460 h1        1 0G       0.129000
     31 HO2'        3.0460    0.0880   -2.1360 ho        1 0G       0.220000
     32 H1'         0.8290    2.2700   -1.2130 h2        1 0G       0.095000
     33 H8         -1.1140    2.8970   -0.6220 DU        1 0G       0.172000
     34 H1         -3.4690   -2.8010   -2.8470 hn        1 0G       0.222000
     35 H21        -0.2160   -4.1180   -2.1300 hn        1 0G       0.263500
     36 H22        -1.7640   -4.5740   -2.5100 hn        1 0G       0.263500
@<TRIPOS>BOND
     1    1    2 1   
     2    2    3 1   
     3    2    4 1   
     4    2    5 1   
     5    5    6 1   
     6    6    7 1   
     7    6   25 1   
     8    6   26 1   
     9    7    8 1   
    10    7    9 1   
    11    7   27 1   
    12    8   13 1   
    13    9   10 1   
    14    9   11 1   
    15    9   28 1   
    16   10   29 1   
    17   11   12 1   
    18   11   13 1   
    19   11   30 1   
    20   12   31 1   
    21   13   14 1   
    22   13   32 1   
    23   14   15 1   
    24   14   24 1   
    25   15   16 1   
    26   16   19 1   
    27   17   18 1   
    28   17   20 1   
    29   19   24 1   
    30   20   21 1   
    31   20   34 1   
    32   21   22 1   
    33   21   23 1   
    34   22   35 1   
    35   22   36 1   
@<TRIPOS>SUBSTRUCTURE
     1 0G          1 TEMP              0 ****  ****    0 ROOT
