@<TRIPOS>MOLECULE
0G0
   38    40     1     0     0
SMALL
bcc


@<TRIPOS>ATOM
      1 C4          4.8340   -1.1170    0.2540 c         1 0G0      0.703700
      2 C5          4.2380   -0.7860   -1.0650 cc        1 0G0     -0.033700
      3 C6          3.3690    0.2650   -1.1980 cd        1 0G0      0.010600
      4 C8          0.6550    1.6000   -0.3960 cc        1 0G0      0.197600
      5 C9         -0.3900    1.6440    0.5430 cd        1 0G0     -0.164600
      6 N1          3.0500    1.0840   -0.1260 n         1 0G0     -0.360000
      7 N3          4.4360   -0.2900    1.3150 n         1 0G0     -0.581500
      8 C2          3.5410    0.7800    1.1720 c         1 0G0      0.805500
      9 O4          5.6280   -2.0450    0.4650 o         1 0G0     -0.580500
     10 F5A         4.5840   -1.5590   -2.1150 f         1 0G0     -0.132500
     11 N5          0.1370    0.9580   -1.5530 nc        1 0G0     -0.348000
     12 N6         -1.0750    0.6470   -1.3630 nd        1 0G0     -0.149800
     13 N7         -1.4720    1.0520   -0.1270 na        1 0G0      0.020400
     14 C1'        -2.7620    0.7570    0.4910 c3        1 0G0      0.270800
     15 O4'        -2.8290   -0.6130    0.8820 os        1 0G0     -0.416600
     16 C4'        -3.6720   -1.3590   -0.0160 c3        1 0G0      0.098100
     17 C5'        -4.3960   -2.4090    0.8260 c3        1 0G0      0.134400
     18 O5'        -3.4990   -3.3800    1.3160 oh        1 0G0     -0.587800
     19 C3'        -4.6390   -0.3500   -0.6600 c3        1 0G0      0.087100
     20 O3'        -4.7370   -0.6740   -2.0310 oh        1 0G0     -0.571800
     21 C2'        -3.9810    1.0340   -0.4430 c3        1 0G0      0.078100
     22 O2'        -4.8220    1.9050    0.2900 oh        1 0G0     -0.589800
     23 H1          2.8920    0.5140   -2.1660 h4        1 0G0      0.195000
     24 H2          2.3020    2.7130   -1.1980 h1        1 0G0      0.090700
     25 H3          2.1000    2.7940    0.6280 h1        1 0G0      0.090700
     26 H4         -0.4470    2.0310    1.5590 h4        1 0G0      0.204000
     27 H5          4.7880   -0.4670    2.2330 hn        1 0G0      0.357500
     28 H6         -2.8260    1.3580    1.4470 h2        1 0G0      0.117700
     29 H7         -3.0190   -1.8440   -0.7920 h1        1 0G0      0.105700
     30 H8         -4.9400   -1.9150    1.6740 h1        1 0G0      0.058200
     31 H9         -5.1170   -2.9750    0.1770 h1        1 0G0      0.058200
     32 H10        -2.8310   -2.9160    1.8360 ho        1 0G0      0.413000
     33 H11        -5.6500   -0.3790   -0.1700 h1        1 0G0      0.063700
     34 H12        -5.4180   -0.1040   -2.4090 ho        1 0G0      0.406000
     35 H13        -3.6910    1.4930   -1.4250 h1        1 0G0      0.087700
     36 H14        -5.4990    2.2210   -0.3190 ho        1 0G0      0.414000
     37 C7          2.0410    2.1160   -0.2750 c3        1 0G0      0.089700
     38 O2          3.2130    1.4660    2.1650 o         1 0G0     -0.643500
@<TRIPOS>BOND
     1    1    2 1   
     2    1    7 1   
     3    1    9 2   
     4    2    3 2   
     5    2   10 1   
     6    3    6 1   
     7    3   23 1   
     8    4    5 2   
     9    4   11 1   
    10    4   37 1   
    11    5   13 1   
    12    5   26 1   
    13    6    8 1   
    14    6   37 1   
    15    7    8 1   
    16    7   27 1   
    17    8   38 2   
    18   11   12 2   
    19   12   13 1   
    20   13   14 1   
    21   14   15 1   
    22   14   21 1   
    23   14   28 1   
    24   15   16 1   
    25   16   17 1   
    26   16   19 1   
    27   16   29 1   
    28   17   18 1   
    29   17   30 1   
    30   17   31 1   
    31   18   32 1   
    32   19   20 1   
    33   19   21 1   
    34   19   33 1   
    35   20   34 1   
    36   21   22 1   
    37   21   35 1   
    38   22   36 1   
    39   24   37 1   
    40   25   37 1   
@<TRIPOS>SUBSTRUCTURE
     1 0G0         1 TEMP              0 ****  ****    0 ROOT
