@<TRIPOS>MOLECULE
0G0
   38    38     1     0     0
SMALL
bcc


@<TRIPOS>ATOM
      1 C4          0.9540    0.2190   -0.5340 c2        1 0G0      0.342000
      2 C5          2.2280   -0.0620    0.1730 c2        1 0G0     -0.080000
      3 C6          2.2640   -0.1670    1.5390 c2        1 0G0      0.009000
      4 C8          1.7910    1.1860    4.3220 c2        1 0G0     -0.223000
      5 C9          1.1610    2.2030    5.0610 c2        1 0G0     -0.083000
      6 N1          1.1150   -0.0600    2.3060 n         1 0G0     -0.253000
      7 N3         -0.1700    0.3670    0.2930 n         1 0G0     -0.361000
      8 C2         -0.1240    0.2650    1.6910 c2        1 0G0      0.396000
      9 O4          0.8290    0.3300   -1.7620 o         1 0G0     -0.306000
     10 F5A         3.3380   -0.2070   -0.5800 f         1 0G0     -0.070000
     11 N5          3.1570    1.5520    4.2100 n2        1 0G0     -0.090000
     12 N6          3.3560    2.6500    4.8130 n2        1 0G0      0.014000
     13 N7          2.1960    3.1030    5.3510 na        1 0G0     -0.168000
     14 C1'         2.0480    4.3120    6.1610 c3        1 0G0      0.082000
     15 O4'         1.9060    5.4850    5.3690 os        1 0G0     -0.291000
     16 C4'         2.9840    5.8860    4.5300 c3        1 0G0     -0.087000
     17 C5'         0.8070    8.1290    3.4410 c1        1 0G0     -0.076000
     18 O5'        -0.0660    7.6270    4.2770 oh        1 0G0     -0.220000
     19 C3'         4.1930    6.3950    5.3010 c3        1 0G0     -0.058000
     20 O3'         4.8330    5.3800    6.0530 oh        1 0G0     -0.337000
     21 C2'         3.1230    4.3610    7.2630 c1        1 0G0      0.057000
     22 O2'         3.1450    5.5460    7.8360 oh        1 0G0     -0.227000
     23 H1          3.2080   -0.3510    2.0890 h4        1 0G0      0.195000
     24 H2          0.1650   -0.1890    4.1710 h1        1 0G0      0.130500
     25 H3          1.8390   -0.9400    4.0570 h1        1 0G0      0.130500
     26 H4          0.1290    2.3450    5.3780 h4        1 0G0      0.201000
     27 H5         -1.0580    0.5680   -0.1180 hn        1 0G0      0.271000
     28 H6          1.0330    4.2390    6.6730 h2        1 0G0      0.136000
     29 H7          3.2750    5.0670    3.8260 h1        1 0G0      0.129500
     30 H8          2.5250    6.7410    3.9410 h1        1 0G0      0.129500
     31 H9          0.3120    8.9430    2.8540 ha        1 0G0      0.040000
     32 H10         0.3620    6.9130    4.7940 ho        1 0G0      0.262000
     33 H11         4.9200    6.8550    4.5800 h1        1 0G0      0.103500
     34 H12         5.0930    4.6730    5.4490 ho        1 0G0      0.225000
     35 H13         3.8820    7.1540    6.0700 h1        1 0G0      0.103500
     36 H14         3.8570    5.5290    8.5030 ho        1 0G0      0.274000
     37 C7          1.2060   -0.0540    3.7550 c3        1 0G0      0.068000
     38 O2         -1.1610    0.4290    2.3700 o         1 0G0     -0.367000
@<TRIPOS>BOND
     1    1    2 1   
     2    1    7 1   
     3    1    9 1   
     4    2    3 1   
     5    2   10 1   
     6    3    6 1   
     7    3   23 1   
     8    4    5 1   
     9    4   11 1   
    10    4   37 1   
    11    5   13 1   
    12    5   26 1   
    13    6    8 1   
    14    6   37 1   
    15    7    8 1   
    16    7   27 1   
    17    8   38 1   
    18   11   12 1   
    19   12   13 1   
    20   13   14 1   
    21   14   15 1   
    22   14   21 1   
    23   14   28 1   
    24   15   16 1   
    25   16   19 1   
    26   16   29 1   
    27   16   30 1   
    28   17   18 1   
    29   17   31 1   
    30   18   32 1   
    31   19   20 1   
    32   19   33 1   
    33   19   35 1   
    34   20   34 1   
    35   21   22 1   
    36   22   36 1   
    37   24   37 1   
    38   25   37 1   
@<TRIPOS>SUBSTRUCTURE
     1 0G0         1 TEMP              0 ****  ****    0 ROOT
