@<TRIPOS>MOLECULE
0G0
   38    38     1     0     0
SMALL
bcc


@<TRIPOS>ATOM
      1 C4          0.5880    2.5200    0.7700 c2        1 0G0      0.330000
      2 C5          1.6460    1.6570    0.1760 c2        1 0G0     -0.105000
      3 C6          1.9610    0.4390    0.6850 c1        1 0G0     -0.231000
      4 C8          2.5820    0.8260    3.7550 c2        1 0G0     -0.253000
      5 C9          1.9090    1.3780    4.8650 c2        1 0G0     -0.078000
      6 N1          1.2680   -0.0870    1.8340 n4        1 0G0      0.027000
      7 N3         -0.1710    1.9450    1.8240 n         1 0G0     -0.354000
      8 C2          0.0790    0.6980    2.3640 c2        1 0G0      0.279000
      9 O4          0.3000    3.6750    0.4300 o         1 0G0     -0.318000
     10 F5A         2.2680    2.1700   -0.9100 f         1 0G0     -0.072000
     11 N5          3.7430    1.6200    3.5510 n2        1 0G0     -0.051000
     12 N6          3.7840    2.5430    4.4150 n2        1 0G0      0.033000
     13 N7          2.7170    2.4500    5.2540 na        1 0G0     -0.173000
     14 C1'         2.3570    3.4170    6.2980 c3        1 0G0      0.081000
     15 O4'         1.5930    4.4850    5.7670 os        1 0G0     -0.256000
     16 C4'         2.3220    5.5820    5.2120 c3        1 0G0     -0.080000
     17 C5'         1.4670    6.7340    1.1580 c2        1 0G0      0.144000
     18 O5'         1.6210    7.0110    2.3470 o         1 0G0     -0.317000
     19 C3'         2.5020    6.6790    6.2560 c3        1 0G0     -0.051000
     20 O3'         3.4810    6.3440    7.2240 oh        1 0G0     -0.343000
     21 C2'         3.6210    3.9570    7.0080 c1        1 0G0      0.049000
     22 O2'         3.4460    3.8780    8.3080 oh        1 0G0     -0.221000
     23 H1          0.8970   -0.9970    1.5230 hn        1 0G0      0.260000
     24 H2          1.7260   -1.1190    3.6370 hx        1 0G0      0.148000
     25 H3          3.1530   -0.8190    2.4900 hx        1 0G0      0.148000
     26 H4          0.9800    1.1010    5.3650 h4        1 0G0      0.207000
     27 H5         -0.9250    2.4730    2.2170 hn        1 0G0      0.261000
     28 H6          1.6270    2.8870    6.9880 h2        1 0G0      0.128000
     29 H7          3.3090    5.2550    4.7970 h1        1 0G0      0.130500
     30 H8          1.1310    5.7310    0.8190 h4        1 0G0      0.087000
     31 H9          1.6590    5.9530    4.3790 h1        1 0G0      0.130500
     32 H10         1.6580    7.4820    0.3580 h4        1 0G0      0.087000
     33 H11         2.7790    7.6360    5.7400 h1        1 0G0      0.103500
     34 H12         4.3220    6.2370    6.7600 ho        1 0G0      0.216000
     35 H13         1.5580    6.8230    6.8480 h1        1 0G0      0.103500
     36 H14         4.2040    4.3170    8.7390 ho        1 0G0      0.276000
     37 C7          2.2310   -0.3660    2.9640 c3        1 0G0      0.011000
     38 O2         -0.6330    0.1880    3.2490 o         1 0G0     -0.336000
@<TRIPOS>BOND
     1    1    2 1   
     2    1    7 1   
     3    1    9 1   
     4    2    3 1   
     5    2   10 1   
     6    3    6 1   
     7    4    5 1   
     8    4   11 1   
     9    4   37 1   
    10    5   13 1   
    11    5   26 1   
    12    6    8 1   
    13    6   23 1   
    14    6   37 1   
    15    7    8 1   
    16    7   27 1   
    17    8   38 1   
    18   11   12 1   
    19   12   13 1   
    20   13   14 1   
    21   14   15 1   
    22   14   21 1   
    23   14   28 1   
    24   15   16 1   
    25   16   19 1   
    26   16   29 1   
    27   16   31 1   
    28   17   18 1   
    29   17   30 1   
    30   17   32 1   
    31   19   20 1   
    32   19   33 1   
    33   19   35 1   
    34   20   34 1   
    35   21   22 1   
    36   22   36 1   
    37   24   37 1   
    38   25   37 1   
@<TRIPOS>SUBSTRUCTURE
     1 0G0         1 TEMP              0 ****  ****    0 ROOT
