@<TRIPOS>MOLECULE
0G0
   38    36     1     0     0
SMALL
bcc


@<TRIPOS>ATOM
      1 C4         -3.5040    4.5990    1.2800 c1        1 0G0      0.341000
      2 C5         -3.8710    4.2770   -0.0970 c2        1 0G0     -0.079000
      3 C6         -2.8970    3.6190   -0.9800 c1        1 0G0      0.009000
      4 C7         -0.6090    2.7830   -1.4050 c3        1 0G0      0.068000
      5 C8         -0.3530    1.3050   -1.0200 c2        1 0G0     -0.222000
      6 C9          0.7020    0.5350   -1.4380 c1        1 0G0     -0.078000
      7 N1         -1.5850    3.3510   -0.5140 n2        1 0G0     -0.253000
      8 N3         -2.2070    4.2800    1.7600 n2        1 0G0     -0.361000
      9 O2         -0.0930    3.4750    1.2410 o         1 0G0     -0.367000
     10 C2         -1.2180    3.6740    0.8570 c2        1 0G0      0.396000
     11 O4         -4.3410    5.0980    2.0440 o         1 0G0     -0.305000
     12 F5A        -5.1350    4.5140   -0.5380 f         1 0G0     -0.070000
     13 N5         -1.1230    0.5510   -0.2110 n2        1 0G0     -0.083000
     14 N6         -0.5550   -0.6880   -0.1210 n2        1 0G0      0.020000
     15 N7          0.5730   -0.6880   -0.8840 n2        1 0G0     -0.195000
     16 C1'         1.4450   -1.7830   -1.0830 c2        1 0G0      0.142000
     17 O4'         0.7780   -2.8920   -1.0900 os        1 0G0     -0.277000
     18 C4'         0.8140   -3.3730    0.3220 c3        1 0G0     -0.016000
     19 C5'         1.1840   -4.7260    0.3680 c3        1 0G0     -0.016000
     20 O5'         0.2060   -5.5060   -0.2940 oh        1 0G0     -0.316000
     21 C3'         1.9060   -2.4750    1.0550 c3        1 0G0      0.012000
     22 O3'         1.2430   -1.4880    1.9620 oh        1 0G0     -0.304000
     23 C2'         2.4990   -1.8880    0.1430 c3        1 0G0     -0.030000
     24 O2'         3.6920   -2.6730   -0.2770 oh        1 0G0     -0.315000
     25 H1         -3.1370    3.4080   -1.8850 ha        1 0G0      0.195000
     26 H2          0.2410    3.2960   -1.3350 h1        1 0G0      0.131000
     27 H3         -0.9470    2.8280   -2.3360 h1        1 0G0      0.131000
     28 H4          1.4330    0.8260   -2.0440 DU        1 0G0      0.203000
     29 H5         -1.9800    4.4790    2.6070 hn        1 0G0      0.271000
     30 H6          1.9100   -1.6810   -1.9020 h4        1 0G0      0.142000
     31 H7         -0.0660   -3.2490    0.7440 h1        1 0G0      0.142000
     32 H8          1.2530   -5.0090    1.2860 h1        1 0G0      0.099000
     33 H9          2.0510   -4.8430   -0.0760 h1        1 0G0      0.099000
     34 H10         0.3920   -6.3720   -0.1830 ho        1 0G0      0.211000
     35 H11         2.5330   -3.0420    1.5630 h1        1 0G0      0.115000
     36 H12         1.7180   -1.4150    2.7260 ho        1 0G0      0.214000
     37 H13         2.7730   -0.9750    0.4430 h1        1 0G0      0.133000
     38 H14         4.2730   -2.1330   -0.6890 ho        1 0G0      0.214000
@<TRIPOS>BOND
     1    1    2 1   
     2    1   11 1   
     3    2    3 1   
     4    2   12 1   
     5    3   25 1   
     6    4    5 1   
     7    4    7 1   
     8    4   26 1   
     9    4   27 1   
    10    5    6 1   
    11    5   13 1   
    12    6   15 1   
    13    7   10 1   
    14    8   10 1   
    15    8   29 1   
    16    9   10 1   
    17   13   14 1   
    18   14   15 1   
    19   16   17 1   
    20   16   23 1   
    21   16   30 1   
    22   17   18 1   
    23   18   19 1   
    24   18   21 1   
    25   18   31 1   
    26   19   20 1   
    27   19   32 1   
    28   19   33 1   
    29   20   34 1   
    30   21   22 1   
    31   21   23 1   
    32   21   35 1   
    33   22   36 1   
    34   23   24 1   
    35   23   37 1   
    36   24   38 1   
@<TRIPOS>SUBSTRUCTURE
     1 0G0         1 TEMP              0 ****  ****    0 ROOT
