@<TRIPOS>MOLECULE
0G0
   38    38     1     0     0
SMALL
bcc


@<TRIPOS>ATOM
      1 C4          0.0420    2.3150    0.7220 c2        1 0G0      0.342000
      2 C5          1.4790    1.9410    0.6830 c2        1 0G0     -0.073000
      3 C6          1.9960    1.0460    1.5830 c2        1 0G0     -0.003000
      4 C8          2.5990    0.2140    4.6420 c3        1 0G0     -0.240000
      5 C9          1.7550    1.0930    5.5980 c1        1 0G0      0.032000
      6 N1          1.2080    0.4580    2.5590 n         1 0G0     -0.267000
      7 N3         -0.7200    1.6570    1.6970 ns        1 0G0     -0.359000
      8 C2         -0.1910    0.7240    2.6020 c2        1 0G0      0.399000
      9 O4         -0.4970    3.1370   -0.0320 o         1 0G0     -0.303000
     10 F5A         2.2450    2.5090   -0.2710 f         1 0G0     -0.070000
     11 N5          3.6680    1.1830    4.1620 n2        1 0G0     -0.097000
     12 N6          3.5140    2.2810    4.6770 n2        1 0G0      0.043000
     13 N7          2.3890    2.2860    5.5420 n3        1 0G0     -0.263000
     14 C1'         1.9750    3.4980    6.2650 c3        1 0G0      0.092000
     15 O4'         1.3360    4.4040    5.3800 os        1 0G0     -0.236000
     16 C4'         2.1760    5.3560    4.7340 c3        1 0G0     -0.073000
     17 C5'         2.4900    7.0340    1.9240 c1        1 0G0     -0.093000
     18 O5'         3.7710    6.8990    2.1520 oh        1 0G0     -0.220000
     19 C3'         2.1930    6.6640    5.5250 c3        1 0G0     -0.043000
     20 O3'         2.7310    7.7020    4.7320 oh        1 0G0     -0.355000
     21 C2'         3.0230    4.2100    7.1000 c1        1 0G0      0.003000
     22 O2'         4.0160    3.4580    7.5090 oh        1 0G0     -0.205000
     23 H1          3.0640    0.7550    1.5620 h4        1 0G0      0.190000
     24 H2          0.9530   -1.0270    4.0190 h1        1 0G0      0.134500
     25 H3          2.4630   -1.1630    2.9710 h1        1 0G0      0.134500
     26 H4          3.1060   -0.6030    5.2290 h1        1 0G0      0.173000
     27 H5         -1.6960    1.8540    1.7730 hn        1 0G0      0.275000
     28 H6          1.1360    3.1780    6.9700 h2        1 0G0      0.178000
     29 H7          3.2160    4.9720    4.5860 h1        1 0G0      0.104000
     30 H8          2.3010    6.9030    0.8300 ha        1 0G0      0.050000
     31 H9          1.6930    5.5210    3.7280 h1        1 0G0      0.104000
     32 H10         3.9390    7.0170    3.1120 ho        1 0G0      0.263000
     33 H11         1.1550    6.9180    5.8670 h1        1 0G0      0.102500
     34 H12         2.0970    7.8750    4.0160 ho        1 0G0      0.228000
     35 H13         2.8700    6.5850    6.4170 h1        1 0G0      0.102500
     36 H14         4.5940    4.0080    8.0730 ho        1 0G0      0.271000
     37 C7          1.7880   -0.4460    3.5240 c3        1 0G0      0.020000
     38 O2         -0.9360    0.1320    3.4080 o         1 0G0     -0.342000
@<TRIPOS>BOND
     1    1    2 1   
     2    1    7 1   
     3    1    9 1   
     4    2    3 1   
     5    2   10 1   
     6    3    6 1   
     7    3   23 1   
     8    4    5 1   
     9    4   11 1   
    10    4   26 1   
    11    4   37 1   
    12    5   13 1   
    13    6    8 1   
    14    6   37 1   
    15    7    8 1   
    16    7   27 1   
    17    8   38 1   
    18   11   12 1   
    19   12   13 1   
    20   13   14 1   
    21   14   15 1   
    22   14   21 1   
    23   14   28 1   
    24   15   16 1   
    25   16   19 1   
    26   16   29 1   
    27   16   31 1   
    28   17   18 1   
    29   17   30 1   
    30   18   32 1   
    31   19   20 1   
    32   19   33 1   
    33   19   35 1   
    34   20   34 1   
    35   21   22 1   
    36   22   36 1   
    37   24   37 1   
    38   25   37 1   
@<TRIPOS>SUBSTRUCTURE
     1 0G0         1 TEMP              0 ****  ****    0 ROOT
