@<TRIPOS>MOLECULE
0G1
   56    60     1     0     0
SMALL
bcc


@<TRIPOS>ATOM
      1 CBE         0.5170    0.1100   -0.5050 c3        1 0G1      0.114700
      2 OBD         1.9110    0.2240   -0.2450 os        1 0G1     -0.329900
      3 CBA         2.2890    0.1540    1.0830 ca        1 0G1      0.122100
      4 CBB         3.6750    0.2580    1.3080 ca        1 0G1     -0.187000
      5 CBC         4.1570    0.2000    2.6090 ca        1 0G1     -0.075000
      6 CAZ         1.4040   -0.0070    2.1530 ca        1 0G1     -0.187000
      7 CAY         1.9050   -0.0610    3.4540 ca        1 0G1     -0.075000
      8 CAX         3.2800    0.0450    3.6960 ca        1 0G1     -0.054800
      9 CAG         3.8090   -0.0310    5.0400 cc        1 0G1     -0.041400
     10 CAH         4.7090   -1.0610    5.5200 ca        1 0G1     -0.091800
     11 CAA         5.2870   -2.1940    4.9440 ca        1 0G1     -0.080000
     12 CAB         6.1170   -2.9920    5.7120 ca        1 0G1     -0.159000
     13 CAC         6.3930   -2.6900    7.0660 ca        1 0G1     -0.058300
     14 CAJ         7.3110   -3.6100    7.8400 c3        1 0G1      0.202100
     15 CAK         6.7020   -5.0170    7.9470 c3        1 0G1     -0.103400
     16 CAO         5.4420   -5.0420    8.7720 c3        1 0G1     -0.095600
     17 CAM         8.6740   -3.6760    7.1250 c3        1 0G1     -0.103400
     18 CAN         9.7820   -4.2330    7.9780 c3        1 0G1     -0.095600
     19 OAL         7.4800   -3.0470    9.1440 oh        1 0G1     -0.598800
     20 CAD         5.8400   -1.5690    7.6720 ca        1 0G1     -0.118000
     21 CAI         4.9980   -0.7510    6.9000 ca        1 0G1     -0.040200
     22 NAE         4.3350    0.4300    7.2310 na        1 0G1     -0.184400
     23 CAF         3.5940    0.8520    6.1100 cd        1 0G1     -0.090900
     24 CAP         2.8160    2.0680    6.1620 cd        1 0G1      0.427100
     25 CAT         3.1750    3.2730    6.8770 cd        1 0G1     -0.246400
     26 SAS         4.3030    4.0140    7.8330 ss        1 0G1      0.065200
     27 CAW         3.4350    5.4590    7.9200 cd        1 0G1     -0.136100
     28 CAV         2.2500    5.4510    7.2170 cc        1 0G1     -0.139000
     29 CAU         2.0830    4.1790    6.5960 cc        1 0G1     -0.080300
     30 NAR         1.1830    3.4880    5.7960 na        1 0G1      0.002400
     31 NAQ         1.6170    2.2550    5.5250 nc        1 0G1     -0.469800
     32 H1          0.4520    0.1870   -1.6200 h1        1 0G1      0.042700
     33 H2         -0.0450    0.9440   -0.0190 h1        1 0G1      0.042700
     34 H3          0.1290   -0.8780   -0.1560 h1        1 0G1      0.042700
     35 H4          4.3540    0.3840    0.4540 ha        1 0G1      0.140000
     36 H5          5.2390    0.2790    2.7940 ha        1 0G1      0.142000
     37 H6          0.3220   -0.0910    1.9870 ha        1 0G1      0.140000
     38 H7          1.2100   -0.1910    4.2970 ha        1 0G1      0.142000
     39 H8          5.0810   -2.4390    3.8920 ha        1 0G1      0.140000
     40 H9          6.5750   -3.8850    5.2610 ha        1 0G1      0.128000
     41 H10         7.4620   -5.7030    8.4050 hc        1 0G1      0.049450
     42 H11         6.4870   -5.3940    6.9130 hc        1 0G1      0.049450
     43 H12         5.0520   -6.0850    8.8490 hc        1 0G1      0.037700
     44 H13         4.6560   -4.3990    8.3050 hc        1 0G1      0.037700
     45 H14         5.6410   -4.6550    9.8010 hc        1 0G1      0.037700
     46 H15         8.9510   -2.6380    6.8000 hc        1 0G1      0.049450
     47 H16         8.5570   -4.3010    6.2010 hc        1 0G1      0.049450
     48 H17         9.9890   -3.5610    8.8470 hc        1 0G1      0.037700
     49 H18         9.5260   -5.2470    8.3690 hc        1 0G1      0.037700
     50 H19        10.7190   -4.3180    7.3750 hc        1 0G1      0.037700
     51 H20         7.9370   -3.7130    9.6710 ho        1 0G1      0.403000
     52 H21         6.0580   -1.3290    8.7230 ha        1 0G1      0.156000
     53 H22         4.2520    0.8090    8.1360 hn        1 0G1      0.301700
     54 H23         3.8130    6.3070    8.4900 h4        1 0G1      0.173000
     55 H24         1.5440    6.2770    7.1380 ha        1 0G1      0.161000
     56 H25         0.3740    3.8460    5.3460 hn        1 0G1      0.329700
@<TRIPOS>BOND
     1    1    2 1   
     2    1   32 1   
     3    1   33 1   
     4    1   34 1   
     5    2    3 1   
     6    3    4 ar  
     7    3    6 ar  
     8    4    5 ar  
     9    4   35 1   
    10    5    8 ar  
    11    5   36 1   
    12    6    7 ar  
    13    6   37 1   
    14    7    8 ar  
    15    7   38 1   
    16    8    9 1   
    17    9   10 1   
    18    9   23 2   
    19   10   11 ar  
    20   10   21 ar  
    21   11   12 ar  
    22   11   39 1   
    23   12   13 ar  
    24   12   40 1   
    25   13   14 1   
    26   13   20 ar  
    27   14   15 1   
    28   14   17 1   
    29   14   19 1   
    30   15   16 1   
    31   15   41 1   
    32   15   42 1   
    33   16   43 1   
    34   16   44 1   
    35   16   45 1   
    36   17   18 1   
    37   17   46 1   
    38   17   47 1   
    39   18   48 1   
    40   18   49 1   
    41   18   50 1   
    42   19   51 1   
    43   20   21 ar  
    44   20   52 1   
    45   21   22 1   
    46   22   23 1   
    47   22   53 1   
    48   23   24 1   
    49   24   25 1   
    50   24   31 2   
    51   25   26 1   
    52   25   29 2   
    53   26   27 1   
    54   27   28 2   
    55   27   54 1   
    56   28   29 1   
    57   28   55 1   
    58   29   30 1   
    59   30   31 1   
    60   30   56 1   
@<TRIPOS>SUBSTRUCTURE
     1 0G1         1 TEMP              0 ****  ****    0 ROOT
