@<TRIPOS>MOLECULE
0G1
   56    48     1     0     0
SMALL
bcc


@<TRIPOS>ATOM
      1 CBE        -3.8510    0.5390   -6.1860 c3        1 0G1     -0.075000
      2 OBD        -4.3000    1.1950   -4.9810 os        1 0G1     -0.213000
      3 CBA        -3.4450    0.9680   -3.8330 c2        1 0G1      0.077000
      4 CBB        -3.6880   -0.1100   -2.9890 c2        1 0G1     -0.164000
      5 CBC        -2.9070   -0.2900   -1.8460 c1        1 0G1     -0.068000
      6 CAZ        -2.4270    1.8650   -3.5380 c1        1 0G1     -0.211000
      7 CAY        -1.6490    1.6840   -2.3980 c1        1 0G1     -0.082000
      8 CAX        -1.8920    0.6050   -1.5530 c1        1 0G1     -0.042000
      9 CAG        -1.0090    0.3890   -0.3080 c1        1 0G1     -0.066000
     10 CAH         0.1710   -0.3000   -0.0750 c1        1 0G1     -0.080000
     11 CAA         0.9970   -1.0620   -0.9220 c1        1 0G1     -0.119500
     12 CAB         2.1640   -1.6560   -0.4180 c1        1 0G1     -0.119500
     13 CAC         2.5060   -1.4910    0.9230 c1        1 0G1     -0.051000
     14 CAJ         3.8530   -2.0420    1.5220 c3        1 0G1      0.123000
     15 CAK         4.0040   -3.5480    1.1620 c3        1 0G1     -0.182000
     16 CAO         3.1050   -4.3900    2.0900 c3        1 0G1     -0.214000
     17 CAM         5.0220   -1.2630    0.9430 c3        1 0G1     -0.182000
     18 CAN         6.2510   -1.3680    1.9070 c3        1 0G1     -0.214000
     19 OAL         3.8390   -1.8950    2.9140 oh        1 0G1     -0.326000
     20 CAD         1.6850   -0.7320    1.7670 c1        1 0G1     -0.118000
     21 CAI         0.5090   -0.1350    1.2570 c1        1 0G1      0.005000
     22 NAE        -0.4710    0.6630    1.8540 n1        1 0G1     -0.207000
     23 CAF        -1.4030    0.9840    0.8910 c1        1 0G1      0.047000
     24 CAP        -2.6950    1.7160    1.2910 c1        1 0G1     -0.013000
     25 CAT        -2.7900    3.0210    1.6590 c2        1 0G1     -0.450000
     26 SAS        -1.9640    4.3120    1.9990 ss        1 0G1      0.603000
     27 CAW        -2.9680    5.4300    2.3390 c1        1 0G1     -0.405000
     28 CAV        -4.2940    4.8830    2.2210 c1        1 0G1     -0.138000
     29 CAU        -4.1670    3.3390    1.7850 c2        1 0G1     -0.057000
     30 NAR        -4.8760    2.2360    1.4960 n2        1 0G1     -0.141000
     31 NAQ        -3.9760    1.2110    1.1840 n2        1 0G1     -0.035000
     32 H1         -3.1360    1.0710   -6.6030 h1        1 0G1      0.081667
     33 H2         -3.5090   -0.3520   -5.9650 h1        1 0G1      0.081667
     34 H3         -4.6090    0.4540   -6.8170 h1        1 0G1      0.081667
     35 H4         -4.4020   -0.7390   -3.1960 ha        1 0G1      0.146000
     36 H5         -3.0770   -1.0480   -1.2530 ha        1 0G1      0.146000
     37 H6         -2.2560    2.6230   -4.1310 ha        1 0G1      0.134000
     38 H7         -0.9330    2.3150   -2.1900 ha        1 0G1      0.137000
     39 H8          0.7540   -1.1790   -1.8710 ha        1 0G1      0.133500
     40 H9          2.7310   -2.1790   -1.0020 ha        1 0G1      0.133500
     41 H10         3.7370   -3.6920    0.2300 hc        1 0G1      0.088250
     42 H11         4.9440   -3.8200    1.2800 hc        1 0G1      0.088250
     43 H12         2.5750   -3.7950    2.6590 hc        1 0G1      0.077000
     44 H13         3.6680   -4.9670    2.6550 hc        1 0G1      0.077000
     45 H14         2.5030   -4.9490    1.5470 hc        1 0G1      0.077000
     46 H15         4.7670   -0.3180    0.8390 hc        1 0G1      0.088250
     47 H16         5.2600   -1.6360    0.0680 hc        1 0G1      0.088250
     48 H17         6.9530   -0.7360    1.6160 hc        1 0G1      0.077000
     49 H18         6.6090   -2.2910    1.8870 hc        1 0G1      0.077000
     50 H19         5.9680   -1.1450    2.8290 hc        1 0G1      0.077000
     51 H20         4.3470   -2.5220    3.2820 ho        1 0G1      0.202000
     52 H21         1.9240   -0.6170    2.7070 ha        1 0G1      0.156000
     53 H22        -0.4890    0.9230    2.7220 DU        1 0G1      0.216500
     54 H23        -2.7460    6.3090    2.6700 DU        1 0G1      0.216500
     55 H24        -5.1210    5.3620    2.3780 DU        1 0G1      0.216500
     56 H25        -5.7950    2.1660    1.5010 DU        1 0G1      0.216500
@<TRIPOS>BOND
     1    1    2 1   
     2    1   32 1   
     3    1   33 1   
     4    1   34 1   
     5    2    3 1   
     6    3    4 1   
     7    3    6 1   
     8    4    5 1   
     9    4   35 1   
    10    5   36 1   
    11    6   37 1   
    12    7    8 1   
    13    7   38 1   
    14    9   10 1   
    15    9   23 1   
    16   10   21 1   
    17   11   12 1   
    18   11   39 1   
    19   12   40 1   
    20   13   14 1   
    21   13   20 1   
    22   14   15 1   
    23   14   17 1   
    24   14   19 1   
    25   15   16 1   
    26   15   41 1   
    27   15   42 1   
    28   16   43 1   
    29   16   44 1   
    30   16   45 1   
    31   17   18 1   
    32   17   46 1   
    33   17   47 1   
    34   18   48 1   
    35   18   49 1   
    36   18   50 1   
    37   19   51 1   
    38   20   52 1   
    39   22   23 1   
    40   24   25 1   
    41   24   31 1   
    42   25   26 1   
    43   25   29 1   
    44   26   27 1   
    45   27   28 1   
    46   28   29 1   
    47   29   30 1   
    48   30   31 1   
@<TRIPOS>SUBSTRUCTURE
     1 0G1         1 TEMP              0 ****  ****    0 ROOT
