@<TRIPOS>MOLECULE
0G1
   56    60     1     0     0
SMALL
bcc


@<TRIPOS>ATOM
      1 CBE        -4.9480   -5.2480    0.1340 c3        1 0G1      0.114700
      2 OBD        -4.1050   -4.7790   -0.9110 os        1 0G1     -0.329900
      3 CBA        -3.2570   -3.7370   -0.5870 ca        1 0G1      0.123100
      4 CBB        -2.4260   -3.3040   -1.6380 ca        1 0G1     -0.187000
      5 CBC        -1.5380   -2.2610   -1.4140 ca        1 0G1     -0.074000
      6 CAZ        -3.1920   -3.1270    0.6700 ca        1 0G1     -0.187000
      7 CAY        -2.2950   -2.0800    0.8770 ca        1 0G1     -0.074000
      8 CAX        -1.4640   -1.6350   -0.1580 ca        1 0G1     -0.056800
      9 CAG        -0.5170   -0.5620    0.0550 cc        1 0G1     -0.038400
     10 CAH         0.9240   -0.6980   -0.0360 ca        1 0G1     -0.091800
     11 CAA         1.7860   -1.7650   -0.2950 ca        1 0G1     -0.077000
     12 CAB         3.1540   -1.5430   -0.2930 ca        1 0G1     -0.154000
     13 CAC         3.6990   -0.2640   -0.0410 ca        1 0G1     -0.088300
     14 CAJ         5.2030   -0.0870   -0.0600 c3        1 0G1      0.198100
     15 CAK         5.8500   -0.8230    1.1230 c3        1 0G1     -0.083400
     16 CAO         5.3980   -0.2930    2.4580 c3        1 0G1     -0.092100
     17 CAM         5.7560   -0.6180   -1.3960 c3        1 0G1     -0.083400
     18 CAN         7.2070   -0.2790   -1.6130 c3        1 0G1     -0.092100
     19 OAL         5.5570    1.2880    0.0940 oh        1 0G1     -0.593800
     20 CAD         2.8700    0.8190    0.2290 ca        1 0G1     -0.140000
     21 CAI         1.4820    0.6060    0.2290 ca        1 0G1     -0.037200
     22 NAE         0.4310    1.5020    0.4260 na        1 0G1     -0.184400
     23 CAF        -0.7800    0.7820    0.3570 cd        1 0G1     -0.090900
     24 CAP        -2.0450    1.4610    0.5230 cd        1 0G1      0.426100
     25 CAT        -2.3450    2.8100    0.0980 cd        1 0G1     -0.245400
     26 SAS        -1.7730    4.1720   -0.6470 ss        1 0G1      0.063200
     27 CAW        -3.2310    5.0040   -0.4810 cd        1 0G1     -0.135100
     28 CAV        -4.2270    4.2830    0.1400 cc        1 0G1     -0.138000
     29 CAU        -3.7280    2.9930    0.4830 cc        1 0G1     -0.080300
     30 NAR        -4.1320    1.8160    1.0980 na        1 0G1      0.003400
     31 NAQ        -3.1530    0.9090    1.1100 nc        1 0G1     -0.468800
     32 H1         -5.6350   -4.4390    0.4810 h1        1 0G1      0.042700
     33 H2         -5.5260   -6.0770   -0.3480 h1        1 0G1      0.042700
     34 H3         -4.3410   -5.6370    0.9880 h1        1 0G1      0.042700
     35 H4         -2.4930   -3.7950   -2.6180 ha        1 0G1      0.141000
     36 H5         -0.8830   -1.9170   -2.2290 ha        1 0G1      0.142000
     37 H6         -3.8350   -3.4600    1.4960 ha        1 0G1      0.141000
     38 H7         -2.2410   -1.6010    1.8660 ha        1 0G1      0.142000
     39 H8          1.3750   -2.7660   -0.4950 ha        1 0G1      0.141000
     40 H9          3.8350   -2.3860   -0.4850 ha        1 0G1      0.131000
     41 H10         5.5970   -1.9110    1.0320 hc        1 0G1      0.047450
     42 H11         6.9630   -0.7130    1.0360 hc        1 0G1      0.047450
     43 H12         4.2930   -0.4030    2.5730 hc        1 0G1      0.038700
     44 H13         5.9010   -0.8530    3.2830 hc        1 0G1      0.038700
     45 H14         5.6550    0.7910    2.5510 hc        1 0G1      0.038700
     46 H15         5.6200   -1.7300   -1.4270 hc        1 0G1      0.047450
     47 H16         5.1430   -0.1810   -2.2280 hc        1 0G1      0.047450
     48 H17         7.3920    0.8070   -1.4280 hc        1 0G1      0.038700
     49 H18         7.8620   -0.8660   -0.9240 hc        1 0G1      0.038700
     50 H19         7.5020   -0.5180   -2.6640 hc        1 0G1      0.038700
     51 H20         5.2650    1.7410   -0.7070 ho        1 0G1      0.399000
     52 H21         3.2880    1.8100    0.4540 ha        1 0G1      0.144000
     53 H22         0.5180    2.4100    0.8000 hn        1 0G1      0.299700
     54 H23        -3.3400    6.0240   -0.8500 h4        1 0G1      0.173000
     55 H24        -5.2410    4.6290    0.3420 ha        1 0G1      0.162000
     56 H25        -5.0460    1.5740    1.4010 hn        1 0G1      0.329700
@<TRIPOS>BOND
     1    1    2 1   
     2    1   32 1   
     3    1   33 1   
     4    1   34 1   
     5    2    3 1   
     6    3    4 ar  
     7    3    6 ar  
     8    4    5 ar  
     9    4   35 1   
    10    5    8 ar  
    11    5   36 1   
    12    6    7 ar  
    13    6   37 1   
    14    7    8 ar  
    15    7   38 1   
    16    8    9 1   
    17    9   10 1   
    18    9   23 2   
    19   10   11 ar  
    20   10   21 ar  
    21   11   12 ar  
    22   11   39 1   
    23   12   13 ar  
    24   12   40 1   
    25   13   14 1   
    26   13   20 ar  
    27   14   15 1   
    28   14   17 1   
    29   14   19 1   
    30   15   16 1   
    31   15   41 1   
    32   15   42 1   
    33   16   43 1   
    34   16   44 1   
    35   16   45 1   
    36   17   18 1   
    37   17   46 1   
    38   17   47 1   
    39   18   48 1   
    40   18   49 1   
    41   18   50 1   
    42   19   51 1   
    43   20   21 ar  
    44   20   52 1   
    45   21   22 1   
    46   22   23 1   
    47   22   53 1   
    48   23   24 1   
    49   24   25 1   
    50   24   31 2   
    51   25   26 1   
    52   25   29 2   
    53   26   27 1   
    54   27   28 2   
    55   27   54 1   
    56   28   29 1   
    57   28   55 1   
    58   29   30 1   
    59   30   31 1   
    60   30   56 1   
@<TRIPOS>SUBSTRUCTURE
     1 0G1         1 TEMP              0 ****  ****    0 ROOT
