@<TRIPOS>MOLECULE
0G1
   56    60     1     0     0
SMALL
bcc


@<TRIPOS>ATOM
      1 CBE         0.4990    0.0910   -0.4960 c3        1 0G1      0.114700
      2 OBD         1.8930    0.2010   -0.2420 os        1 0G1     -0.329900
      3 CBA         2.2770    0.1380    1.0850 ca        1 0G1      0.122100
      4 CBB         3.6630    0.2380    1.3050 ca        1 0G1     -0.187000
      5 CBC         4.1500    0.1860    2.6040 ca        1 0G1     -0.075000
      6 CAZ         1.3950   -0.0140    2.1600 ca        1 0G1     -0.187000
      7 CAY         1.9010   -0.0630    3.4580 ca        1 0G1     -0.075000
      8 CAX         3.2760    0.0390    3.6950 ca        1 0G1     -0.054800
      9 CAG         3.8100   -0.0310    5.0370 cc        1 0G1     -0.041400
     10 CAH         4.7080   -1.0620    5.5200 ca        1 0G1     -0.091800
     11 CAA         5.2800   -2.2010    4.9480 ca        1 0G1     -0.080000
     12 CAB         6.1090   -2.9980    5.7180 ca        1 0G1     -0.159000
     13 CAC         6.3910   -2.6890    7.0690 ca        1 0G1     -0.058300
     14 CAJ         7.3080   -3.6080    7.8440 c3        1 0G1      0.202100
     15 CAK         6.6930   -5.0130    7.9620 c3        1 0G1     -0.103400
     16 CAO         5.4360   -5.0270    8.7920 c3        1 0G1     -0.095600
     17 CAM         8.6680   -3.6840    7.1250 c3        1 0G1     -0.103400
     18 CAN         9.7770   -4.2410    7.9770 c3        1 0G1     -0.095600
     19 OAL         7.4840   -3.0390    9.1450 oh        1 0G1     -0.598800
     20 CAD         5.8450   -1.5620    7.6700 ca        1 0G1     -0.118000
     21 CAI         5.0030   -0.7460    6.8970 ca        1 0G1     -0.040200
     22 NAE         4.3460    0.4400    7.2240 na        1 0G1     -0.184400
     23 CAF         3.6030    0.8590    6.1030 cd        1 0G1     -0.090900
     24 CAP         2.8300    2.0790    6.1510 cd        1 0G1      0.427100
     25 CAT         3.1930    3.2840    6.8640 cd        1 0G1     -0.246400
     26 SAS         4.3230    4.0230    7.8190 ss        1 0G1      0.065200
     27 CAW         3.4610    5.4710    7.9010 cd        1 0G1     -0.135100
     28 CAV         2.2770    5.4660    7.1970 cc        1 0G1     -0.139000
     29 CAU         2.1050    4.1940    6.5790 cc        1 0G1     -0.080300
     30 NAR         1.2020    3.5030    5.7800 na        1 0G1      0.002400
     31 NAQ         1.6320    2.2680    5.5130 nc        1 0G1     -0.469800
     32 H1         -0.0590    0.9300   -0.0130 h1        1 0G1      0.042700
     33 H2          0.4300    0.1630   -1.6110 h1        1 0G1      0.042700
     34 H3          0.1080   -0.8930   -0.1400 h1        1 0G1      0.042700
     35 H4          4.3400    0.3580    0.4470 ha        1 0G1      0.140000
     36 H5          5.2330    0.2620    2.7840 ha        1 0G1      0.142000
     37 H6          0.3110   -0.0960    1.9980 ha        1 0G1      0.140000
     38 H7          1.2080   -0.1850    4.3050 ha        1 0G1      0.142000
     39 H8          5.0680   -2.4510    3.8980 ha        1 0G1      0.140000
     40 H9          6.5620   -3.8950    5.2690 ha        1 0G1      0.128000
     41 H10         7.4520   -5.6990    8.4210 hc        1 0G1      0.049450
     42 H11         6.4730   -5.3940    6.9310 hc        1 0G1      0.049450
     43 H12         5.0420   -6.0680    8.8770 hc        1 0G1      0.037700
     44 H13         4.6520   -4.3830    8.3250 hc        1 0G1      0.037700
     45 H14         5.6410   -4.6350    9.8180 hc        1 0G1      0.037700
     46 H15         8.5450   -4.3140    6.2050 hc        1 0G1      0.049450
     47 H16         8.9480   -2.6490    6.7930 hc        1 0G1      0.049450
     48 H17         9.5180   -5.2520    8.3750 hc        1 0G1      0.037700
     49 H18         9.9900   -3.5640    8.8410 hc        1 0G1      0.037700
     50 H19        10.7110   -4.3330    7.3710 hc        1 0G1      0.037700
     51 H20         7.9410   -3.7040    9.6740 ho        1 0G1      0.403000
     52 H21         6.0680   -1.3170    8.7190 ha        1 0G1      0.156000
     53 H22         4.2680    0.8240    8.1270 hn        1 0G1      0.301700
     54 H23         3.8430    6.3200    8.4690 h4        1 0G1      0.173000
     55 H24         1.5740    6.2950    7.1160 ha        1 0G1      0.161000
     56 H25         0.3950    3.8640    5.3300 hn        1 0G1      0.329700
@<TRIPOS>BOND
     1    1    2 1   
     2    1   32 1   
     3    1   33 1   
     4    1   34 1   
     5    2    3 1   
     6    3    4 ar  
     7    3    6 ar  
     8    4    5 ar  
     9    4   35 1   
    10    5    8 ar  
    11    5   36 1   
    12    6    7 ar  
    13    6   37 1   
    14    7    8 ar  
    15    7   38 1   
    16    8    9 1   
    17    9   10 1   
    18    9   23 2   
    19   10   11 ar  
    20   10   21 ar  
    21   11   12 ar  
    22   11   39 1   
    23   12   13 ar  
    24   12   40 1   
    25   13   14 1   
    26   13   20 ar  
    27   14   15 1   
    28   14   17 1   
    29   14   19 1   
    30   15   16 1   
    31   15   41 1   
    32   15   42 1   
    33   16   43 1   
    34   16   44 1   
    35   16   45 1   
    36   17   18 1   
    37   17   46 1   
    38   17   47 1   
    39   18   48 1   
    40   18   49 1   
    41   18   50 1   
    42   19   51 1   
    43   20   21 ar  
    44   20   52 1   
    45   21   22 1   
    46   22   23 1   
    47   22   53 1   
    48   23   24 1   
    49   24   25 1   
    50   24   31 2   
    51   25   26 1   
    52   25   29 2   
    53   26   27 1   
    54   27   28 2   
    55   27   54 1   
    56   28   29 1   
    57   28   55 1   
    58   29   30 1   
    59   30   31 1   
    60   30   56 1   
@<TRIPOS>SUBSTRUCTURE
     1 0G1         1 TEMP              0 ****  ****    0 ROOT
