@<TRIPOS>MOLECULE
0G1
   56    60     1     0     0
SMALL
bcc


@<TRIPOS>ATOM
      1 CBE         0.5040    0.1080   -0.4970 c3        1 0G1      0.114700
      2 OBD         1.8980    0.2200   -0.2400 os        1 0G1     -0.329900
      3 CBA         2.2800    0.1520    1.0870 ca        1 0G1      0.122100
      4 CBB         3.6660    0.2540    1.3090 ca        1 0G1     -0.187000
      5 CBC         4.1510    0.1960    2.6080 ca        1 0G1     -0.075000
      6 CAZ         1.3970   -0.0060    2.1600 ca        1 0G1     -0.187000
      7 CAY         1.9010   -0.0600    3.4590 ca        1 0G1     -0.075000
      8 CAX         3.2760    0.0440    3.6980 ca        1 0G1     -0.054800
      9 CAG         3.8090   -0.0310    5.0410 cc        1 0G1     -0.041400
     10 CAH         4.7080   -1.0620    5.5200 ca        1 0G1     -0.091800
     11 CAA         5.2830   -2.1970    4.9440 ca        1 0G1     -0.080000
     12 CAB         6.1130   -2.9950    5.7120 ca        1 0G1     -0.159000
     13 CAC         6.3920   -2.6920    7.0650 ca        1 0G1     -0.058300
     14 CAJ         7.3110   -3.6110    7.8380 c3        1 0G1      0.202100
     15 CAK         6.6990   -5.0180    7.9480 c3        1 0G1     -0.103400
     16 CAO         5.4410   -5.0390    8.7760 c3        1 0G1     -0.095600
     17 CAM         8.6720   -3.6810    7.1200 c3        1 0G1     -0.103400
     18 CAN         9.7810   -4.2390    7.9720 c3        1 0G1     -0.095600
     19 OAL         7.4840   -3.0470    9.1410 oh        1 0G1     -0.598800
     20 CAD         5.8430   -1.5680    7.6700 ca        1 0G1     -0.118000
     21 CAI         5.0010   -0.7500    6.8990 ca        1 0G1     -0.040200
     22 NAE         4.3410    0.4320    7.2300 na        1 0G1     -0.184400
     23 CAF         3.5980    0.8540    6.1100 cd        1 0G1     -0.090900
     24 CAP         2.8220    2.0720    6.1620 cd        1 0G1      0.427100
     25 CAT         3.1860    3.2770    6.8730 cd        1 0G1     -0.246400
     26 SAS         4.3190    4.0190    7.8220 ss        1 0G1      0.065200
     27 CAW         3.4540    5.4660    7.9090 cd        1 0G1     -0.136100
     28 CAV         2.2660    5.4580    7.2100 cc        1 0G1     -0.139000
     29 CAU         2.0940    4.1850    6.5930 cc        1 0G1     -0.080300
     30 NAR         1.1900    3.4930    5.7990 na        1 0G1      0.002400
     31 NAQ         1.6210    2.2590    5.5290 nc        1 0G1     -0.469800
     32 H1          0.4370    0.1850   -1.6110 h1        1 0G1      0.042700
     33 H2         -0.0550    0.9440   -0.0100 h1        1 0G1      0.042700
     34 H3          0.1150   -0.8780   -0.1450 h1        1 0G1      0.042700
     35 H4          4.3440    0.3770    0.4530 ha        1 0G1      0.140000
     36 H5          5.2340    0.2730    2.7910 ha        1 0G1      0.142000
     37 H6          0.3140   -0.0890    1.9960 ha        1 0G1      0.140000
     38 H7          1.2070   -0.1870    4.3040 ha        1 0G1      0.142000
     39 H8          5.0740   -2.4430    3.8930 ha        1 0G1      0.140000
     40 H9          6.5690   -3.8890    5.2610 ha        1 0G1      0.128000
     41 H10         7.4590   -5.7050    8.4060 hc        1 0G1      0.049450
     42 H11         6.4820   -5.3950    6.9150 hc        1 0G1      0.049450
     43 H12         5.0500   -6.0810    8.8560 hc        1 0G1      0.037700
     44 H13         4.6560   -4.3950    8.3100 hc        1 0G1      0.037700
     45 H14         5.6430   -4.6510    9.8050 hc        1 0G1      0.037700
     46 H15         8.9500   -2.6440    6.7930 hc        1 0G1      0.049450
     47 H16         8.5520   -4.3070    6.1970 hc        1 0G1      0.049450
     48 H17         9.9910   -3.5660    8.8390 hc        1 0G1      0.037700
     49 H18         9.5240   -5.2520    8.3640 hc        1 0G1      0.037700
     50 H19        10.7160   -4.3260    7.3660 hc        1 0G1      0.037700
     51 H20         7.9410   -3.7130    9.6680 ho        1 0G1      0.403000
     52 H21         6.0640   -1.3270    8.7200 ha        1 0G1      0.156000
     53 H22         4.2600    0.8120    8.1350 hn        1 0G1      0.301700
     54 H23         3.8360    6.3150    8.4750 h4        1 0G1      0.173000
     55 H24         1.5610    6.2860    7.1320 ha        1 0G1      0.161000
     56 H25         0.3800    3.8520    5.3510 hn        1 0G1      0.329700
@<TRIPOS>BOND
     1    1    2 1   
     2    1   32 1   
     3    1   33 1   
     4    1   34 1   
     5    2    3 1   
     6    3    4 ar  
     7    3    6 ar  
     8    4    5 ar  
     9    4   35 1   
    10    5    8 ar  
    11    5   36 1   
    12    6    7 ar  
    13    6   37 1   
    14    7    8 ar  
    15    7   38 1   
    16    8    9 1   
    17    9   10 1   
    18    9   23 2   
    19   10   11 ar  
    20   10   21 ar  
    21   11   12 ar  
    22   11   39 1   
    23   12   13 ar  
    24   12   40 1   
    25   13   14 1   
    26   13   20 ar  
    27   14   15 1   
    28   14   17 1   
    29   14   19 1   
    30   15   16 1   
    31   15   41 1   
    32   15   42 1   
    33   16   43 1   
    34   16   44 1   
    35   16   45 1   
    36   17   18 1   
    37   17   46 1   
    38   17   47 1   
    39   18   48 1   
    40   18   49 1   
    41   18   50 1   
    42   19   51 1   
    43   20   21 ar  
    44   20   52 1   
    45   21   22 1   
    46   22   23 1   
    47   22   53 1   
    48   23   24 1   
    49   24   25 1   
    50   24   31 2   
    51   25   26 1   
    52   25   29 2   
    53   26   27 1   
    54   27   28 2   
    55   27   54 1   
    56   28   29 1   
    57   28   55 1   
    58   29   30 1   
    59   30   31 1   
    60   30   56 1   
@<TRIPOS>SUBSTRUCTURE
     1 0G1         1 TEMP              0 ****  ****    0 ROOT
