@<TRIPOS>MOLECULE
0G2
   52    42     1     0     0
SMALL
bcc


@<TRIPOS>ATOM
      1 CBB         4.0720   -5.9010    0.8340 c3        1 0G2     -0.207000
      2 CAY         2.8070   -5.0800    0.7120 c3        1 0G2     -0.162000
      3 CAS         2.9900   -4.0310   -0.3620 c3        1 0G2      0.120000
      4 CAZ         2.1630   -4.4020   -1.5760 c3        1 0G2     -0.162000
      5 CBC         2.9970   -5.2470   -2.5150 c3        1 0G2     -0.207000
      6 OBA         4.3480   -3.9600   -0.7230 oh        1 0G2     -0.315000
      7 CAH         2.5370   -2.6870    0.1640 c1        1 0G2     -0.081000
      8 CAI         1.2330   -2.3690   -0.1870 c1        1 0G2     -0.139000
      9 CAG         3.4850   -1.6820    0.2990 c1        1 0G2     -0.120833
     10 CAF         3.1280   -0.3590    0.0830 c1        1 0G2     -0.120833
     11 CAE         1.8080   -0.0370   -0.2720 c1        1 0G2     -0.042000
     12 CAB         1.2040    1.1600   -0.5840 c1        1 0G2     -0.144000
     13 CAD         0.8720   -1.0290   -0.4050 c1        1 0G2     -0.042000
     14 NAC        -0.3170   -0.4450   -0.8020 n1        1 0G2     -0.207000
     15 CAA        -0.1110    0.9010   -0.9110 c1        1 0G2      0.005000
     16 CAJ        -1.3320    1.6150   -1.4400 c1        1 0G2      0.013000
     17 NAK        -1.9280    1.4020   -2.6620 n2        1 0G2     -0.136000
     18 NAL        -3.0620    2.2190   -2.7420 n2        1 0G2     -0.037000
     19 CAN        -3.1570    2.9160   -1.5930 c2        1 0G2     -0.107000
     20 CAO        -4.0370    4.0100   -0.8100 c1        1 0G2     -0.098000
     21 CAM        -2.0720    2.5430   -0.7660 c2        1 0G2     -0.401000
     22 SAQ        -2.1820    3.3540    0.5700 ss        1 0G2      0.524000
     23 CAP        -3.4290    4.2460    0.4700 c1        1 0G2     -0.266000
     24 CAR        -3.9430    5.1810    1.5400 c1        1 0G2     -0.019000
     25 CAT        -4.8140    4.7100    2.5110 c1        1 0G2     -0.120833
     26 CAU        -5.3150    5.5760    3.4700 c1        1 0G2     -0.120833
     27 CAV        -4.9460    6.9120    3.4590 c1        1 0G2     -0.120833
     28 CAW        -4.0760    7.3820    2.4880 c1        1 0G2     -0.120833
     29 CAX        -3.5750    6.5170    1.5290 c1        1 0G2     -0.110000
     30 H1          4.5570   -5.8830   -0.0170 hc        1 0G2      0.078500
     31 H2          3.8400   -6.8260    1.0590 hc        1 0G2      0.078500
     32 H3          4.6380   -5.5250    1.5410 hc        1 0G2      0.078500
     33 H4          2.6180   -4.6430    1.5670 hc        1 0G2      0.084500
     34 H5          2.0610   -5.6650    0.4730 hc        1 0G2      0.084500
     35 H6          1.3770   -4.9100   -1.2920 hc        1 0G2      0.084500
     36 H7          1.8770   -3.5880   -2.0370 hc        1 0G2      0.084500
     37 H8          2.4840   -5.4370   -3.3280 hc        1 0G2      0.078500
     38 H9          3.2330   -6.0900   -2.0740 hc        1 0G2      0.078500
     39 H10         3.8150   -4.7630   -2.7510 hc        1 0G2      0.078500
     40 H11         4.4220   -3.5870   -1.5270 ho        1 0G2      0.200000
     41 H12         0.5590   -3.0720   -0.2430 ha        1 0G2      0.136000
     42 H13         4.4030   -1.9060    0.5400 ha        1 0G2      0.136667
     43 H14         3.7950    0.3480    0.1780 ha        1 0G2      0.136667
     44 H15         1.6300    2.0380   -0.5760 DU        1 0G2      0.210750
     45 H16        -1.1010   -0.8820   -0.9620 DU        1 0G2      0.210750
     46 H17        -1.6310    0.8330   -3.3110 DU        1 0G2      0.210750
     47 H18        -4.8460    4.4400   -1.1470 DU        1 0G2      0.210750
     48 H19        -5.0730    3.7700    2.5190 ha        1 0G2      0.136667
     49 H20        -5.9280    5.2450    4.1530 ha        1 0G2      0.136667
     50 H21        -5.2990    7.5210    4.1340 ha        1 0G2      0.136667
     51 H22        -3.8160    8.3230    2.4800 ha        1 0G2      0.136667
     52 H23        -2.9620    6.8480    0.8460 ha        1 0G2      0.137000
@<TRIPOS>BOND
     1    1    2 1   
     2    1   30 1   
     3    1   31 1   
     4    1   32 1   
     5    2    3 1   
     6    2   33 1   
     7    2   34 1   
     8    3    4 1   
     9    3    6 1   
    10    3    7 1   
    11    4    5 1   
    12    4   35 1   
    13    4   36 1   
    14    5   37 1   
    15    5   38 1   
    16    5   39 1   
    17    6   40 1   
    18    7    8 1   
    19    8   41 1   
    20    9   10 1   
    21    9   42 1   
    22   10   43 1   
    23   11   13 1   
    24   12   15 1   
    25   14   15 1   
    26   16   17 1   
    27   16   21 1   
    28   17   18 1   
    29   18   19 1   
    30   19   20 1   
    31   19   21 1   
    32   20   23 1   
    33   21   22 1   
    34   22   23 1   
    35   24   29 1   
    36   25   26 1   
    37   25   48 1   
    38   26   49 1   
    39   27   28 1   
    40   27   50 1   
    41   28   51 1   
    42   29   52 1   
@<TRIPOS>SUBSTRUCTURE
     1 0G2         1 TEMP              0 ****  ****    0 ROOT
