@<TRIPOS>MOLECULE
0G2
   52    56     1     0     0
SMALL
bcc


@<TRIPOS>ATOM
      1 CBB        -0.2200    0.1830    0.2720 c3        1 0G2     -0.096100
      2 CAY         1.2700    0.0500    0.0980 c3        1 0G2     -0.103900
      3 CAS         2.0200   -0.0040    1.4390 c3        1 0G2      0.201100
      4 CAZ         3.5410    0.0230    1.1970 c3        1 0G2     -0.103900
      5 CBC         4.0700    1.3790    0.8100 c3        1 0G2     -0.096100
      6 OBA         1.6440    1.1060    2.2580 oh        1 0G2     -0.598800
      7 CAH         1.6640   -1.2640    2.1960 ca        1 0G2     -0.056300
      8 CAI         1.0280   -1.1920    3.4290 ca        1 0G2     -0.114000
      9 CAG         2.0020   -2.5140    1.6250 ca        1 0G2     -0.153000
     10 CAF         1.7120   -3.7070    2.2620 ca        1 0G2     -0.084000
     11 CAE         1.0720   -3.6760    3.5050 ca        1 0G2     -0.095800
     12 CAB         0.6290   -4.6840    4.4320 cc        1 0G2     -0.173200
     13 CAD         0.7300   -2.3980    4.0870 ca        1 0G2     -0.038200
     14 NAC         0.1010   -2.6290    5.3100 na        1 0G2     -0.172400
     15 CAA         0.0480   -4.0170    5.5200 cd        1 0G2      0.008700
     16 CAJ        -0.5370   -4.5860    6.7020 cd        1 0G2     -0.015100
     17 NAK        -0.5090   -5.9650    6.9910 na        1 0G2      0.020400
     18 NAL        -1.1030   -6.2950    8.1320 nd        1 0G2     -0.468800
     19 CAN        -1.5570   -5.1250    8.6610 cc        1 0G2      0.290600
     20 CAO        -2.2710   -4.6860    9.8270 cc        1 0G2     -0.160300
     21 CAM        -1.2190   -3.9890    7.7760 cc        1 0G2     -0.213400
     22 SAQ        -1.7760   -2.5630    8.4140 ss        1 0G2     -0.043800
     23 CAP        -2.4490   -3.3260    9.8070 cd        1 0G2      0.011900
     24 CAR        -3.1170   -2.5310   10.8110 ca        1 0G2     -0.019000
     25 CAT        -3.7170   -1.3100   10.4640 ca        1 0G2     -0.116000
     26 CAU        -4.3600   -0.5420   11.4310 ca        1 0G2     -0.127500
     27 CAV        -4.4130   -0.9810   12.7540 ca        1 0G2     -0.124000
     28 CAW        -3.8190   -2.1920   13.1080 ca        1 0G2     -0.127500
     29 CAX        -3.1730   -2.9640   12.1450 ca        1 0G2     -0.116000
     30 H1         -0.4650    1.1010    0.8610 hc        1 0G2      0.038200
     31 H2         -0.7200    0.2530   -0.7240 hc        1 0G2      0.038200
     32 H3         -0.6310   -0.7000    0.8190 hc        1 0G2      0.038200
     33 H4          1.5040   -0.8800   -0.4810 hc        1 0G2      0.049450
     34 H5          1.6560    0.9220   -0.4940 hc        1 0G2      0.049450
     35 H6          4.0530   -0.3130    2.1370 hc        1 0G2      0.049450
     36 H7          3.7830   -0.7210    0.3940 hc        1 0G2      0.049450
     37 H8          3.5490    1.7780   -0.0930 hc        1 0G2      0.038200
     38 H9          5.1610    1.3080    0.5810 hc        1 0G2      0.038200
     39 H10         3.9380    2.1080    1.6470 hc        1 0G2      0.038200
     40 H11         1.7330    1.8940    1.7080 ho        1 0G2      0.404000
     41 H12         0.7690   -0.2210    3.8760 ha        1 0G2      0.159000
     42 H13         2.5090   -2.5340    0.6480 ha        1 0G2      0.130000
     43 H14         1.9800   -4.6710    1.8050 ha        1 0G2      0.134000
     44 H15         0.7270   -5.7570    4.3010 ha        1 0G2      0.151000
     45 H16        -0.2080   -1.9420    5.9450 hn        1 0G2      0.306700
     46 H17        -0.0930   -6.6650    6.4180 hn        1 0G2      0.327700
     47 H18        -2.6220   -5.3700   10.6030 ha        1 0G2      0.168000
     48 H19        -3.6820   -0.9640    9.4180 ha        1 0G2      0.137000
     49 H20        -4.8290    0.4120   11.1480 ha        1 0G2      0.134000
     50 H21        -4.9230   -0.3730   13.5160 ha        1 0G2      0.134000
     51 H22        -3.8570   -2.5400   14.1510 ha        1 0G2      0.134000
     52 H23        -2.6990   -3.9160   12.4290 ha        1 0G2      0.137000
@<TRIPOS>BOND
     1    1    2 1   
     2    1   30 1   
     3    1   31 1   
     4    1   32 1   
     5    2    3 1   
     6    2   33 1   
     7    2   34 1   
     8    3    4 1   
     9    3    6 1   
    10    3    7 1   
    11    4    5 1   
    12    4   35 1   
    13    4   36 1   
    14    5   37 1   
    15    5   38 1   
    16    5   39 1   
    17    6   40 1   
    18    7    8 ar  
    19    7    9 ar  
    20    8   13 ar  
    21    8   41 1   
    22    9   10 ar  
    23    9   42 1   
    24   10   11 ar  
    25   10   43 1   
    26   11   12 1   
    27   11   13 ar  
    28   12   15 2   
    29   12   44 1   
    30   13   14 1   
    31   14   15 1   
    32   14   45 1   
    33   15   16 1   
    34   16   17 1   
    35   16   21 2   
    36   17   18 1   
    37   17   46 1   
    38   18   19 2   
    39   19   20 1   
    40   19   21 1   
    41   20   23 2   
    42   20   47 1   
    43   21   22 1   
    44   22   23 1   
    45   23   24 1   
    46   24   25 ar  
    47   24   29 ar  
    48   25   26 ar  
    49   25   48 1   
    50   26   27 ar  
    51   26   49 1   
    52   27   28 ar  
    53   27   50 1   
    54   28   29 ar  
    55   28   51 1   
    56   29   52 1   
@<TRIPOS>SUBSTRUCTURE
     1 0G2         1 TEMP              0 ****  ****    0 ROOT
