@<TRIPOS>MOLECULE
0G2
   52    56     1     0     0
SMALL
bcc


@<TRIPOS>ATOM
      1 CBB        -0.2190    0.1670    0.2640 c3        1 0G2     -0.096100
      2 CAY         1.2720    0.0410    0.0940 c3        1 0G2     -0.103900
      3 CAS         2.0190   -0.0060    1.4380 c3        1 0G2      0.201100
      4 CAZ         3.5400    0.0280    1.1990 c3        1 0G2     -0.103900
      5 CBC         4.0640    1.3850    0.8100 c3        1 0G2     -0.096100
      6 OBA         1.6350    1.1050    2.2520 oh        1 0G2     -0.598800
      7 CAH         1.6660   -1.2650    2.1980 ca        1 0G2     -0.056300
      8 CAI         1.0270   -1.1930    3.4280 ca        1 0G2     -0.114000
      9 CAG         2.0110   -2.5160    1.6310 ca        1 0G2     -0.153000
     10 CAF         1.7260   -3.7080    2.2710 ca        1 0G2     -0.084000
     11 CAE         1.0830   -3.6760    3.5110 ca        1 0G2     -0.095800
     12 CAB         0.6420   -4.6840    4.4410 cc        1 0G2     -0.173200
     13 CAD         0.7330   -2.3980    4.0890 ca        1 0G2     -0.038200
     14 NAC         0.1020   -2.6280    5.3110 na        1 0G2     -0.172400
     15 CAA         0.0550   -4.0160    5.5250 cd        1 0G2      0.008700
     16 CAJ        -0.5310   -4.5850    6.7080 cd        1 0G2     -0.015100
     17 NAK        -0.5000   -5.9630    6.9990 na        1 0G2      0.020400
     18 NAL        -1.0950   -6.2920    8.1400 nd        1 0G2     -0.468800
     19 CAN        -1.5530   -5.1220    8.6650 cc        1 0G2      0.290600
     20 CAO        -2.2700   -4.6830    9.8290 cc        1 0G2     -0.160300
     21 CAM        -1.2160   -3.9870    7.7790 cc        1 0G2     -0.213400
     22 SAQ        -1.7780   -2.5610    8.4130 ss        1 0G2     -0.043800
     23 CAP        -2.4510   -3.3230    9.8070 cd        1 0G2      0.011900
     24 CAR        -3.1220   -2.5280   10.8090 ca        1 0G2     -0.019000
     25 CAT        -3.7260   -1.3090   10.4570 ca        1 0G2     -0.116000
     26 CAU        -4.3720   -0.5410   11.4220 ca        1 0G2     -0.127500
     27 CAV        -4.4250   -0.9770   12.7460 ca        1 0G2     -0.124000
     28 CAW        -3.8280   -2.1850   13.1030 ca        1 0G2     -0.127500
     29 CAX        -3.1790   -2.9580   12.1430 ca        1 0G2     -0.116000
     30 H1         -0.4700    1.0860    0.8490 hc        1 0G2      0.038200
     31 H2         -0.7170    0.2310   -0.7330 hc        1 0G2      0.038200
     32 H3         -0.6270   -0.7160    0.8130 hc        1 0G2      0.038200
     33 H4          1.5120   -0.8910   -0.4810 hc        1 0G2      0.049450
     34 H5          1.6560    0.9120   -0.4990 hc        1 0G2      0.049450
     35 H6          4.0510   -0.3030    2.1420 hc        1 0G2      0.049450
     36 H7          3.7880   -0.7170    0.3990 hc        1 0G2      0.049450
     37 H8          3.5430    1.7790   -0.0950 hc        1 0G2      0.038200
     38 H9          5.1560    1.3180    0.5840 hc        1 0G2      0.038200
     39 H10         3.9260    2.1160    1.6450 hc        1 0G2      0.038200
     40 H11         1.7220    1.8910    1.7000 ho        1 0G2      0.404000
     41 H12         0.7620   -0.2220    3.8720 ha        1 0G2      0.159000
     42 H13         2.5210   -2.5360    0.6560 ha        1 0G2      0.130000
     43 H14         1.9990   -4.6720    1.8180 ha        1 0G2      0.134000
     44 H15         0.7450   -5.7560    4.3130 ha        1 0G2      0.151000
     45 H16        -0.2130   -1.9410    5.9430 hn        1 0G2      0.306700
     46 H17        -0.0820   -6.6620    6.4280 hn        1 0G2      0.327700
     47 H18        -2.6200   -5.3660   10.6070 ha        1 0G2      0.168000
     48 H19        -3.6910   -0.9650    9.4120 ha        1 0G2      0.137000
     49 H20        -4.8430    0.4110   11.1370 ha        1 0G2      0.134000
     50 H21        -4.9370   -0.3690   13.5060 ha        1 0G2      0.134000
     51 H22        -3.8670   -2.5310   14.1470 ha        1 0G2      0.134000
     52 H23        -2.7030   -3.9080   12.4300 ha        1 0G2      0.137000
@<TRIPOS>BOND
     1    1    2 1   
     2    1   30 1   
     3    1   31 1   
     4    1   32 1   
     5    2    3 1   
     6    2   33 1   
     7    2   34 1   
     8    3    4 1   
     9    3    6 1   
    10    3    7 1   
    11    4    5 1   
    12    4   35 1   
    13    4   36 1   
    14    5   37 1   
    15    5   38 1   
    16    5   39 1   
    17    6   40 1   
    18    7    8 ar  
    19    7    9 ar  
    20    8   13 ar  
    21    8   41 1   
    22    9   10 ar  
    23    9   42 1   
    24   10   11 ar  
    25   10   43 1   
    26   11   12 1   
    27   11   13 ar  
    28   12   15 2   
    29   12   44 1   
    30   13   14 1   
    31   14   15 1   
    32   14   45 1   
    33   15   16 1   
    34   16   17 1   
    35   16   21 2   
    36   17   18 1   
    37   17   46 1   
    38   18   19 2   
    39   19   20 1   
    40   19   21 1   
    41   20   23 2   
    42   20   47 1   
    43   21   22 1   
    44   22   23 1   
    45   23   24 1   
    46   24   25 ar  
    47   24   29 ar  
    48   25   26 ar  
    49   25   48 1   
    50   26   27 ar  
    51   26   49 1   
    52   27   28 ar  
    53   27   50 1   
    54   28   29 ar  
    55   28   51 1   
    56   29   52 1   
@<TRIPOS>SUBSTRUCTURE
     1 0G2         1 TEMP              0 ****  ****    0 ROOT
