@<TRIPOS>MOLECULE
0G2
   52    56     1     0     0
SMALL
bcc


@<TRIPOS>ATOM
      1 CBB         5.4830    1.8130   -2.1930 c3        1 0G2     -0.092600
      2 CAY         6.3600    1.3600   -1.0560 c3        1 0G2     -0.083400
      3 CAS         5.5890    1.1940    0.2630 c3        1 0G2      0.198100
      4 CAZ         6.5450    0.8000    1.4040 c3        1 0G2     -0.083400
      5 CBC         7.5110    1.8950    1.7720 c3        1 0G2     -0.092600
      6 OBA         5.0090    2.4700    0.5390 oh        1 0G2     -0.592800
      7 CAH         4.5180    0.1330    0.1250 ca        1 0G2     -0.086300
      8 CAI         3.1750    0.4850    0.1610 ca        1 0G2     -0.136000
      9 CAG         4.9050   -1.2170   -0.0460 ca        1 0G2     -0.149000
     10 CAF         3.9750   -2.2340   -0.1690 ca        1 0G2     -0.081000
     11 CAE         2.6150   -1.9190   -0.1260 ca        1 0G2     -0.095800
     12 CAB         1.4010   -2.6870   -0.2180 cc        1 0G2     -0.173200
     13 CAD         2.2190   -0.5370    0.0380 ca        1 0G2     -0.033200
     14 NAC         0.8260   -0.4800    0.0460 na        1 0G2     -0.174400
     15 CAA         0.3320   -1.7860   -0.1140 cd        1 0G2      0.010700
     16 CAJ        -1.0770   -2.0670   -0.1510 cd        1 0G2     -0.016100
     17 NAK        -1.6020   -3.3720   -0.2370 na        1 0G2      0.020400
     18 NAL        -2.9290   -3.4230   -0.2580 nd        1 0G2     -0.467800
     19 CAN        -3.3480   -2.1300   -0.1840 cc        1 0G2      0.290600
     20 CAO        -4.5900   -1.4100   -0.1590 cc        1 0G2     -0.159300
     21 CAM        -2.1900   -1.2120   -0.1130 cc        1 0G2     -0.212400
     22 SAQ        -2.6970    0.3650   -0.0260 ss        1 0G2     -0.045800
     23 CAP        -4.3690   -0.0590   -0.0750 cd        1 0G2      0.013900
     24 CAR        -5.3760    0.9770   -0.0230 ca        1 0G2     -0.020000
     25 CAT        -5.0860    2.2700   -0.4890 ca        1 0G2     -0.116000
     26 CAU        -6.0540    3.2680   -0.4390 ca        1 0G2     -0.127500
     27 CAV        -7.3220    2.9920    0.0750 ca        1 0G2     -0.123000
     28 CAW        -7.6170    1.7110    0.5400 ca        1 0G2     -0.127500
     29 CAX        -6.6520    0.7070    0.4930 ca        1 0G2     -0.116000
     30 H1          6.0900    1.9280   -3.1230 hc        1 0G2      0.039533
     31 H2          4.6710    1.0700   -2.3850 hc        1 0G2      0.039533
     32 H3          5.0090    2.7950   -1.9480 hc        1 0G2      0.039533
     33 H4          6.8370    0.3760   -1.3020 hc        1 0G2      0.047450
     34 H5          7.1740    2.1140   -0.8910 hc        1 0G2      0.047450
     35 H6          5.9280    0.5310    2.3020 hc        1 0G2      0.047450
     36 H7          7.1130   -0.1160    1.0990 hc        1 0G2      0.047450
     37 H8          6.9740    2.8640    1.9210 hc        1 0G2      0.039533
     38 H9          8.0430    1.6320    2.7190 hc        1 0G2      0.039533
     39 H10         8.2750    2.0410    0.9700 hc        1 0G2      0.039533
     40 H11         4.6420    2.4220    1.4300 ho        1 0G2      0.400000
     41 H12         2.8660    1.5350    0.2630 ha        1 0G2      0.147000
     42 H13         5.9780   -1.4610   -0.0900 ha        1 0G2      0.132000
     43 H14         4.2940   -3.2780   -0.3010 ha        1 0G2      0.136000
     44 H15         1.3380   -3.7630   -0.3480 ha        1 0G2      0.152000
     45 H16         0.2750    0.3340    0.1210 hn        1 0G2      0.306700
     46 H17        -1.0640   -4.2070   -0.2820 hn        1 0G2      0.328700
     47 H18        -5.5650   -1.9010   -0.2110 ha        1 0G2      0.169000
     48 H19        -4.0880    2.4900   -0.9010 ha        1 0G2      0.136500
     49 H20        -5.8190    4.2770   -0.8080 ha        1 0G2      0.134500
     50 H21        -8.0860    3.7820    0.1120 ha        1 0G2      0.134000
     51 H22        -8.6150    1.4890    0.9460 ha        1 0G2      0.134500
     52 H23        -6.8870   -0.3010    0.8670 ha        1 0G2      0.136500
@<TRIPOS>BOND
     1    1    2 1   
     2    1   30 1   
     3    1   31 1   
     4    1   32 1   
     5    2    3 1   
     6    2   33 1   
     7    2   34 1   
     8    3    4 1   
     9    3    6 1   
    10    3    7 1   
    11    4    5 1   
    12    4   35 1   
    13    4   36 1   
    14    5   37 1   
    15    5   38 1   
    16    5   39 1   
    17    6   40 1   
    18    7    8 ar  
    19    7    9 ar  
    20    8   13 ar  
    21    8   41 1   
    22    9   10 ar  
    23    9   42 1   
    24   10   11 ar  
    25   10   43 1   
    26   11   12 1   
    27   11   13 ar  
    28   12   15 2   
    29   12   44 1   
    30   13   14 1   
    31   14   15 1   
    32   14   45 1   
    33   15   16 1   
    34   16   17 1   
    35   16   21 2   
    36   17   18 1   
    37   17   46 1   
    38   18   19 2   
    39   19   20 1   
    40   19   21 1   
    41   20   23 2   
    42   20   47 1   
    43   21   22 1   
    44   22   23 1   
    45   23   24 1   
    46   24   25 ar  
    47   24   29 ar  
    48   25   26 ar  
    49   25   48 1   
    50   26   27 ar  
    51   26   49 1   
    52   27   28 ar  
    53   27   50 1   
    54   28   29 ar  
    55   28   51 1   
    56   29   52 1   
@<TRIPOS>SUBSTRUCTURE
     1 0G2         1 TEMP              0 ****  ****    0 ROOT
