@<TRIPOS>MOLECULE
0G2
   52    56     1     0     0
SMALL
bcc


@<TRIPOS>ATOM
      1 CBB        -0.2200    0.1800    0.2740 c3        1 0G2     -0.096100
      2 CAY         1.2690    0.0440    0.0970 c3        1 0G2     -0.103900
      3 CAS         2.0220   -0.0100    1.4370 c3        1 0G2      0.201100
      4 CAZ         3.5420    0.0160    1.1910 c3        1 0G2     -0.103900
      5 CBC         4.0720    1.3710    0.8030 c3        1 0G2     -0.096100
      6 OBA         1.6480    1.1020    2.2550 oh        1 0G2     -0.598800
      7 CAH         1.6660   -1.2680    2.1960 ca        1 0G2     -0.056300
      8 CAI         1.0320   -1.1940    3.4290 ca        1 0G2     -0.114000
      9 CAG         2.0020   -2.5200    1.6260 ca        1 0G2     -0.153000
     10 CAF         1.7130   -3.7120    2.2650 ca        1 0G2     -0.084000
     11 CAE         1.0740   -3.6790    3.5080 ca        1 0G2     -0.095800
     12 CAB         0.6320   -4.6850    4.4380 cc        1 0G2     -0.173200
     13 CAD         0.7340   -2.3990    4.0890 ca        1 0G2     -0.038200
     14 NAC         0.1060   -2.6280    5.3130 na        1 0G2     -0.172400
     15 CAA         0.0530   -4.0160    5.5260 cd        1 0G2      0.007700
     16 CAJ        -0.5310   -4.5830    6.7100 cd        1 0G2     -0.015100
     17 NAK        -0.4990   -5.9610    7.0030 na        1 0G2      0.020400
     18 NAL        -1.0920   -6.2890    8.1450 nd        1 0G2     -0.468800
     19 CAN        -1.5510   -5.1190    8.6690 cc        1 0G2      0.290600
     20 CAO        -2.2670   -4.6780    9.8330 cc        1 0G2     -0.160300
     21 CAM        -1.2160   -3.9850    7.7800 cc        1 0G2     -0.213400
     22 SAQ        -1.7790   -2.5580    8.4130 ss        1 0G2     -0.043800
     23 CAP        -2.4500   -3.3190    9.8090 cd        1 0G2      0.011900
     24 CAR        -3.1210   -2.5230   10.8100 ca        1 0G2     -0.019000
     25 CAT        -3.7280   -1.3060   10.4570 ca        1 0G2     -0.116000
     26 CAU        -4.3740   -0.5380   11.4210 ca        1 0G2     -0.127500
     27 CAV        -4.4250   -0.9710   12.7460 ca        1 0G2     -0.124000
     28 CAW        -3.8250   -2.1780   13.1050 ca        1 0G2     -0.127500
     29 CAX        -3.1750   -2.9510   12.1450 ca        1 0G2     -0.116000
     30 H1         -0.4620    1.0990    0.8610 hc        1 0G2      0.038200
     31 H2         -0.6310   -0.7020    0.8240 hc        1 0G2      0.038200
     32 H3         -0.7230    0.2470   -0.7210 hc        1 0G2      0.038200
     33 H4          1.5010   -0.8880   -0.4810 hc        1 0G2      0.049450
     34 H5          1.6550    0.9140   -0.4970 hc        1 0G2      0.049450
     35 H6          4.0560   -0.3200    2.1310 hc        1 0G2      0.049450
     36 H7          3.7820   -0.7290    0.3880 hc        1 0G2      0.049450
     37 H8          3.9430    2.1010    1.6390 hc        1 0G2      0.038200
     38 H9          3.5490    1.7700   -0.0990 hc        1 0G2      0.038200
     39 H10         5.1630    1.2980    0.5700 hc        1 0G2      0.038200
     40 H11         1.7370    1.8890    1.7040 ho        1 0G2      0.404000
     41 H12         0.7740   -0.2230    3.8760 ha        1 0G2      0.159000
     42 H13         2.5070   -2.5410    0.6490 ha        1 0G2      0.130000
     43 H14         1.9790   -4.6760    1.8090 ha        1 0G2      0.134000
     44 H15         0.7290   -5.7580    4.3080 ha        1 0G2      0.151000
     45 H16        -0.2010   -1.9400    5.9490 hn        1 0G2      0.306700
     46 H17        -0.0800   -6.6610    6.4320 hn        1 0G2      0.327700
     47 H18        -2.6160   -5.3610   10.6110 ha        1 0G2      0.168000
     48 H19        -3.6940   -0.9640    9.4100 ha        1 0G2      0.137000
     49 H20        -4.8480    0.4130   11.1350 ha        1 0G2      0.134000
     50 H21        -4.9370   -0.3630   13.5060 ha        1 0G2      0.134000
     51 H22        -3.8620   -2.5220   14.1490 ha        1 0G2      0.134000
     52 H23        -2.6970   -3.9000   12.4330 ha        1 0G2      0.137000
@<TRIPOS>BOND
     1    1    2 1   
     2    1   30 1   
     3    1   31 1   
     4    1   32 1   
     5    2    3 1   
     6    2   33 1   
     7    2   34 1   
     8    3    4 1   
     9    3    6 1   
    10    3    7 1   
    11    4    5 1   
    12    4   35 1   
    13    4   36 1   
    14    5   37 1   
    15    5   38 1   
    16    5   39 1   
    17    6   40 1   
    18    7    8 ar  
    19    7    9 ar  
    20    8   13 ar  
    21    8   41 1   
    22    9   10 ar  
    23    9   42 1   
    24   10   11 ar  
    25   10   43 1   
    26   11   12 1   
    27   11   13 ar  
    28   12   15 2   
    29   12   44 1   
    30   13   14 1   
    31   14   15 1   
    32   14   45 1   
    33   15   16 1   
    34   16   17 1   
    35   16   21 2   
    36   17   18 1   
    37   17   46 1   
    38   18   19 2   
    39   19   20 1   
    40   19   21 1   
    41   20   23 2   
    42   20   47 1   
    43   21   22 1   
    44   22   23 1   
    45   23   24 1   
    46   24   25 ar  
    47   24   29 ar  
    48   25   26 ar  
    49   25   48 1   
    50   26   27 ar  
    51   26   49 1   
    52   27   28 ar  
    53   27   50 1   
    54   28   29 ar  
    55   28   51 1   
    56   29   52 1   
@<TRIPOS>SUBSTRUCTURE
     1 0G2         1 TEMP              0 ****  ****    0 ROOT
