@<TRIPOS>MOLECULE
0G4
   40    41     1     0     0
SMALL
bcc


@<TRIPOS>ATOM
      1 F5          0.0000    0.0000    0.0000 f         1 0G4     -0.167500
      2 C5          1.3510    0.0000    0.0000 cc        1 0G4     -0.062100
      3 C4          2.0680    0.0000    1.2160 cc        1 0G4     -0.038500
      4 N4          1.3940   -0.0000    2.4160 nz        1 0G4      0.306400
      5 N3          3.3940    0.0010    1.1960 nd        1 0G4     -0.707100
      6 C2          4.0570    0.0000    0.0400 c         1 0G4      0.727900
      7 O2          5.2770    0.0000    0.0490 o         1 0G4     -0.763500
      8 C6          2.0400   -0.0050   -1.1670 cd        1 0G4     -0.145400
      9 N1          3.4040   -0.0010   -1.1360 n         1 0G4      0.056000
     10 C1'         4.1620   -0.0050   -2.3900 c3        1 0G4      0.225500
     11 O4'         3.2520   -0.0150   -3.4990 os        1 0G4     -0.385600
     12 C2'         5.0490    1.2620   -2.4620 c3        1 0G4      0.051700
     13 S3'         5.0880    1.6060   -4.2660 ss        1 0G4     -0.423200
     14 C4'         3.9710    0.2220   -4.7340 c3        1 0G4      0.303200
     15 C5'         3.0160    0.6460   -5.8510 c3        1 0G4      0.322400
     16 O5'         2.3440    1.8490   -5.4720 os        1 0G4     -0.491200
     17 PA          1.2610    2.5820   -6.4120 p5        1 0G4      0.966800
     18 O1A        -0.0240    1.6290   -6.5940 o         1 0G4     -0.656500
     19 O2A         1.8630    2.8560   -7.7360 o         1 0G4     -0.656500
     20 O3A         0.8100    3.9690   -5.7300 os        1 0G4     -0.520800
     21 PB          0.0310    5.2750   -6.2600 p5        1 0G4      0.798700
     22 O2B        -1.4340    4.8510   -6.7780 o         1 0G4     -0.501500
     23 O1B         0.7910    5.8840   -7.3730 o         1 0G4     -0.501500
     24 N3B        -0.1170    6.3870   -5.0050 ny        1 0G4     -0.214200
     25 PG         -0.9290    7.7700   -5.5180 p5        1 0G4      0.628800
     26 O3G        -1.0490    8.8060   -4.2930 o         1 0G4     -0.497833
     27 O1G        -2.4020    7.3690   -6.0310 o         1 0G4     -0.497833
     28 O2C        -0.1760    8.4000   -6.6260 o         1 0G4     -0.497833
     29 H1          0.8210    0.8180    2.4770 hn        1 0G4      0.145133
     30 H2          0.8180   -0.8160    2.4750 hn        1 0G4      0.145133
     31 H3          1.5200   -0.1760   -2.1020 h4        1 0G4      0.173000
     32 H4          4.7900   -0.8870   -2.4330 h2        1 0G4      0.023700
     33 H5          6.0450    1.0550   -2.0890 h1        1 0G4      0.061700
     34 H6          4.5910    2.0830   -1.9250 h1        1 0G4      0.061700
     35 H7          4.5440   -0.6520   -5.0180 h2        1 0G4      0.012700
     36 H8          2.2870   -0.1370   -6.0190 h1        1 0G4     -0.004300
     37 H9          3.5780    0.8180   -6.7610 h1        1 0G4     -0.004300
     38 H12         0.7950    6.6420   -4.6830 hn        1 0G4      0.291800
     39 H43         2.0540   -0.0020    3.1690 hn        1 0G4      0.145133
     40 H3B2       -0.6270    5.9680   -4.2530 hn        1 0G4      0.291800
@<TRIPOS>BOND
     1    1    2 1   
     2    2    3 1   
     3    2    8 2   
     4    3    4 1   
     5    3    5 2   
     6    4   29 1   
     7    4   30 1   
     8    4   39 1   
     9    5    6 1   
    10    6    7 2   
    11    6    9 1   
    12    8    9 1   
    13    8   31 1   
    14    9   10 1   
    15   10   11 1   
    16   10   12 1   
    17   10   32 1   
    18   11   14 1   
    19   12   13 1   
    20   12   33 1   
    21   12   34 1   
    22   13   14 1   
    23   14   15 1   
    24   14   35 1   
    25   15   16 1   
    26   15   36 1   
    27   15   37 1   
    28   16   17 1   
    29   17   18 1   
    30   17   19 1   
    31   17   20 1   
    32   20   21 1   
    33   21   22 1   
    34   21   23 1   
    35   21   24 1   
    36   24   25 1   
    37   24   38 1   
    38   24   40 1   
    39   25   26 1   
    40   25   27 1   
    41   25   28 1   
@<TRIPOS>SUBSTRUCTURE
     1 0G4         1 TEMP              0 ****  ****    0 ROOT
