@<TRIPOS>MOLECULE
0G5
   32    27     1     0     0
SMALL
bcc


@<TRIPOS>ATOM
      1 N2         -3.6440   -2.6990   -2.0740 n3        1 0G5     -0.327000
      2 N4          0.5370    0.2100    0.4120 n3        1 0G5     -0.361000
      3 C11        -2.2850   -2.4880   -2.5870 c3        1 0G5     -0.131000
      4 C12        -1.9630   -3.5410   -3.5400 c2        1 0G5      0.308000
      5 C13        -1.3070   -2.5210   -1.4330 c3        1 0G5     -0.142000
      6 C14        -0.7960   -1.0910   -1.1580 c3        1 0G5     -0.173000
      7 C15         0.1340   -1.1070    0.1020 c3        1 0G5     -0.038000
      8 C16         1.3520    0.4450    1.5330 c1        1 0G5      0.334000
      9 C17         1.7140    1.8830    1.9260 c1        1 0G5     -0.193500
     10 C18         1.0950    2.9850    1.2580 c1        1 0G5     -0.069500
     11 C19         1.4130    4.2840    1.6200 c1        1 0G5     -0.116500
     12 C20         2.3530    4.5190    2.6540 c1        1 0G5     -0.116500
     13 C21         2.9700    3.4150    3.3210 c1        1 0G5     -0.193500
     14 C22         2.6460    2.1140    2.9520 c1        1 0G5     -0.069500
     15 O5         -2.1640   -4.7400   -3.2350 o         1 0G5     -0.576500
     16 O6          1.8960   -0.5190    2.1220 o         1 0G5     -0.372000
     17 I           4.2900    3.7540    4.8990 i         1 0G5      0.134000
     18 H2         -4.0420   -1.9170   -1.9550 hn        1 0G5      0.127000
     19 H5          0.3520    0.8760   -0.1530 hn        1 0G5      0.219000
     20 H13        -2.2330   -1.5940   -3.0430 h1        1 0G5      0.078000
     21 H14        -0.5520   -3.1030   -1.6590 hc        1 0G5      0.091000
     22 H15        -1.7490   -2.8580   -0.6500 hc        1 0G5      0.091000
     23 H16        -0.3110   -0.7810   -1.8980 hc        1 0G5      0.079500
     24 H17        -1.5290   -0.5210   -1.0030 hc        1 0G5      0.079500
     25 H18        -0.3590   -1.4940    0.8750 h1        1 0G5      0.098500
     26 H19         0.9400   -1.6670   -0.0920 h1        1 0G5      0.098500
     27 H20         0.4640    2.8250    0.5610 ha        1 0G5      0.156000
     28 H21         0.8690    5.0390    1.2640 ha        1 0G5      0.138000
     29 H22         2.5850    5.4650    2.9190 ha        1 0G5      0.138000
     30 H23         3.1050    1.2970    3.4390 ha        1 0G5      0.156000
     31 OXT        -1.6370   -3.2500   -4.6820 o         1 0G5     -0.576500
     32 H1         -4.1430   -3.2200   -2.6960 hn        1 0G5      0.127000
@<TRIPOS>BOND
     1    1    3 1   
     2    1   18 1   
     3    1   32 1   
     4    2    7 1   
     5    2    8 1   
     6    2   19 1   
     7    3    4 1   
     8    3    5 1   
     9    3   20 1   
    10    4   15 1   
    11    4   31 1   
    12    5    6 1   
    13    5   21 1   
    14    5   22 1   
    15    6    7 1   
    16    6   23 1   
    17    6   24 1   
    18    7   25 1   
    19    7   26 1   
    20    8   16 1   
    21    9   10 1   
    22   10   27 1   
    23   11   12 1   
    24   11   28 1   
    25   12   29 1   
    26   13   14 1   
    27   14   30 1   
@<TRIPOS>SUBSTRUCTURE
     1 0G5         1 TEMP              0 ****  ****    0 ROOT
