@<TRIPOS>MOLECULE
0G5
   32    32     1     0     0
SMALL
bcc


@<TRIPOS>ATOM
      1 N2         -5.2850    1.8840    1.1950 n3        1 0G5     -0.893800
      2 N4         -1.1230   -1.3390   -0.2000 n         1 0G5     -0.554900
      3 C11        -5.4970    1.0670    0.0060 c3        1 0G5      0.016500
      4 C12        -7.0000    0.7790   -0.3230 c         1 0G5      0.888600
      5 C13        -4.7530   -0.2680    0.0500 c3        1 0G5     -0.063400
      6 C14        -3.2510   -0.0800    0.0140 c3        1 0G5     -0.092400
      7 C15        -2.5540   -1.4390   -0.0460 c3        1 0G5      0.081000
      8 C16        -0.2480   -2.2300    0.3650 c         1 0G5      0.660700
      9 C17         1.2150   -1.9690    0.1740 ca        1 0G5     -0.133600
     10 C18         2.0480   -3.0580   -0.1060 ca        1 0G5     -0.066000
     11 C19         3.4160   -2.8590   -0.2780 ca        1 0G5     -0.146000
     12 C20         3.9580   -1.5790   -0.1620 ca        1 0G5     -0.089000
     13 C21         3.1300   -0.4950    0.1310 ca        1 0G5      0.013900
     14 C22         1.7580   -0.6870    0.2990 ca        1 0G5     -0.073000
     15 O5         -7.8810    1.3020    0.4170 o         1 0G5     -0.841800
     16 O6         -0.6320   -3.2470    0.9830 o         1 0G5     -0.615100
     17 I           3.9200    1.3570    0.3120 i         1 0G5     -0.148900
     18 H2         -5.9740    2.6190    1.1750 hn        1 0G5      0.331800
     19 H5         -0.7690   -0.5300   -0.6530 hn        1 0G5      0.308500
     20 H13        -5.0960    1.6650   -0.8650 h1        1 0G5      0.039700
     21 H14        -5.0400   -0.8430    0.9690 hc        1 0G5      0.051700
     22 H15        -5.0910   -0.8630   -0.8410 hc        1 0G5      0.051700
     23 H16        -2.9780    0.5350   -0.8840 hc        1 0G5      0.041200
     24 H17        -2.9140    0.4840    0.9220 hc        1 0G5      0.041200
     25 H18        -2.9630   -2.0250   -0.9200 h1        1 0G5      0.056200
     26 H19        -2.7810   -2.0240    0.8900 h1        1 0G5      0.056200
     27 H20         1.6090   -4.0670   -0.1760 ha        1 0G5      0.158000
     28 H21         4.0720   -3.7130   -0.5020 ha        1 0G5      0.136000
     29 H22         5.0400   -1.4330   -0.3000 ha        1 0G5      0.139000
     30 H23         1.1050    0.1670    0.5450 ha        1 0G5      0.153000
     31 OXT        -7.2460    0.0560   -1.3290 o         1 0G5     -0.841800
     32 H1         -5.4950    1.3270    2.0050 hn        1 0G5      0.331800
@<TRIPOS>BOND
     1    1    3 1   
     2    1   18 1   
     3    1   32 1   
     4    2    7 1   
     5    2    8 1   
     6    2   19 1   
     7    3    4 1   
     8    3    5 1   
     9    3   20 1   
    10    4   15 1   
    11    4   31 1   
    12    5    6 1   
    13    5   21 1   
    14    5   22 1   
    15    6    7 1   
    16    6   23 1   
    17    6   24 1   
    18    7   25 1   
    19    7   26 1   
    20    8    9 1   
    21    8   16 2   
    22    9   10 ar  
    23    9   14 ar  
    24   10   11 ar  
    25   10   27 1   
    26   11   12 ar  
    27   11   28 1   
    28   12   13 ar  
    29   12   29 1   
    30   13   14 ar  
    31   13   17 1   
    32   14   30 1   
@<TRIPOS>SUBSTRUCTURE
     1 0G5         1 TEMP              0 ****  ****    0 ROOT
