@<TRIPOS>MOLECULE
0G6
   65    63     1     0     0
SMALL
bcc


@<TRIPOS>ATOM
      1 N          -1.6250   -0.3100   -4.1130 n3        1 0G6     -0.320000
      2 CA         -0.3940   -0.9300   -4.1680 c3        1 0G6     -0.020000
      3 C           0.2080   -0.9980   -2.7470 c2        1 0G6      0.298000
      4 O          -0.3320   -1.6770   -1.8820 o         1 0G6     -0.511000
      5 CB         -0.5550   -2.3500   -4.7250 c3        1 0G6     -0.108000
      6 CG         -1.5360   -2.3270   -5.9530 c2        1 0G6     -0.094000
      7 CD1        -2.8980   -2.5940   -5.7630 c1        1 0G6     -0.104000
      8 CD2        -1.0730   -1.9190   -7.2050 c2        1 0G6     -0.130000
      9 CE1        -3.7800   -2.4540   -6.8120 c1        1 0G6     -0.121000
     10 CE2        -1.9620   -1.7780   -8.2570 c1        1 0G6     -0.126000
     11 CZ         -3.3190   -2.0460   -8.0640 c1        1 0G6     -0.121000
     12 N1          1.3780   -0.2470   -2.4340 n         1 0G6     -0.293000
     13 CA1         2.1150   -0.1770   -1.0260 c3        1 0G6      0.012000
     14 C1          1.2580    0.6140   -0.0380 c2        1 0G6      0.287000
     15 O1          0.1550    1.0030   -0.3700 o         1 0G6     -0.367000
     16 CB1         3.2590    0.4050   -1.3520 c3        1 0G6     -0.161000
     17 CG1         2.9740    1.3040   -2.6490 c3        1 0G6     -0.168000
     18 CD          2.1700    0.6440   -3.3850 c3        1 0G6     -0.030000
     19 N2          1.7460    0.8570    1.3500 n         1 0G6     -0.384000
     20 CA2         0.8230    1.3050    2.3690 c3        1 0G6      0.038000
     21 C2          0.9250    2.8160    2.5240 c3        1 0G6      0.007000
     22 O2          1.7850    3.1170    3.5950 oh        1 0G6     -0.336000
     23 CB2         1.1650    0.6410    3.6930 c3        1 0G6     -0.175000
     24 CG2        -0.1640    0.0690    4.3600 c3        1 0G6     -0.186000
     25 CD3         0.0990   -0.2700    5.8090 c3        1 0G6     -0.035000
     26 NE         -1.1630   -0.5490    6.4760 n3        1 0G6     -0.302000
     27 CZ1        -1.2390   -0.5250    7.9170 c2        1 0G6      0.381000
     28 NH1        -1.2120   -1.7380    8.6460 n3        1 0G6     -0.365000
     29 NH2        -1.3350    0.6300    8.5570 n2        1 0G6     -0.380000
     30 C3         -0.4520    3.3990    2.8080 c3        1 0G6     -0.168000
     31 CL         -0.2690    5.0390    3.4300 cl        1 0G6     -0.088000
     32 H          -1.5020    0.6430   -4.0480 hn        1 0G6      0.157000
     33 H2         -2.0970   -0.6160   -3.3600 hn        1 0G6      0.157000
     34 HA          0.2200   -0.4000   -4.7670 h1        1 0G6      0.135000
     35 HB2         0.2860   -2.6800   -4.9990 hc        1 0G6      0.093500
     36 HB3        -0.9020   -2.9020   -4.0630 hc        1 0G6      0.093500
     37 HD1        -3.2200   -2.8790   -4.8960 ha        1 0G6      0.138000
     38 HD2        -0.1100   -1.7300   -7.3400 ha        1 0G6      0.122000
     39 HE1        -4.7090   -2.6360   -6.6820 ha        1 0G6      0.140500
     40 HE2        -1.6220   -1.4760   -9.1860 ha        1 0G6      0.139000
     41 HZ         -3.9350   -1.9480   -8.7950 ha        1 0G6      0.140500
     42 HA1         2.2590   -0.9960   -0.5420 h1        1 0G6      0.115000
     43 HB21        3.5740    0.9790   -0.6000 hc        1 0G6      0.109000
     44 HB31        3.9440   -0.2840   -1.5630 hc        1 0G6      0.109000
     45 HG2         3.8380    1.4770   -3.1500 hc        1 0G6      0.110000
     46 HG3         2.5540    2.1770   -2.3760 hc        1 0G6      0.110000
     47 HD21        1.5530    1.2670   -3.8700 h1        1 0G6      0.103000
     48 HD3         2.6690    0.0970   -4.0260 h1        1 0G6      0.103000
     49 H1          2.6480    0.7610    1.5490 hn        1 0G6      0.241000
     50 HA2        -0.0930    1.0640    2.1080 h1        1 0G6      0.129000
     51 HB22        1.7810   -0.0770    3.5390 hc        1 0G6      0.101500
     52 HB32        1.5770    1.3060    4.2980 hc        1 0G6      0.101500
     53 HG21       -0.8390    0.7140    4.3100 hc        1 0G6      0.125500
     54 HG31       -0.4490   -0.7450    3.8790 hc        1 0G6      0.125500
     55 HD22        0.6700   -1.0470    5.8570 h1        1 0G6      0.098500
     56 HD31        0.5480    0.5020    6.2580 h1        1 0G6      0.098500
     57 HE         -1.8750   -0.7140    6.0030 hn        1 0G6      0.306000
     58 HH11       -1.0410   -1.7270    9.5240 hn        1 0G6      0.280500
     59 HH12       -1.3710   -2.5340    8.2190 hn        1 0G6      0.280500
     60 HH21       -1.3540    1.4040    8.1070 DU        1 0G6      0.270000
     61 HH22       -1.3820    0.6300    9.4840 hn        1 0G6      0.267000
     62 H11        -0.9810    3.4190    1.9730 h1        1 0G6      0.122000
     63 H21        -0.9020    2.8560    3.4620 h1        1 0G6      0.122000
     64 H33         1.2920    3.2190    1.6750 h1        1 0G6      0.103000
     65 H34         2.2210    3.9200    3.4280 ho        1 0G6      0.225000
@<TRIPOS>BOND
     1    1    2 1   
     2    1   32 1   
     3    1   33 1   
     4    2    3 1   
     5    2    5 1   
     6    2   34 1   
     7    3    4 1   
     8    3   12 1   
     9    5    6 1   
    10    5   35 1   
    11    5   36 1   
    12    6    7 1   
    13    6    8 1   
    14    7   37 1   
    15    8   10 1   
    16    8   38 1   
    17    9   11 1   
    18    9   39 1   
    19   10   40 1   
    20   11   41 1   
    21   12   13 1   
    22   12   18 1   
    23   13   14 1   
    24   13   16 1   
    25   13   42 1   
    26   14   15 1   
    27   14   19 1   
    28   16   17 1   
    29   16   43 1   
    30   16   44 1   
    31   17   18 1   
    32   17   45 1   
    33   17   46 1   
    34   18   47 1   
    35   18   48 1   
    36   19   20 1   
    37   19   49 1   
    38   20   21 1   
    39   20   23 1   
    40   20   50 1   
    41   21   22 1   
    42   21   30 1   
    43   21   64 1   
    44   22   65 1   
    45   23   24 1   
    46   23   51 1   
    47   23   52 1   
    48   24   25 1   
    49   24   53 1   
    50   24   54 1   
    51   25   26 1   
    52   25   55 1   
    53   25   56 1   
    54   26   27 1   
    55   26   57 1   
    56   27   28 1   
    57   27   29 1   
    58   28   58 1   
    59   28   59 1   
    60   29   61 1   
    61   30   31 1   
    62   30   62 1   
    63   30   63 1   
@<TRIPOS>SUBSTRUCTURE
     1 0G6         1 TEMP              0 ****  ****    0 ROOT
