@<TRIPOS>MOLECULE
0G6
   65    66     1     0     0
SMALL
bcc


@<TRIPOS>ATOM
      1 N           0.8180   -2.3810    0.0130 n3        1 0G6     -0.936800
      2 CA          1.6900   -1.2290    0.2010 c3        1 0G6      0.100500
      3 C           0.9080   -0.0360    0.7930 c         1 0G6      0.656100
      4 O           0.0030   -0.2340    1.6370 o         1 0G6     -0.644100
      5 CB          2.8930   -1.4760    1.1340 c3        1 0G6     -0.068100
      6 CG          3.7690   -2.5550    0.6060 ca        1 0G6     -0.108300
      7 CD1         4.7070   -2.2750   -0.3950 ca        1 0G6     -0.131000
      8 CD2         3.6770   -3.8550    1.1170 ca        1 0G6     -0.131000
      9 CE1         5.5390   -3.2820   -0.8790 ca        1 0G6     -0.122500
     10 CE2         4.5120   -4.8610    0.6310 ca        1 0G6     -0.122500
     11 CZ          5.4430   -4.5760   -0.3680 ca        1 0G6     -0.118000
     12 N1          1.2000    1.2350    0.3660 n         1 0G6     -0.456800
     13 CA1         0.5990    2.4200    0.9750 c3        1 0G6      0.037700
     14 C1         -0.8680    2.5940    0.5090 c         1 0G6      0.640100
     15 O1         -1.1460    3.2210   -0.5290 o         1 0G6     -0.591100
     16 CB1         1.4490    3.6340    0.5430 c3        1 0G6     -0.084400
     17 CG1         2.5300    3.1010   -0.3920 c3        1 0G6     -0.087400
     18 CD          2.3040    1.5860   -0.5100 c3        1 0G6      0.089000
     19 N2         -1.8420    2.0500    1.3260 n         1 0G6     -0.552900
     20 CA2        -3.2110    1.9230    0.8740 c3        1 0G6      0.095700
     21 C2         -4.2110    2.4130    1.9640 c3        1 0G6      0.132100
     22 O2         -5.5000    2.0630    1.4790 oh        1 0G6     -0.608800
     23 CB2        -3.5930    0.4810    0.4900 c3        1 0G6     -0.095400
     24 CG2        -2.6290   -0.0920   -0.5230 c3        1 0G6     -0.103400
     25 CD3        -3.0770   -1.4900   -0.9530 c3        1 0G6      0.018300
     26 NE         -1.9780   -2.2420   -1.5320 nh        1 0G6     -0.383100
     27 CZ1        -2.0680   -3.5750   -1.8590 cz        1 0G6      0.515300
     28 NH1        -3.2870   -4.2190   -1.8740 nh        1 0G6     -0.510700
     29 NH2        -0.9260   -4.2690   -2.2030 nh        1 0G6     -0.510700
     30 C3         -4.0820    3.9180    2.1610 c3        1 0G6     -0.009000
     31 CL         -5.0450    4.4710    3.5180 cl        1 0G6     -0.178400
     32 H           1.3890   -3.2080   -0.0330 hn        1 0G6      0.365300
     33 H2          0.2030   -2.4700    0.8050 hn        1 0G6      0.365300
     34 HA          2.0850   -0.9650   -0.8260 h1        1 0G6      0.080700
     35 HB2         3.4810   -0.5230    1.2260 hc        1 0G6      0.072700
     36 HB3         2.5210   -1.7380    2.1600 hc        1 0G6      0.072700
     37 HD1         4.7940   -1.2510   -0.7900 ha        1 0G6      0.131500
     38 HD2         2.9610   -4.0800    1.9220 ha        1 0G6      0.131500
     39 HE1         6.2810   -3.0530   -1.6600 ha        1 0G6      0.143000
     40 HE2         4.4450   -5.8780    1.0470 ha        1 0G6      0.143000
     41 HZ          6.1080   -5.3690   -0.7440 ha        1 0G6      0.145000
     42 HA1         0.6240    2.3080    2.0990 h1        1 0G6      0.083700
     43 HB21        0.8130    4.3930    0.0210 hc        1 0G6      0.080700
     44 HB31        1.9000    4.1140    1.4450 hc        1 0G6      0.080700
     45 HG2         2.4550    3.5800   -1.4000 hc        1 0G6      0.068200
     46 HG3         3.5500    3.3100    0.0150 hc        1 0G6      0.068200
     47 HD21        3.2330    1.0220   -0.2170 h1        1 0G6      0.050200
     48 HD3         2.0410    1.3060   -1.5680 h1        1 0G6      0.050200
     49 H1         -1.5490    1.4050    2.0290 hn        1 0G6      0.328500
     50 HA2        -3.3490    2.5820   -0.0370 h1        1 0G6      0.102700
     51 HB22       -3.6140   -0.1600    1.4100 hc        1 0G6      0.068700
     52 HB32       -4.6330    0.5070    0.0680 hc        1 0G6      0.068700
     53 HG21       -2.5690    0.5810   -1.4190 hc        1 0G6      0.073700
     54 HG31       -1.6010   -0.1440   -0.0660 hc        1 0G6      0.073700
     55 HD22       -3.4810   -2.0430   -0.0550 h1        1 0G6      0.065700
     56 HD31       -3.8990   -1.4000   -1.7200 h1        1 0G6      0.065700
     57 HE         -1.0670   -1.8240   -1.4710 hn        1 0G6      0.338700
     58 HH11       -4.1230   -3.7240   -1.6600 hn        1 0G6      0.324700
     59 HH12       -3.3610   -5.1640   -2.1740 hn        1 0G6      0.324700
     60 HH21       -0.0330   -3.8320   -2.1410 hn        1 0G6      0.324700
     61 HH22       -0.9770   -5.2010   -2.5410 hn        1 0G6      0.324700
     62 H11        -3.0270    4.2050    2.3820 h1        1 0G6      0.087200
     63 H21        -4.4470    4.4650    1.2580 h1        1 0G6      0.087200
     64 H33        -4.0260    1.8720    2.9350 h1        1 0G6      0.055700
     65 H34        -6.1460    2.4900    2.0580 ho        1 0G6      0.426000
@<TRIPOS>BOND
     1    1    2 1   
     2    1   32 1   
     3    1   33 1   
     4    2    3 1   
     5    2    5 1   
     6    2   34 1   
     7    3    4 2   
     8    3   12 1   
     9    5    6 1   
    10    5   35 1   
    11    5   36 1   
    12    6    7 ar  
    13    6    8 ar  
    14    7    9 ar  
    15    7   37 1   
    16    8   10 ar  
    17    8   38 1   
    18    9   11 ar  
    19    9   39 1   
    20   10   11 ar  
    21   10   40 1   
    22   11   41 1   
    23   12   13 1   
    24   12   18 1   
    25   13   14 1   
    26   13   16 1   
    27   13   42 1   
    28   14   15 2   
    29   14   19 1   
    30   16   17 1   
    31   16   43 1   
    32   16   44 1   
    33   17   18 1   
    34   17   45 1   
    35   17   46 1   
    36   18   47 1   
    37   18   48 1   
    38   19   20 1   
    39   19   49 1   
    40   20   21 1   
    41   20   23 1   
    42   20   50 1   
    43   21   22 1   
    44   21   30 1   
    45   21   64 1   
    46   22   65 1   
    47   23   24 1   
    48   23   51 1   
    49   23   52 1   
    50   24   25 1   
    51   24   53 1   
    52   24   54 1   
    53   25   26 1   
    54   25   55 1   
    55   25   56 1   
    56   26   27 2   
    57   26   57 1   
    58   27   28 1   
    59   27   29 1   
    60   28   58 1   
    61   28   59 1   
    62   29   60 1   
    63   29   61 1   
    64   30   31 1   
    65   30   62 1   
    66   30   63 1   
@<TRIPOS>SUBSTRUCTURE
     1 0G6         1 TEMP              0 ****  ****    0 ROOT
