@<TRIPOS>MOLECULE
0G7
   62    58     1     0     0
SMALL
bcc


@<TRIPOS>ATOM
      1 N          -0.9430   -1.2310   -4.3710 n3        1 0G7     -0.321000
      2 CA          0.0280   -0.2370   -4.2390 c3        1 0G7     -0.023000
      3 C           0.5750   -0.2390   -2.8050 c1        1 0G7      0.257000
      4 O           1.2410   -1.1740   -2.4090 o         1 0G7     -0.397000
      5 CB          1.1690   -0.5060   -5.2250 c3        1 0G7     -0.115000
      6 CG          0.6390   -0.3860   -6.6490 c2        1 0G7     -0.080000
      7 CD1         0.5360    0.8640   -7.2450 c1        1 0G7     -0.132000
      8 CD2         0.3350   -1.5370   -7.3820 c2        1 0G7     -0.103000
      9 CE1         0.1270    0.9740   -8.5780 c1        1 0G7     -0.131000
     10 CE2        -0.0740   -1.4270   -8.7150 c1        1 0G7     -0.130000
     11 CZ         -0.1770   -0.1700   -9.3110 c1        1 0G7     -0.126000
     12 N1          0.3820    0.9080   -1.9660 n2        1 0G7     -0.317000
     13 CA1         0.9820    1.1220   -0.4630 c3        1 0G7      0.009000
     14 C1          0.0570    0.7330    0.6980 c2        1 0G7      0.300000
     15 O1         -1.0390    1.2390    0.7960 o         1 0G7     -0.387000
     16 CB1         1.2840    2.4630   -0.4590 c3        1 0G7     -0.166000
     17 CG1         0.3300    3.1160   -1.4690 c3        1 0G7     -0.169000
     18 CD         -0.3050    1.9760   -2.2640 c3        1 0G7     -0.032000
     19 N2          0.5370   -0.1640    1.7380 n         1 0G7     -0.366000
     20 CA2         0.3700    0.1840    3.1230 c3        1 0G7     -0.015000
     21 C2          1.7320    0.4310    3.7460 c2        1 0G7      0.200000
     22 O2          2.5020   -0.5010    3.9210 o         1 0G7     -0.251000
     23 CB2        -0.3160   -0.9540    3.8400 c3        1 0G7     -0.168000
     24 CG2        -0.6990   -0.5270    5.2270 c3        1 0G7     -0.168000
     25 CD3        -1.3020   -1.7480    6.0020 c3        1 0G7     -0.058000
     26 NE         -1.7370   -1.3110    7.3020 n3        1 0G7     -0.326000
     27 CZ1        -2.1310   -2.2690    8.2830 c2        1 0G7      0.151000
     28 NH1        -3.4180   -2.1620    8.9120 n3        1 0G7     -0.320000
     29 NH2        -1.3160   -3.2480    8.6130 n1        1 0G7     -0.343000
     30 C3          2.1630    1.8510    4.0940 c3        1 0G7     -0.187000
     31 CL1         3.8730    1.8960    4.2990 cl        1 0G7     -0.079000
     32 HN         -0.9480   -1.7610   -3.6150 hn        1 0G7      0.159000
     33 HNA        -1.7420   -0.8530   -4.4740 hn        1 0G7      0.159000
     34 HA         -0.3900    0.6730   -4.4410 h1        1 0G7      0.122000
     35 HB          1.8900    0.1540   -5.0840 hc        1 0G7      0.099500
     36 HBA         1.5180   -1.4030   -5.0820 hc        1 0G7      0.099500
     37 HD1         0.7430    1.6550   -6.7380 ha        1 0G7      0.123000
     38 HD2         0.4070   -2.4320   -6.9560 ha        1 0G7      0.144000
     39 HE1         0.0560    1.8530   -8.9950 ha        1 0G7      0.131000
     40 HE2        -0.2870   -2.2300   -9.2300 ha        1 0G7      0.134000
     41 HZ         -0.4750   -0.0870  -10.2810 DU        1 0G7      0.140500
     42 HA1         1.7730    0.5880   -0.2290 h1        1 0G7      0.127000
     43 HB1         2.1850    2.5960   -0.7280 hc        1 0G7      0.115500
     44 HB1A        1.1430    2.8290    0.4100 hc        1 0G7      0.115500
     45 HG1         0.8210    3.7000   -2.0600 hc        1 0G7      0.099000
     46 H31        -0.3720    3.6280   -0.9890 hc        1 0G7      0.099000
     47 HD         -1.2420    1.8590   -1.9990 h1        1 0G7      0.091500
     48 H29        -0.2450    2.1610   -3.2320 h1        1 0G7      0.091500
     49 HN2         0.8830   -1.0020    1.5080 hn        1 0G7      0.264000
     50 HA2        -0.1870    1.0110    3.1980 h1        1 0G7      0.126000
     51 HB2        -1.1090   -1.2080    3.3500 hc        1 0G7      0.105000
     52 HB2A        0.2940   -1.7170    3.8930 hc        1 0G7      0.105000
     53 HG2         0.0860   -0.2050    5.6960 hc        1 0G7      0.091500
     54 HG2A       -1.3570    0.1800    5.1770 hc        1 0G7      0.091500
     55 HD3        -2.0720   -2.1130    5.5010 h1        1 0G7      0.082500
     56 HD3A       -0.6110   -2.4530    6.1030 h1        1 0G7      0.082500
     57 HNE        -1.6800   -0.4080    7.5320 hn        1 0G7      0.195000
     58 HNH1       -3.9610   -1.4450    8.7270 hn        1 0G7      0.187000
     59 HNHA       -3.6940   -2.8060    9.5090 hn        1 0G7      0.187000
     60 HNH2       -0.4720   -3.3190    8.2020 DU        1 0G7      0.140500
     61 H3          1.7340    2.1260    4.9160 h1        1 0G7      0.142000
     62 H3A         1.9010    2.4620    3.3690 h1        1 0G7      0.142000
@<TRIPOS>BOND
     1    1    2 1   
     2    1   32 1   
     3    1   33 1   
     4    2    3 1   
     5    2    5 1   
     6    2   34 1   
     7    3    4 1   
     8    5    6 1   
     9    5   35 1   
    10    5   36 1   
    11    6    7 1   
    12    6    8 1   
    13    7   37 1   
    14    8   10 1   
    15    8   38 1   
    16    9   11 1   
    17    9   39 1   
    18   10   40 1   
    19   12   13 1   
    20   12   18 1   
    21   13   14 1   
    22   13   16 1   
    23   13   42 1   
    24   14   15 1   
    25   14   19 1   
    26   16   17 1   
    27   16   43 1   
    28   16   44 1   
    29   17   18 1   
    30   17   45 1   
    31   17   46 1   
    32   18   47 1   
    33   18   48 1   
    34   19   20 1   
    35   19   49 1   
    36   20   21 1   
    37   20   23 1   
    38   20   50 1   
    39   21   22 1   
    40   21   30 1   
    41   23   24 1   
    42   23   51 1   
    43   23   52 1   
    44   24   25 1   
    45   24   53 1   
    46   24   54 1   
    47   25   26 1   
    48   25   55 1   
    49   25   56 1   
    50   26   27 1   
    51   26   57 1   
    52   27   28 1   
    53   27   29 1   
    54   28   58 1   
    55   28   59 1   
    56   30   31 1   
    57   30   61 1   
    58   30   62 1   
@<TRIPOS>SUBSTRUCTURE
     1 0G7         1 TEMP              0 ****  ****    0 ROOT
