@<TRIPOS>MOLECULE
0G7
   62    63     1     0     0
SMALL
bcc


@<TRIPOS>ATOM
      1 N          -1.5290   -2.5500   -0.5830 n3        1 0G7     -0.890800
      2 CA         -2.1860   -1.2700   -0.6860 c3        1 0G7      0.125500
      3 C          -1.2570   -0.1580   -1.2410 c         1 0G7      0.612100
      4 O          -0.3910   -0.4360   -2.1010 o         1 0G7     -0.636100
      5 CB         -3.4230   -1.3090   -1.6080 c3        1 0G7     -0.028100
      6 CG         -4.5990   -1.9070   -0.9200 ca        1 0G7     -0.087300
      7 CD1        -5.6170   -1.0830   -0.4240 ca        1 0G7     -0.117500
      8 CD2        -4.7090   -3.2950   -0.7770 ca        1 0G7     -0.117500
      9 CE1        -6.7280   -1.6400    0.2060 ca        1 0G7     -0.130500
     10 CE2        -5.8210   -3.8490   -0.1450 ca        1 0G7     -0.130500
     11 CZ         -6.8320   -3.0230    0.3460 ca        1 0G7     -0.126000
     12 N1         -1.3510    1.1250   -0.7400 n         1 0G7     -0.458800
     13 CA1        -0.6410    2.2460   -1.3460 c3        1 0G7      0.035700
     14 C1          0.7930    2.4020   -0.7860 c         1 0G7      0.656100
     15 O1          1.1430    3.4120   -0.1420 o         1 0G7     -0.626100
     16 CB1        -1.4760    3.5140   -1.0680 c3        1 0G7     -0.087400
     17 CG1        -2.5650    3.1080   -0.0830 c3        1 0G7     -0.090400
     18 CD         -2.4520    1.5850    0.0880 c3        1 0G7      0.084000
     19 N2          1.6770    1.3850   -1.0590 n         1 0G7     -0.557900
     20 CA2         3.0390    1.4110   -0.5870 c3        1 0G7      0.011700
     21 C2          3.9580    2.1470   -1.5840 c         1 0G7      0.540100
     22 O2          4.4010    1.5870   -2.5840 o         1 0G7     -0.491100
     23 CB2         3.6250    0.0110   -0.3490 c3        1 0G7     -0.086400
     24 CG2         2.9000   -0.7270    0.7510 c3        1 0G7     -0.089400
     25 CD3         3.6000   -2.0600    1.0250 c3        1 0G7      0.167800
     26 NE          2.9060   -2.8700    2.0100 nh        1 0G7     -0.792200
     27 CZ1         3.7230   -3.8640    2.6720 c2        1 0G7      0.742100
     28 NH1         4.4790   -4.7220    1.8130 nh        1 0G7     -0.930800
     29 NH2         3.7290   -3.9060    3.9820 n2        1 0G7     -0.874100
     30 C3          4.2240    3.5670   -1.1850 c3        1 0G7     -0.084000
     31 CL1         5.0240    4.5350   -2.3970 cl        1 0G7     -0.153400
     32 HN         -1.2020   -2.8580   -1.4800 hn        1 0G7      0.364800
     33 HNA        -0.7550   -2.4990    0.0500 hn        1 0G7      0.364800
     34 HA         -2.5200   -0.9880    0.3570 h1        1 0G7      0.083700
     35 HB         -3.6640   -0.2600   -1.9290 hc        1 0G7      0.059700
     36 HBA        -3.1880   -1.8920   -2.5390 hc        1 0G7      0.059700
     37 HD1        -5.5420    0.0090   -0.5350 ha        1 0G7      0.134000
     38 HD2        -3.9070   -3.9470   -1.1570 ha        1 0G7      0.134000
     39 HE1        -7.5240   -0.9860    0.5910 ha        1 0G7      0.132500
     40 HE2        -5.8990   -4.9400   -0.0340 ha        1 0G7      0.132500
     41 HZ         -7.7090   -3.4620    0.8440 ha        1 0G7      0.132000
     42 HA1        -0.5440    2.0730   -2.4590 h1        1 0G7      0.087700
     43 HB1        -0.8360    4.3300   -0.6470 hc        1 0G7      0.076200
     44 HB1A       -1.9210    3.8800   -2.0270 hc        1 0G7      0.076200
     45 HG1        -3.5780    3.3830   -0.4660 hc        1 0G7      0.059200
     46 H31        -2.4200    3.6160    0.9020 hc        1 0G7      0.059200
     47 HD         -3.4130    1.0800   -0.2110 h1        1 0G7      0.052700
     48 H29        -2.2380    1.3200    1.1610 h1        1 0G7      0.052700
     49 HN2         1.3990    0.6170   -1.6310 hn        1 0G7      0.350500
     50 HA2         3.0560    1.9830    0.3920 h1        1 0G7      0.085700
     51 HB2         3.5940   -0.5790   -1.3030 hc        1 0G7      0.065200
     52 HB2A        4.7050    0.1420   -0.0750 hc        1 0G7      0.065200
     53 HG2         2.8850   -0.1020    1.6830 hc        1 0G7      0.052700
     54 HG2A        1.8340   -0.9120    0.4530 hc        1 0G7      0.052700
     55 HD3         4.6660   -1.8470    1.3270 h1        1 0G7      0.045200
     56 HD3A        3.6330   -2.6510    0.0650 h1        1 0G7      0.045200
     57 HNE         2.4200   -2.3010    2.6820 hn        1 0G7      0.402800
     58 HNH1        4.1890   -4.7330    0.8600 hn        1 0G7      0.393300
     59 HNHA        4.6080   -5.6400    2.1800 hn        1 0G7      0.393300
     60 HNH2        4.2210   -4.6690    4.3910 hn        1 0G7      0.392400
     61 H3          3.2470    4.0690   -0.9470 h1        1 0G7      0.103700
     62 H3A         4.8770    3.5760   -0.2770 h1        1 0G7      0.103700
@<TRIPOS>BOND
     1    1    2 1   
     2    1   32 1   
     3    1   33 1   
     4    2    3 1   
     5    2    5 1   
     6    2   34 1   
     7    3    4 2   
     8    3   12 1   
     9    5    6 1   
    10    5   35 1   
    11    5   36 1   
    12    6    7 ar  
    13    6    8 ar  
    14    7    9 ar  
    15    7   37 1   
    16    8   10 ar  
    17    8   38 1   
    18    9   11 ar  
    19    9   39 1   
    20   10   11 ar  
    21   10   40 1   
    22   11   41 1   
    23   12   13 1   
    24   12   18 1   
    25   13   14 1   
    26   13   16 1   
    27   13   42 1   
    28   14   15 2   
    29   14   19 1   
    30   16   17 1   
    31   16   43 1   
    32   16   44 1   
    33   17   18 1   
    34   17   45 1   
    35   17   46 1   
    36   18   47 1   
    37   18   48 1   
    38   19   20 1   
    39   19   49 1   
    40   20   21 1   
    41   20   23 1   
    42   20   50 1   
    43   21   22 2   
    44   21   30 1   
    45   23   24 1   
    46   23   51 1   
    47   23   52 1   
    48   24   25 1   
    49   24   53 1   
    50   24   54 1   
    51   25   26 1   
    52   25   55 1   
    53   25   56 1   
    54   26   27 1   
    55   26   57 1   
    56   27   28 1   
    57   27   29 2   
    58   28   58 1   
    59   28   59 1   
    60   29   60 1   
    61   30   31 1   
    62   30   61 1   
    63   30   62 1   
@<TRIPOS>SUBSTRUCTURE
     1 0G7         1 TEMP              0 ****  ****    0 ROOT
