@<TRIPOS>MOLECULE
0G8
   33    34     1     0     0
SMALL
bcc


@<TRIPOS>ATOM
      1 O2          0.3040    0.2270    0.0250 o         1 0G8     -0.762500
      2 C2          1.4070   -0.2750   -0.3400 c         1 0G8      0.824900
      3 N3          2.2170   -0.9780    0.5420 nc        1 0G8     -0.812100
      4 C4          3.4160   -1.4410    0.0830 cd        1 0G8      0.745500
      5 N4          4.2250   -2.2570    0.8580 nh        1 0G8     -0.896800
      6 C5          3.9200   -1.0700   -1.2300 cd        1 0G8     -0.363600
      7 C6          3.0550   -0.4900   -2.1160 cc        1 0G8      0.032600
      8 N1          1.7910   -0.0870   -1.7180 n         1 0G8     -0.393000
      9 C1'         0.7330    0.1220   -2.6910 c3        1 0G8      0.329500
     10 O4'         1.2570    0.6150   -3.9390 os        1 0G8     -0.410600
     11 C2'        -0.1420   -1.1280   -2.9400 c3        1 0G8     -0.016300
     12 S3'        -0.6720   -1.0090   -4.6280 ss        1 0G8     -0.480200
     13 C4'         0.8980   -0.1760   -5.0660 c3        1 0G8      0.266200
     14 C5'         2.0030   -1.1070   -5.5840 c3        1 0G8      0.217400
     15 O5'         2.5120   -1.9580   -4.6370 os        1 0G8     -0.564200
     16 PA          4.1910   -2.2980   -4.9240 p5        1 0G8      1.575800
     17 O2A         4.1570   -2.7510   -6.3400 o         1 0G8     -0.916500
     18 O1A         4.7140   -0.9260   -4.6480 o         1 0G8     -0.916500
     19 O3A         4.5610   -3.3480   -3.8410 os        1 0G8     -0.804800
     20 PB          5.1880   -4.4980   -2.6310 p5        1 0G8      1.484900
     21 O1B         6.4870   -4.9480   -3.2240 o         1 0G8     -0.956500
     22 O3B         5.3390   -3.6200   -1.4050 o         1 0G8     -0.956500
     23 O2B         4.1200   -5.5380   -2.4960 o         1 0G8     -0.956500
     24 H1          4.8630   -2.8140    0.2740 hn        1 0G8      0.441800
     25 H2          3.7550   -2.7780    1.5630 hn        1 0G8      0.441800
     26 H3          4.9090   -1.4420   -1.5680 ha        1 0G8      0.246000
     27 H4          3.3460   -0.3860   -3.2040 h4        1 0G8      0.263000
     28 H5          0.0890    0.9680   -2.2940 h2        1 0G8      0.062700
     29 H6          0.4570   -2.0660   -2.8110 h1        1 0G8      0.099700
     30 H7         -1.0150   -1.1330   -2.2540 h1        1 0G8      0.099700
     31 H8          0.6370    0.5680   -5.8650 h2        1 0G8      0.037700
     32 H9          2.8230   -0.4440   -5.9960 h1        1 0G8      0.019200
     33 H10         1.5300   -1.6850   -6.4330 h1        1 0G8      0.019200
@<TRIPOS>BOND
     1    1    2 2   
     2    2    3 1   
     3    2    8 1   
     4    3    4 2   
     5    4    5 1   
     6    4    6 1   
     7    5   24 1   
     8    5   25 1   
     9    6    7 2   
    10    6   26 1   
    11    7    8 1   
    12    7   27 1   
    13    8    9 1   
    14    9   10 1   
    15    9   11 1   
    16    9   28 1   
    17   10   13 1   
    18   11   12 1   
    19   11   29 1   
    20   11   30 1   
    21   12   13 1   
    22   13   14 1   
    23   13   31 1   
    24   14   15 1   
    25   14   32 1   
    26   14   33 1   
    27   15   16 1   
    28   16   17 1   
    29   16   18 1   
    30   16   19 1   
    31   19   20 1   
    32   20   21 1   
    33   20   22 1   
    34   20   23 1   
@<TRIPOS>SUBSTRUCTURE
     1 0G8         1 TEMP              0 ****  ****    0 ROOT
