@<TRIPOS>MOLECULE
0G8
   34    35     1     0     0
SMALL
bcc


@<TRIPOS>ATOM
      1 O2          0.0000    0.0000    0.0000 o         1 0G8     -0.811500
      2 C2          1.2200    0.0000    0.0000 c         1 0G8      0.739900
      3 N3          1.8750    0.0000    1.1590 nc        1 0G8     -0.764100
      4 C4          3.2010   -0.0010    1.1880 cd        1 0G8     -0.097500
      5 N4          3.8670   -0.0000    2.3910 nz        1 0G8      0.329400
      6 C5          3.9240   -0.0030   -0.0240 cd        1 0G8     -0.256600
      7 C6          3.2440   -0.0040   -1.1940 cc        1 0G8     -0.159400
      8 N1          1.8810   -0.0080   -1.1720 n         1 0G8      0.022000
      9 C1'         1.1320   -0.0140   -2.4310 c3        1 0G8      0.236500
     10 O4'         2.0430   -0.0560   -3.5390 os        1 0G8     -0.389600
     11 C2'         0.2400   -1.2870   -2.5080 c3        1 0G8      0.069700
     12 S3'        -0.0650   -1.3600   -4.3210 ss        1 0G8     -0.471200
     13 C4'         1.3740   -0.3220   -4.7860 c3        1 0G8      0.301200
     14 C5'         2.2990   -1.0850   -5.7370 c3        1 0G8      0.316400
     15 O5'         2.7430   -2.2880   -5.1050 os        1 0G8     -0.481200
     16 PA          3.7320   -3.3390   -5.8180 p5        1 0G8      0.966800
     17 O2A         5.1650   -2.6470   -6.0620 o         1 0G8     -0.676500
     18 O1A         3.1570   -3.7550   -7.1160 o         1 0G8     -0.676500
     19 O3A         3.9150   -4.6300   -4.8730 os        1 0G8     -0.481800
     20 PB          4.4910   -6.1150   -5.1060 p5        1 0G8      0.880900
     21 O1B         3.9390   -7.0930   -3.9520 o         1 0G8     -0.441167
     22 O3B         6.1000   -6.0800   -5.0560 o         1 0G8     -0.441167
     23 O2B         4.0490   -6.6130   -6.4280 o         1 0G8     -0.441167
     24 H1          4.4430   -0.8160    2.4550 hn        1 0G8      0.113800
     25 H2          3.2030   -0.0010    3.1400 hn        1 0G8      0.113800
     26 H3          5.0070   -0.0020   -0.0170 ha        1 0G8      0.083000
     27 H4          3.7760   -0.0080   -2.1380 h4        1 0G8      0.150000
     28 H5          0.5120    0.8720   -2.5010 h2        1 0G8      0.017700
     29 H6         -0.6850   -1.1490   -1.9620 h1        1 0G8      0.071700
     30 H7          0.7800   -2.1630   -2.1680 h1        1 0G8      0.071700
     31 H8          1.0390    0.6040   -5.2370 h2        1 0G8      0.009700
     32 H9          1.7600   -1.3310   -6.6440 h1        1 0G8     -0.009800
     33 H10         3.1550   -0.4680   -5.9810 h1        1 0G8     -0.009800
     34 H43         4.4410    0.8170    2.4540 hn        1 0G8      0.113800
@<TRIPOS>BOND
     1    1    2 2   
     2    2    3 1   
     3    2    8 1   
     4    3    4 2   
     5    4    5 1   
     6    4    6 1   
     7    5   24 1   
     8    5   25 1   
     9    5   34 1   
    10    6    7 2   
    11    6   26 1   
    12    7    8 1   
    13    7   27 1   
    14    8    9 1   
    15    9   10 1   
    16    9   11 1   
    17    9   28 1   
    18   10   13 1   
    19   11   12 1   
    20   11   29 1   
    21   11   30 1   
    22   12   13 1   
    23   13   14 1   
    24   13   31 1   
    25   14   15 1   
    26   14   32 1   
    27   14   33 1   
    28   15   16 1   
    29   16   17 1   
    30   16   18 1   
    31   16   19 1   
    32   19   20 1   
    33   20   21 1   
    34   20   22 1   
    35   20   23 1   
@<TRIPOS>SUBSTRUCTURE
     1 0G8         1 TEMP              0 ****  ****    0 ROOT
