@<TRIPOS>MOLECULE
0GA
   25    17     1     0     0
SMALL
bcc


@<TRIPOS>ATOM
      1 OAD        -0.7480   -3.2300   -0.1490 o         1 0GA     -0.572500
      2 CAL        -0.3150   -2.2430    0.5010 c1        1 0GA      0.367000
      3 OAB         0.8970   -2.1940    0.8380 o         1 0GA     -0.572500
      4 CAN        -1.2510   -1.1170    0.8810 c1        1 0GA     -0.091000
      5 CAG        -1.8920   -1.1450    2.0660 c1        1 0GA     -0.179000
      6 CAA        -1.6750   -2.3020    3.0160 c2        1 0GA     -0.154000
      7 OAK        -1.4530   -0.0420   -0.0020 o         1 0GA     -0.169000
      8 CAP        -0.2790    0.6650   -0.3150 c1        1 0GA      0.000000
      9 CAI         0.4240    1.3170    0.6860 c1        1 0GA     -0.168500
     10 CAH         1.5520    2.0580    0.3700 c1        1 0GA     -0.168500
     11 CAJ         1.9760    2.1470   -0.9470 c1        1 0GA     -0.179000
     12 CAO         0.1450    0.7540   -1.6310 c1        1 0GA      0.113000
     13 OAF        -0.5790    0.1060   -2.6490 oh        1 0GA     -0.283000
     14 CAQ         1.2730    1.4950   -1.9470 c1        1 0GA     -0.091000
     15 CAM         1.7570    1.5620   -3.3790 c1        1 0GA      0.365000
     16 OAC         2.4060    0.6020   -3.8700 os        1 0GA     -0.574000
     17 OAE         1.5020    2.5750   -4.0830 o         1 0GA     -0.605000
     18 H2         -2.4960   -0.4190    2.3110 ha        1 0GA      0.123500
     19 H3         -2.2130   -2.1670    3.8240 ha        1 0GA      0.060667
     20 H4         -1.9450   -3.1380    2.5800 ha        1 0GA      0.060667
     21 H5         -0.7270   -2.3520    3.2590 ha        1 0GA      0.060667
     22 H6          0.1250    1.2540    1.6130 ha        1 0GA      0.136500
     23 H7          2.0470    2.5170    1.0740 ha        1 0GA      0.136500
     24 H8          2.7510    2.6960   -1.1730 ha        1 0GA      0.123500
     25 H9         -1.2820    0.6010   -2.8740 ho        1 0GA      0.263000
@<TRIPOS>BOND
     1    1    2 1   
     2    2    3 1   
     3    4    5 1   
     4    5   18 1   
     5    6   19 1   
     6    6   20 1   
     7    6   21 1   
     8    7    8 1   
     9    8   12 1   
    10    9   10 1   
    11    9   22 1   
    12   10   23 1   
    13   11   14 1   
    14   11   24 1   
    15   12   13 1   
    16   13   25 1   
    17   15   17 1   
@<TRIPOS>SUBSTRUCTURE
     1 0GA         1 TEMP              0 ****  ****    0 ROOT
