@<TRIPOS>MOLECULE
0GA
   25    25     1     0     0
SMALL
bcc


@<TRIPOS>ATOM
      1 OAD         2.3650   -0.9050    1.1440 o         1 0GA     -0.838800
      2 CAL         1.8030    0.0310    0.5070 c         1 0GA      0.911800
      3 OAB         1.2440    1.0180    1.0650 o         1 0GA     -0.838800
      4 CAN         1.8650   -0.0070   -1.0160 ce        1 0GA      0.034900
      5 CAG         3.0280   -0.0840   -1.6860 c2        1 0GA     -0.250200
      6 CAA         3.1870   -0.1020   -3.1490 c3        1 0GA     -0.049900
      7 OAK         0.6270   -0.0690   -1.6720 os        1 0GA     -0.263200
      8 CAP         0.2350    1.1070   -2.3080 ca        1 0GA      0.052100
      9 CAI         0.1670    2.3100   -1.6030 ca        1 0GA     -0.136000
     10 CAH        -0.3360    3.4470   -2.2340 ca        1 0GA     -0.205000
     11 CAJ        -0.7750    3.3790   -3.5530 ca        1 0GA     -0.097000
     12 CAO        -0.2030    1.0360   -3.6570 ca        1 0GA      0.151100
     13 OAF        -0.0880   -0.1820   -4.2710 oh        1 0GA     -0.534100
     14 CAQ        -0.7220    2.1870   -4.2830 ca        1 0GA     -0.219600
     15 CAM        -1.2200    2.2040   -5.7100 c         1 0GA      0.916200
     16 OAC        -1.6630    3.2890   -6.1890 o         1 0GA     -0.855300
     17 OAE        -1.1850    1.1350   -6.4000 o         1 0GA     -0.855300
     18 H2          3.9560   -0.1500   -1.0960 ha        1 0GA      0.113000
     19 H3          3.7560    0.7980   -3.4940 hc        1 0GA      0.027033
     20 H4          2.1920   -0.1140   -3.6650 hc        1 0GA      0.027033
     21 H5          3.7600   -1.0110   -3.4650 hc        1 0GA      0.027033
     22 H6          0.5140    2.3210   -0.5520 ha        1 0GA      0.185000
     23 H7         -0.3890    4.3940   -1.6830 ha        1 0GA      0.098000
     24 H8         -1.1780    4.2710   -4.0600 ha        1 0GA      0.135000
     25 H9         -0.4510   -0.1080   -5.1760 ho        1 0GA      0.464000
@<TRIPOS>BOND
     1    1    2 1   
     2    2    3 1   
     3    2    4 1   
     4    4    5 2   
     5    4    7 1   
     6    5    6 1   
     7    5   18 1   
     8    6   19 1   
     9    6   20 1   
    10    6   21 1   
    11    7    8 1   
    12    8    9 ar  
    13    8   12 ar  
    14    9   10 ar  
    15    9   22 1   
    16   10   11 ar  
    17   10   23 1   
    18   11   14 ar  
    19   11   24 1   
    20   12   13 1   
    21   12   14 ar  
    22   13   25 1   
    23   14   15 1   
    24   15   16 1   
    25   15   17 1   
@<TRIPOS>SUBSTRUCTURE
     1 0GA         1 TEMP              0 ****  ****    0 ROOT
