@<TRIPOS>MOLECULE
0GA
   25    25     1     0     0
SMALL
bcc


@<TRIPOS>ATOM
      1 OAD         2.3250   -0.9330    1.1440 o         1 0GA     -0.838800
      2 CAL         1.7870    0.0170    0.5060 c         1 0GA      0.911800
      3 OAB         1.2590    1.0210    1.0630 o         1 0GA     -0.838800
      4 CAN         1.8400   -0.0290   -1.0170 ce        1 0GA      0.034900
      5 CAG         2.9970   -0.1400   -1.6920 c2        1 0GA     -0.250200
      6 CAA         3.1490   -0.1680   -3.1560 c3        1 0GA     -0.049900
      7 OAK         0.5970   -0.0600   -1.6660 os        1 0GA     -0.263200
      8 CAP         0.2340    1.1250   -2.3050 ca        1 0GA      0.052100
      9 CAI         0.2030    2.3320   -1.6040 ca        1 0GA     -0.136000
     10 CAH        -0.2720    3.4790   -2.2370 ca        1 0GA     -0.205000
     11 CAJ        -0.7200    3.4190   -3.5530 ca        1 0GA     -0.097000
     12 CAO        -0.2120    1.0610   -3.6510 ca        1 0GA      0.151100
     13 OAF        -0.1330   -0.1620   -4.2620 oh        1 0GA     -0.534100
     14 CAQ        -0.7030    2.2230   -4.2790 ca        1 0GA     -0.219600
     15 CAM        -1.2080    2.2490   -5.7040 c         1 0GA      0.916200
     16 OAC        -1.6230    3.3430   -6.1850 o         1 0GA     -0.855300
     17 OAE        -1.2060    1.1770   -6.3900 o         1 0GA     -0.855300
     18 H2          3.9260   -0.2290   -1.1060 ha        1 0GA      0.113000
     19 H3          2.1510   -0.1540   -3.6670 hc        1 0GA      0.027033
     20 H4          3.7400    0.7150   -3.5070 hc        1 0GA      0.027033
     21 H5          3.6940   -1.0930   -3.4710 hc        1 0GA      0.027033
     22 H6          0.5560    2.3370   -0.5550 ha        1 0GA      0.185000
     23 H7         -0.2960    4.4300   -1.6880 ha        1 0GA      0.098000
     24 H8         -1.1010    4.3190   -4.0620 ha        1 0GA      0.135000
     25 H9         -0.4990   -0.0820   -5.1650 ho        1 0GA      0.464000
@<TRIPOS>BOND
     1    1    2 1   
     2    2    3 1   
     3    2    4 1   
     4    4    5 2   
     5    4    7 1   
     6    5    6 1   
     7    5   18 1   
     8    6   19 1   
     9    6   20 1   
    10    6   21 1   
    11    7    8 1   
    12    8    9 ar  
    13    8   12 ar  
    14    9   10 ar  
    15    9   22 1   
    16   10   11 ar  
    17   10   23 1   
    18   11   14 ar  
    19   11   24 1   
    20   12   13 1   
    21   12   14 ar  
    22   13   25 1   
    23   14   15 1   
    24   15   16 1   
    25   15   17 1   
@<TRIPOS>SUBSTRUCTURE
     1 0GA         1 TEMP              0 ****  ****    0 ROOT
