@<TRIPOS>MOLECULE
0GA
   25    25     1     0     0
SMALL
bcc


@<TRIPOS>ATOM
      1 OAD         1.2750    0.9450    1.0570 o         1 0GA     -0.838800
      2 CAL         1.9310    0.0390    0.4680 c         1 0GA      0.911800
      3 OAB         2.5880   -0.8550    1.0750 o         1 0GA     -0.838800
      4 CAN         1.9900    0.0540   -1.0560 ce        1 0GA      0.034900
      5 CAG         3.1520    0.1170   -1.7280 c2        1 0GA     -0.250200
      6 CAA         3.3070    0.1610   -3.1920 c3        1 0GA     -0.049900
      7 OAK         0.7620   -0.1150   -1.7120 os        1 0GA     -0.263200
      8 CAP         0.2490    1.0350   -2.3120 ca        1 0GA      0.052100
      9 CAI         0.0620    2.2020   -1.5690 ca        1 0GA     -0.136000
     10 CAH        -0.5570    3.3000   -2.1640 ca        1 0GA     -0.205000
     11 CAJ        -0.9920    3.2290   -3.4840 ca        1 0GA     -0.097000
     12 CAO        -0.1830    0.9610   -3.6610 ca        1 0GA      0.151100
     13 OAF         0.0530   -0.2190   -4.3130 oh        1 0GA     -0.534100
     14 CAQ        -0.8200    2.0720   -4.2510 ca        1 0GA     -0.219600
     15 CAM        -1.3230    2.0820   -5.6760 c         1 0GA      0.916200
     16 OAC        -1.8760    3.1300   -6.1210 o         1 0GA     -0.855300
     17 OAE        -1.1810    1.0440   -6.3990 o         1 0GA     -0.855300
     18 H2          4.0850    0.1290   -1.1410 ha        1 0GA      0.113000
     19 H3          3.7790    1.1250   -3.5090 hc        1 0GA      0.027033
     20 H4          2.3170    0.0630   -3.7070 hc        1 0GA      0.027033
     21 H5          3.9680   -0.6750   -3.5360 hc        1 0GA      0.027033
     22 H6          0.4100    2.2160   -0.5180 ha        1 0GA      0.185000
     23 H7         -0.7040    4.2200   -1.5830 ha        1 0GA      0.098000
     24 H8         -1.4860    4.0900   -3.9620 ha        1 0GA      0.135000
     25 H9         -0.3190   -0.1550   -5.2150 ho        1 0GA      0.464000
@<TRIPOS>BOND
     1    1    2 1   
     2    2    3 1   
     3    2    4 1   
     4    4    5 2   
     5    4    7 1   
     6    5    6 1   
     7    5   18 1   
     8    6   19 1   
     9    6   20 1   
    10    6   21 1   
    11    7    8 1   
    12    8    9 ar  
    13    8   12 ar  
    14    9   10 ar  
    15    9   22 1   
    16   10   11 ar  
    17   10   23 1   
    18   11   14 ar  
    19   11   24 1   
    20   12   13 1   
    21   12   14 ar  
    22   13   25 1   
    23   14   15 1   
    24   15   16 1   
    25   15   17 1   
@<TRIPOS>SUBSTRUCTURE
     1 0GA         1 TEMP              0 ****  ****    0 ROOT
