@<TRIPOS>MOLECULE
0GA
   25    25     1     0     0
SMALL
bcc


@<TRIPOS>ATOM
      1 OAD         4.7910    0.5200    0.9800 o         1 0GA     -0.838800
      2 CAL         3.6780    0.8850    0.5050 c         1 0GA      0.911800
      3 OAB         3.4080    2.0820    0.2010 o         1 0GA     -0.838800
      4 CAN         2.6350   -0.1920    0.2270 ce        1 0GA      0.034900
      5 CAG         2.8900   -1.2530   -0.5580 c2        1 0GA     -0.250200
      6 CAA         1.9420   -2.3260   -0.9010 c3        1 0GA     -0.049900
      7 OAK         1.4290   -0.0640    0.9310 os        1 0GA     -0.263200
      8 CAP         0.3390    0.3520    0.1680 ca        1 0GA      0.052100
      9 CAI         0.4030    1.5290   -0.5820 ca        1 0GA     -0.136000
     10 CAH        -0.7370    1.9810   -1.2450 ca        1 0GA     -0.205000
     11 CAJ        -1.9300    1.2700   -1.1520 ca        1 0GA     -0.097000
     12 CAO        -0.8720   -0.3810    0.2570 ca        1 0GA      0.151100
     13 OAF        -0.8360   -1.5280    1.0040 oh        1 0GA     -0.534100
     14 CAQ        -2.0230    0.0900   -0.4060 ca        1 0GA     -0.219600
     15 CAM        -3.3580   -0.6190   -0.3600 c         1 0GA      0.916200
     16 OAC        -4.3340   -0.1230   -0.9940 o         1 0GA     -0.855300
     17 OAE        -3.4750   -1.6940    0.3110 o         1 0GA     -0.855300
     18 H2          3.9020   -1.3450   -0.9820 ha        1 0GA      0.113000
     19 H3          0.9680   -2.1950   -0.3630 hc        1 0GA      0.027033
     20 H4          1.7410   -2.3360   -2.0020 hc        1 0GA      0.027033
     21 H5          2.3690   -3.3230   -0.6220 hc        1 0GA      0.027033
     22 H6          1.3660    2.0730   -0.6210 ha        1 0GA      0.185000
     23 H7         -0.6890    2.9040   -1.8370 ha        1 0GA      0.098000
     24 H8         -2.8370    1.6200   -1.6690 ha        1 0GA      0.135000
     25 H9         -1.7330   -1.9190    1.0150 ho        1 0GA      0.464000
@<TRIPOS>BOND
     1    1    2 1   
     2    2    3 1   
     3    2    4 1   
     4    4    5 2   
     5    4    7 1   
     6    5    6 1   
     7    5   18 1   
     8    6   19 1   
     9    6   20 1   
    10    6   21 1   
    11    7    8 1   
    12    8    9 ar  
    13    8   12 ar  
    14    9   10 ar  
    15    9   22 1   
    16   10   11 ar  
    17   10   23 1   
    18   11   14 ar  
    19   11   24 1   
    20   12   13 1   
    21   12   14 ar  
    22   13   25 1   
    23   14   15 1   
    24   15   16 1   
    25   15   17 1   
@<TRIPOS>SUBSTRUCTURE
     1 0GA         1 TEMP              0 ****  ****    0 ROOT
