@<TRIPOS>MOLECULE
0GD
   48    50     1     0     0
SMALL
bcc


@<TRIPOS>ATOM
      1 C08         0.0880    0.6400   -0.0070 c3        1 0GD     -0.067800
      2 C04         1.5150    0.2460   -0.0350 ca        1 0GD      0.005700
      3 C05         2.2870    0.3100    1.1380 ca        1 0GD     -0.285300
      4 C03         2.1090   -0.2020   -1.2080 ca        1 0GD     -0.287300
      5 C02         3.4900   -0.5880   -1.1900 ca        1 0GD      0.664200
      6 N07         4.0580   -1.1320   -2.3380 nh        1 0GD     -0.941500
      7 N01         4.2500   -0.4990   -0.0530 nb        1 0GD     -0.733000
      8 C06         3.6370   -0.0740    1.0780 cp        1 0GD      0.467800
      9 C09         4.4490   -0.0100    2.3110 cp        1 0GD     -0.069500
     10 C10         5.7790    0.4350    2.2740 ca        1 0GD     -0.102500
     11 C11         6.5320    0.4870    3.4440 ca        1 0GD     -0.103500
     12 C14         3.8870   -0.4080    3.5330 ca        1 0GD     -0.102500
     13 C13         4.6400   -0.3540    4.7030 ca        1 0GD     -0.103500
     14 C12         5.9650    0.0950    4.6630 ca        1 0GD     -0.202300
     15 C15         6.7870    0.1080    5.9020 c3        1 0GD      0.179100
     16 N16         6.7550    1.4680    6.5450 n4        1 0GD     -0.768000
     17 C17         7.5890    1.5260    7.7790 c3        1 0GD      0.097800
     18 C18         7.5650    2.9030    8.4430 c3        1 0GD     -0.051100
     19 C19         8.4600    2.8830    9.6340 ca        1 0GD     -0.097300
     20 C20         9.8440    2.9550    9.4560 ca        1 0GD     -0.168000
     21 C21        10.6870    2.9560   10.5810 ca        1 0GD      0.144900
     22 F25        12.0270    3.0220   10.4120 f         1 0GD     -0.121900
     23 C22        10.1420    2.8890   11.8790 ca        1 0GD     -0.138000
     24 C23         8.7610    2.8230   12.0340 ca        1 0GD     -0.092000
     25 C24         7.9190    2.8180   10.9210 ca        1 0GD     -0.130000
     26 H081       -0.2810    0.8940   -1.0310 hc        1 0GD      0.057033
     27 H082       -0.5290   -0.2060    0.3890 hc        1 0GD      0.057033
     28 H083       -0.0660    1.5270    0.6560 hc        1 0GD      0.057033
     29 H05         1.8410    0.6630    2.0760 ha        1 0GD      0.141000
     30 H03         1.5260   -0.2700   -2.1370 ha        1 0GD      0.153000
     31 H071        3.6200   -0.8860   -3.1940 hn        1 0GD      0.424300
     32 H072        5.0450   -1.2410   -2.3650 hn        1 0GD      0.424300
     33 H10         6.2350    0.7320    1.3150 ha        1 0GD      0.168000
     34 H14         2.8500   -0.7810    3.5650 ha        1 0GD      0.168000
     35 H11         7.5810    0.8180    3.4000 ha        1 0GD      0.137000
     36 H13         4.1940   -0.6870    5.6530 ha        1 0GD      0.137000
     37 H151        7.8660   -0.1340    5.6740 hx        1 0GD      0.106700
     38 H152        6.4000   -0.6350    6.6570 hx        1 0GD      0.106700
     39 H16         5.7840    1.7060    6.7740 hn        1 0GD      0.447800
     40 H171        7.2020    0.7470    8.4980 hx        1 0GD      0.108700
     41 H172        8.6490    1.2570    7.4990 hx        1 0GD      0.108700
     42 H181        7.9190    3.6890    7.7220 hc        1 0GD      0.071700
     43 H182        6.5180    3.1670    8.7510 hc        1 0GD      0.071700
     44 H20        10.2840    3.0260    8.4510 ha        1 0GD      0.145000
     45 H24         6.8290    2.7750   11.0640 ha        1 0GD      0.140000
     46 H22        10.8130    2.8950   12.7520 ha        1 0GD      0.169000
     47 H23         8.3290    2.7780   13.0470 ha        1 0GD      0.157000
     48 H162        7.0910    2.1630    5.8680 hn        1 0GD      0.447800
@<TRIPOS>BOND
     1    1    2 1   
     2    1   26 1   
     3    1   27 1   
     4    1   28 1   
     5    2    3 ar  
     6    2    4 ar  
     7    3    8 ar  
     8    3   29 1   
     9    4    5 ar  
    10    4   30 1   
    11    5    6 1   
    12    5    7 ar  
    13    6   31 1   
    14    6   32 1   
    15    7    8 ar  
    16    8    9 1   
    17    9   10 ar  
    18    9   12 ar  
    19   10   11 ar  
    20   10   33 1   
    21   11   14 ar  
    22   11   35 1   
    23   12   13 ar  
    24   12   34 1   
    25   13   14 ar  
    26   13   36 1   
    27   14   15 1   
    28   15   16 1   
    29   15   37 1   
    30   15   38 1   
    31   16   17 1   
    32   16   39 1   
    33   16   48 1   
    34   17   18 1   
    35   17   40 1   
    36   17   41 1   
    37   18   19 1   
    38   18   42 1   
    39   18   43 1   
    40   19   20 ar  
    41   19   25 ar  
    42   20   21 ar  
    43   20   44 1   
    44   21   22 1   
    45   21   23 ar  
    46   23   24 ar  
    47   23   46 1   
    48   24   25 ar  
    49   24   47 1   
    50   25   45 1   
@<TRIPOS>SUBSTRUCTURE
     1 0GD         1 TEMP              0 ****  ****    0 ROOT
