@<TRIPOS>MOLECULE
0GD
   48    50     1     0     0
SMALL
bcc


@<TRIPOS>ATOM
      1 C08         0.2900   -1.2170   -0.3010 c3        1 0GD     -0.067800
      2 C04         1.6140   -0.5650   -0.1770 ca        1 0GD      0.004700
      3 C05         2.2750   -0.5460    1.0620 ca        1 0GD     -0.279300
      4 C03         2.2170    0.0440   -1.2700 ca        1 0GD     -0.285300
      5 C02         3.4950    0.6730   -1.1050 ca        1 0GD      0.658200
      6 N07         4.0520    1.3710   -2.1750 nv        1 0GD     -0.937500
      7 N01         4.1530    0.6670    0.0970 nb        1 0GD     -0.735000
      8 C06         3.5300    0.0780    1.1470 cp        1 0GD      0.464800
      9 C09         4.2270    0.0960    2.4490 cp        1 0GD     -0.069500
     10 C10         5.6070   -0.1430    2.5280 ca        1 0GD     -0.102500
     11 C11         6.2520   -0.1190    3.7610 ca        1 0GD     -0.103000
     12 C14         3.5020    0.3570    3.6220 ca        1 0GD     -0.102500
     13 C13         4.1470    0.3840    4.8540 ca        1 0GD     -0.103000
     14 C12         5.5250    0.1500    4.9280 ca        1 0GD     -0.202300
     15 C15         6.2150    0.1610    6.2460 c3        1 0GD      0.179100
     16 N16         6.7960    1.5210    6.5230 ny        1 0GD     -0.768000
     17 C17         7.5130    1.5720    7.8290 c3        1 0GD      0.097800
     18 C18         8.1110    2.9490    8.1190 c3        1 0GD     -0.051100
     19 C19         8.8450    2.8950    9.4140 ca        1 0GD     -0.097300
     20 C20        10.1050    2.2920    9.4660 ca        1 0GD     -0.168000
     21 C21        10.8070    2.2590   10.6840 ca        1 0GD      0.144900
     22 F25        12.0240    1.6740   10.7380 f         1 0GD     -0.121900
     23 C22        10.2470    2.8320   11.8430 ca        1 0GD     -0.138000
     24 C23         8.9950    3.4310   11.7690 ca        1 0GD     -0.092000
     25 C24         8.2910    3.4650   10.5640 ca        1 0GD     -0.130000
     26 H081       -0.4990   -0.5620    0.1490 hc        1 0GD      0.057700
     27 H082        0.2820   -2.1960    0.2380 hc        1 0GD      0.057700
     28 H083        0.0260   -1.3990   -1.3720 hc        1 0GD      0.057700
     29 H05         1.8220   -1.0260    1.9400 ha        1 0GD      0.145000
     30 H03         1.7180    0.0520   -2.2500 ha        1 0GD      0.154000
     31 H071        3.7530    1.0760   -3.0760 hn        1 0GD      0.420800
     32 H072        5.0060    1.6410   -2.1040 hn        1 0GD      0.420800
     33 H10         6.1840   -0.3500    1.6110 ha        1 0GD      0.168000
     34 H14         2.4170    0.5460    3.5640 ha        1 0GD      0.168000
     35 H11         7.3310   -0.3260    3.8150 ha        1 0GD      0.137000
     36 H13         3.5660    0.5780    5.7690 ha        1 0GD      0.137000
     37 H151        5.5000   -0.0810    7.0840 hx        1 0GD      0.106200
     38 H152        7.0640   -0.5810    6.2660 hx        1 0GD      0.106200
     39 H16         6.0390    2.2150    6.5180 hn        1 0GD      0.448800
     40 H171        8.3340    0.7980    7.8070 hx        1 0GD      0.108700
     41 H172        6.7810    1.2920    8.6390 hx        1 0GD      0.108700
     42 H181        8.8190    3.2480    7.3000 hc        1 0GD      0.072200
     43 H182        7.2980    3.7230    8.1690 hc        1 0GD      0.072200
     44 H20        10.5640    1.8570    8.5660 ha        1 0GD      0.145000
     45 H24         7.3050    3.9520   10.5230 ha        1 0GD      0.140000
     46 H22        10.8090    2.8040   12.7900 ha        1 0GD      0.169000
     47 H23         8.5550    3.8880   12.6710 ha        1 0GD      0.157000
     48 H162        7.4410    1.7670    5.7630 hn        1 0GD      0.448800
@<TRIPOS>BOND
     1    1    2 1   
     2    1   26 1   
     3    1   27 1   
     4    1   28 1   
     5    2    3 ar  
     6    2    4 ar  
     7    3    8 ar  
     8    3   29 1   
     9    4    5 ar  
    10    4   30 1   
    11    5    6 1   
    12    5    7 ar  
    13    6   31 1   
    14    6   32 1   
    15    7    8 ar  
    16    8    9 1   
    17    9   10 ar  
    18    9   12 ar  
    19   10   11 ar  
    20   10   33 1   
    21   11   14 ar  
    22   11   35 1   
    23   12   13 ar  
    24   12   34 1   
    25   13   14 ar  
    26   13   36 1   
    27   14   15 1   
    28   15   16 1   
    29   15   37 1   
    30   15   38 1   
    31   16   17 1   
    32   16   39 1   
    33   16   48 1   
    34   17   18 1   
    35   17   40 1   
    36   17   41 1   
    37   18   19 1   
    38   18   42 1   
    39   18   43 1   
    40   19   20 ar  
    41   19   25 ar  
    42   20   21 ar  
    43   20   44 1   
    44   21   22 1   
    45   21   23 ar  
    46   23   24 ar  
    47   23   46 1   
    48   24   25 ar  
    49   24   47 1   
    50   25   45 1   
@<TRIPOS>SUBSTRUCTURE
     1 0GD         1 TEMP              0 ****  ****    0 ROOT
