@<TRIPOS>MOLECULE
0GE
   79    73     1     0     0
SMALL
bcc


@<TRIPOS>ATOM
      1 C11         0.9440   -5.2310    0.4740 c1        1 0GE     -0.795000
      2 C21        -0.4550   -5.0470    0.5130 c1        1 0GE      0.000000
      3 C3         -1.2780   -6.0810    0.9300 c1        1 0GE     -0.125250
      4 C4         -0.7220   -7.3090    1.3130 c1        1 0GE     -0.125250
      5 C4A         0.7010   -7.4960    1.2740 c1        1 0GE     -0.056000
      6 C5          1.2700   -8.7580    1.6300 c1        1 0GE      0.045000
      7 C6          2.6670   -8.9480    1.5560 c1        1 0GE     -0.125250
      8 C7          3.4780   -7.9210    1.1430 c1        1 0GE     -0.125250
      9 C8          2.9150   -6.6710    0.7900 c1        1 0GE     -0.143000
     10 C8A         1.5100   -6.4770    0.8630 c1        1 0GE      0.063000
     11 N3          0.8400  -10.0820    2.0140 n3        1 0GE     -0.243000
     12 CM1         0.7140  -11.1200    1.0130 c3        1 0GE     -0.110000
     13 CM2         0.3710  -10.3230    3.3590 c3        1 0GE     -0.110000
     14 S           1.6620   -3.7920   -0.3330 s4        1 0GE      2.061800
     15 O1S         3.0740   -3.7000   -0.0740 o         1 0GE     -0.542900
     16 O2S         1.6490   -3.9340   -1.7490 o         1 0GE     -0.542900
     17 N           0.8570   -2.3860    0.1480 n2        1 0GE     -0.875000
     18 CA          1.4650   -1.1270   -0.0430 c3        1 0GE      0.033000
     19 C           1.0160   -0.1740    1.0580 c2        1 0GE      0.270000
     20 O           0.6230   -0.6180    2.1240 o         1 0GE     -0.393000
     21 CB          1.0540   -0.5590   -1.4030 c3        1 0GE     -0.157000
     22 CG          1.9430   -1.1790   -2.5210 c3        1 0GE     -0.219000
     23 CD          1.5450   -0.5890   -3.8710 c2        1 0GE      0.318000
     24 OE1         0.5490   -1.0520   -4.4920 o         1 0GE     -0.583000
     25 OE2         2.2500    0.3070   -4.3960 o         1 0GE     -0.583000
     26 N1          1.2040    1.2310    0.9010 n         1 0GE     -0.362000
     27 CA1         0.3070    2.1580    1.5700 c3        1 0GE     -0.050000
     28 C1          0.3270    3.5280    0.8250 c2        1 0GE      0.271000
     29 O1          1.2210    3.7770    0.0220 o         1 0GE     -0.391000
     30 N2         -0.6670    4.5130    1.1160 n         1 0GE     -0.358000
     31 CA2        -0.6660    5.7490    0.4220 c3        1 0GE      0.037000
     32 C2         -0.2550    6.8340    1.3470 c3        1 0GE     -0.004000
     33 O2         -1.3860    7.5200    1.7900 oh        1 0GE     -0.315000
     34 CB1        -2.1070    6.0420   -0.1230 c3        1 0GE     -0.164000
     35 CG1        -2.0250    6.4690   -1.5880 c3        1 0GE     -0.157000
     36 CD1        -3.2300    7.3940   -1.9270 c3        1 0GE     -0.082000
     37 NE         -2.7810    8.4810   -2.7510 n3        1 0GE     -0.319000
     38 CZ         -3.6700    9.5420   -3.0770 c2        1 0GE      0.169000
     39 NH1        -4.5200    9.4080   -4.0870 n1        1 0GE     -0.367000
     40 NH2        -3.6460   10.7830   -2.2990 n3        1 0GE     -0.356000
     41 CM          0.6790    7.8070    0.6120 c3        1 0GE     -0.148000
     42 CL          0.7730    9.3010    1.4940 cl        1 0GE     -0.143000
     43 H21        -0.8580   -4.1560    0.2350 ha        1 0GE      0.174000
     44 H3         -2.2820   -5.9380    0.9860 ha        1 0GE      0.137000
     45 H4         -1.3120   -8.0490    1.6110 ha        1 0GE      0.137000
     46 H6          3.0670   -9.8330    1.8060 ha        1 0GE      0.137000
     47 H7          4.4820   -8.0580    1.0900 ha        1 0GE      0.137000
     48 H8          3.5060   -5.9240    0.4870 ha        1 0GE      0.158000
     49 HM11       -0.2260  -11.3920    0.9400 h1        1 0GE      0.074500
     50 HM12        1.2650  -11.9020    1.2780 h1        1 0GE      0.074500
     51 HM13        1.0280  -10.7740    0.1370 h1        1 0GE      0.074500
     52 HM21       -0.5700  -10.6070    3.3320 h1        1 0GE      0.074500
     53 HM22        0.4490   -9.4930    3.8880 h1        1 0GE      0.074500
     54 HM23        0.9180  -11.0340    3.7760 h1        1 0GE      0.074500
     55 H           0.0370   -2.4470    0.6120 hn        1 0GE      0.260000
     56 HA          2.4420   -1.2270   -0.0110 h1        1 0GE      0.131000
     57 HB2         1.1700    0.4140   -1.3980 hc        1 0GE      0.103500
     58 HB3         0.1130   -0.7740   -1.5760 hc        1 0GE      0.103500
     59 HG2         1.8180   -2.1410   -2.5390 hc        1 0GE      0.081000
     60 HG3         2.8970   -0.9720   -2.3380 hc        1 0GE      0.081000
     61 H1          1.9530    1.5440    0.4870 hn        1 0GE      0.235000
     62 HA2        -0.6260    1.7860    1.5640 h1        1 0GE      0.126000
     63 HA3         0.6050    2.2880    2.5120 h1        1 0GE      0.126000
     64 H2         -1.2950    4.3480    1.7470 hn        1 0GE      0.253000
     65 HA1        -0.0340    5.7020   -0.3310 h1        1 0GE      0.121000
     66 H37         0.2250    6.4400    2.1320 h1        1 0GE      0.095000
     67 H38        -1.2200    7.8810    2.6010 ho        1 0GE      0.202000
     68 HB21       -2.6580    5.2290   -0.0480 hc        1 0GE      0.096500
     69 HB31       -2.5080    6.7520    0.3940 hc        1 0GE      0.096500
     70 HG21       -1.1920    6.9520   -1.7420 hc        1 0GE      0.081500
     71 HG31       -2.0520    5.6830   -2.1560 hc        1 0GE      0.081500
     72 HD2        -3.9210    6.8730   -2.4110 h1        1 0GE      0.091500
     73 HD3        -3.6070    7.7470   -1.1060 h1        1 0GE      0.091500
     74 HE         -1.9490    8.4640   -3.1090 hn        1 0GE      0.206000
     75 HH1        -4.5350    8.6160   -4.5840 DU        1 0GE      0.133000
     76 HH21       -3.5490   10.7510   -1.3790 hn        1 0GE      0.217500
     77 HH22       -3.7050   11.6000   -2.7300 hn        1 0GE      0.217500
     78 HM1         1.5880    7.4060    0.5440 h1        1 0GE      0.122000
     79 HM2         0.3360    7.9750   -0.2700 h1        1 0GE      0.122000
@<TRIPOS>BOND
     1    1    2 1   
     2    1   14 1   
     3    2   43 1   
     4    3    4 1   
     5    3   44 1   
     6    4   45 1   
     7    5    6 1   
     8    5   10 1   
     9    6   11 1   
    10    7    8 1   
    11    7   46 1   
    12    8   47 1   
    13    9   10 1   
    14    9   48 1   
    15   11   12 1   
    16   11   13 1   
    17   12   49 1   
    18   12   50 1   
    19   12   51 1   
    20   13   52 1   
    21   13   53 1   
    22   13   54 1   
    23   14   15 1   
    24   14   16 1   
    25   17   18 1   
    26   17   55 1   
    27   18   19 1   
    28   18   21 1   
    29   18   56 1   
    30   19   20 1   
    31   19   26 1   
    32   21   22 1   
    33   21   57 1   
    34   21   58 1   
    35   22   23 1   
    36   22   59 1   
    37   22   60 1   
    38   23   24 1   
    39   23   25 1   
    40   26   27 1   
    41   26   61 1   
    42   27   28 1   
    43   27   62 1   
    44   27   63 1   
    45   28   29 1   
    46   28   30 1   
    47   30   31 1   
    48   30   64 1   
    49   31   32 1   
    50   31   34 1   
    51   31   65 1   
    52   32   33 1   
    53   32   41 1   
    54   32   66 1   
    55   33   67 1   
    56   34   35 1   
    57   34   68 1   
    58   34   69 1   
    59   35   36 1   
    60   35   70 1   
    61   35   71 1   
    62   36   37 1   
    63   36   72 1   
    64   36   73 1   
    65   37   38 1   
    66   37   74 1   
    67   38   39 1   
    68   38   40 1   
    69   40   76 1   
    70   40   77 1   
    71   41   42 1   
    72   41   78 1   
    73   41   79 1   
@<TRIPOS>SUBSTRUCTURE
     1 0GE         1 TEMP              0 ****  ****    0 ROOT
