@<TRIPOS>MOLECULE
0GE
   79    80     1     0     0
SMALL
bcc


@<TRIPOS>ATOM
      1 C11        -2.5180   -1.6660   -0.9240 ca        1 0GE     -0.376500
      2 C21        -1.9220   -2.7650   -1.5150 ca        1 0GE      0.006000
      3 C3         -2.4710   -4.0540   -1.3870 ca        1 0GE     -0.190000
      4 C4         -3.6000   -4.2480   -0.6260 ca        1 0GE     -0.034000
      5 C4A        -4.2380   -3.1580    0.0240 ca        1 0GE     -0.064000
      6 C5         -5.3960   -3.3420    0.8650 ca        1 0GE      0.115600
      7 C6         -5.9990   -2.2320    1.4390 ca        1 0GE     -0.170000
      8 C7         -5.5070   -0.9330    1.1960 ca        1 0GE     -0.064000
      9 C8         -4.4060   -0.7410    0.4000 ca        1 0GE     -0.164000
     10 C8A        -3.7190   -1.8480   -0.1710 ca        1 0GE      0.066000
     11 N3         -5.9050   -4.6680    1.0510 nh        1 0GE     -0.639000
     12 CM1        -5.1480   -5.4520    2.0050 c3        1 0GE      0.164100
     13 CM2        -7.3320   -4.7470    1.2630 c3        1 0GE      0.164100
     14 S          -1.7750   -0.1580   -1.1260 sy        1 0GE      1.523200
     15 O1S        -0.6250   -0.3380   -1.9340 o         1 0GE     -0.675300
     16 O2S        -2.6670    0.8010   -1.6450 o         1 0GE     -0.675300
     17 N          -1.3440    0.1930    0.3880 n3        1 0GE     -0.911100
     18 CA         -1.0220    1.5210    0.8340 c3        1 0GE      0.181500
     19 C           0.5170    1.6990    0.8920 c         1 0GE      0.645100
     20 O           1.2510    0.9260    1.5430 o         1 0GE     -0.628100
     21 CB         -1.5670    1.8760    2.2280 c3        1 0GE     -0.070400
     22 CG         -3.0710    1.8120    2.2730 c3        1 0GE     -0.213400
     23 CD         -3.6430    2.5510    3.5020 c         1 0GE      0.914600
     24 OE1        -3.0060    3.5400    3.9610 o         1 0GE     -0.842800
     25 OE2        -4.7400    2.1260    3.9610 o         1 0GE     -0.842800
     26 N1          1.0620    2.7600    0.1940 n         1 0GE     -0.569900
     27 CA1         2.4540    3.0670    0.2260 c3        1 0GE      0.029000
     28 C1          3.3360    2.2620   -0.7490 c         1 0GE      0.635100
     29 O1          4.0700    2.8660   -1.5590 o         1 0GE     -0.632100
     30 N2          3.2910    0.8880   -0.6690 n         1 0GE     -0.555900
     31 CA2         4.2460    0.0590   -1.3650 c3        1 0GE      0.104700
     32 C2          3.6200   -1.2970   -1.8080 c3        1 0GE      0.125100
     33 O2          4.6700   -1.9730   -2.4940 oh        1 0GE     -0.606800
     34 CB1         5.5050   -0.2580   -0.5350 c3        1 0GE     -0.096400
     35 CG1         6.2560    0.9990   -0.1570 c3        1 0GE     -0.095400
     36 CD1         7.6520    0.6360    0.3530 c3        1 0GE      0.186800
     37 NE          8.3780    1.8010    0.8230 nh        1 0GE     -0.798200
     38 CZ          9.7520    1.6220    1.1970 c2        1 0GE      0.745100
     39 NH1        10.2840    0.4250    1.2610 n2        1 0GE     -0.873100
     40 NH2        10.4630    2.8420    1.4840 nh        1 0GE     -0.932800
     41 CM          2.4110   -1.0900   -2.7090 c3        1 0GE      0.005000
     42 CL          1.7530   -2.6390   -3.2500 cl        1 0GE     -0.226400
     43 H21        -0.9910   -2.6360   -2.1030 ha        1 0GE      0.168000
     44 H3         -1.9840   -4.8990   -1.8950 ha        1 0GE      0.135000
     45 H4         -4.0190   -5.2630   -0.5280 ha        1 0GE      0.144000
     46 H6         -6.8740   -2.3370    2.1000 ha        1 0GE      0.138000
     47 H7         -5.9990   -0.0690    1.6770 ha        1 0GE      0.174000
     48 H8         -4.0620    0.2900    0.2000 ha        1 0GE      0.169000
     49 HM11       -5.3450   -5.1560    3.0720 h1        1 0GE      0.035533
     50 HM12       -5.4340   -6.5290    1.8760 h1        1 0GE      0.035533
     51 HM13       -4.0520   -5.3360    1.7990 h1        1 0GE      0.035533
     52 HM21       -7.8570   -4.0870    0.5240 h1        1 0GE      0.035533
     53 HM22       -7.6460   -5.8110    1.0910 h1        1 0GE      0.035533
     54 HM23       -7.6490   -4.4500    2.3000 h1        1 0GE      0.035533
     55 H          -1.3170   -0.4760    1.1220 hn        1 0GE      0.463800
     56 HA         -1.4730    2.2490    0.0910 h1        1 0GE      0.073700
     57 HB2        -1.1240    1.1890    2.9940 hc        1 0GE      0.071700
     58 HB3        -1.2410    2.9220    2.4820 hc        1 0GE      0.071700
     59 HG2        -3.5100    2.2960    1.3630 hc        1 0GE      0.027200
     60 HG3        -3.4210    0.7490    2.3030 hc        1 0GE      0.027200
     61 H1          0.4790    3.3190   -0.3810 hn        1 0GE      0.324500
     62 HA2         2.5980    4.1550   -0.0340 h1        1 0GE      0.081200
     63 HA3         2.8570    2.8800    1.2650 h1        1 0GE      0.081200
     64 H2          2.7780    0.4680    0.0770 hn        1 0GE      0.338500
     65 HA1         4.5710    0.6100   -2.2990 h1        1 0GE      0.091700
     66 H37         3.3290   -1.8990   -0.9020 h1        1 0GE      0.049700
     67 H38         4.2850   -2.7730   -2.8760 ho        1 0GE      0.411000
     68 HB21        5.2240   -0.8290    0.3880 hc        1 0GE      0.058700
     69 HB31        6.1620   -0.9240   -1.1570 hc        1 0GE      0.058700
     70 HG21        6.3290    1.6770   -1.0500 hc        1 0GE      0.055200
     71 HG31        5.6900    1.5580    0.6330 hc        1 0GE      0.055200
     72 HD2         7.5580   -0.0770    1.2210 h1        1 0GE      0.052200
     73 HD3         8.2070    0.0970   -0.4690 h1        1 0GE      0.052200
     74 HE          8.2500    2.5890    0.2160 hn        1 0GE      0.392800
     75 HH1        11.2110    0.3910    1.6240 hn        1 0GE      0.383400
     76 HH21        9.8860    3.6440    1.6200 hn        1 0GE      0.384300
     77 HH22       11.1200    2.7390    2.2280 hn        1 0GE      0.384300
     78 HM1         1.5740   -0.5710   -2.1770 h1        1 0GE      0.104700
     79 HM2         2.6920   -0.5310   -3.6320 h1        1 0GE      0.104700
@<TRIPOS>BOND
     1    1    2 ar  
     2    1   10 ar  
     3    1   14 1   
     4    2    3 ar  
     5    2   43 1   
     6    3    4 ar  
     7    3   44 1   
     8    4    5 ar  
     9    4   45 1   
    10    5    6 ar  
    11    5   10 ar  
    12    6    7 ar  
    13    6   11 1   
    14    7    8 ar  
    15    7   46 1   
    16    8    9 ar  
    17    8   47 1   
    18    9   10 ar  
    19    9   48 1   
    20   11   12 1   
    21   11   13 1   
    22   12   49 1   
    23   12   50 1   
    24   12   51 1   
    25   13   52 1   
    26   13   53 1   
    27   13   54 1   
    28   14   15 2   
    29   14   16 2   
    30   14   17 1   
    31   17   18 1   
    32   17   55 1   
    33   18   19 1   
    34   18   21 1   
    35   18   56 1   
    36   19   20 2   
    37   19   26 1   
    38   21   22 1   
    39   21   57 1   
    40   21   58 1   
    41   22   23 1   
    42   22   59 1   
    43   22   60 1   
    44   23   24 1   
    45   23   25 1   
    46   26   27 1   
    47   26   61 1   
    48   27   28 1   
    49   27   62 1   
    50   27   63 1   
    51   28   29 2   
    52   28   30 1   
    53   30   31 1   
    54   30   64 1   
    55   31   32 1   
    56   31   34 1   
    57   31   65 1   
    58   32   33 1   
    59   32   41 1   
    60   32   66 1   
    61   33   67 1   
    62   34   35 1   
    63   34   68 1   
    64   34   69 1   
    65   35   36 1   
    66   35   70 1   
    67   35   71 1   
    68   36   37 1   
    69   36   72 1   
    70   36   73 1   
    71   37   38 1   
    72   37   74 1   
    73   38   39 2   
    74   38   40 1   
    75   39   75 1   
    76   40   76 1   
    77   40   77 1   
    78   41   42 1   
    79   41   78 1   
    80   41   79 1   
@<TRIPOS>SUBSTRUCTURE
     1 0GE         1 TEMP              0 ****  ****    0 ROOT
