@<TRIPOS>MOLECULE
0GF
   17    12     1     0     0
SMALL
bcc


@<TRIPOS>ATOM
      1 C23        -2.8030   -0.0620   -0.5380 c1        1 0GF      0.356000
      2 C24        -1.2910   -0.0060   -0.5280 c1        1 0GF     -0.089000
      3 C25        -0.6050   -0.0450    0.6760 c1        1 0GF     -0.122000
      4 C26         0.7800   -0.0190    0.6850 c1        1 0GF     -0.126000
      5 C27         1.4800    0.0470   -0.5100 c1        1 0GF     -0.126000
      6 C28         0.7940    0.0860   -1.7130 c1        1 0GF     -0.122000
      7 C29        -0.5920    0.0600   -1.7220 c1        1 0GF     -0.111000
      8 C30         1.5280   -0.0180    2.0000 c2        1 0GF     -0.171000
      9 O7         -3.3940   -1.1480   -0.3000 o         1 0GF     -0.561000
     10 BR          3.3920    0.0460   -0.4990 br        1 0GF     -0.026000
     11 H24        -1.0980   -0.1080    1.5170 ha        1 0GF      0.138500
     12 H25         1.2860    0.1390   -2.5540 ha        1 0GF      0.138500
     13 H26        -1.0750    0.1040   -2.5690 ha        1 0GF      0.156000
     14 H27         1.9870   -0.8760    2.1150 ha        1 0GF      0.075000
     15 H28         0.8950    0.1150    2.7360 ha        1 0GF      0.075000
     16 H29         2.1870    0.7080    2.0010 ha        1 0GF      0.075000
     17 OXT        -3.4700    0.9740   -0.7960 o         1 0GF     -0.561000
@<TRIPOS>BOND
     1    1    9 1   
     2    1   17 1   
     3    2    7 1   
     4    3    4 1   
     5    3   11 1   
     6    4    5 1   
     7    5    6 1   
     8    6   12 1   
     9    7   13 1   
    10    8   14 1   
    11    8   15 1   
    12    8   16 1   
@<TRIPOS>SUBSTRUCTURE
     1 0GF         1 TEMP              0 ****  ****    0 ROOT
