@<TRIPOS>MOLECULE
0GF
   17    17     1     0     0
SMALL
bcc


@<TRIPOS>ATOM
      1 C23         3.5250    0.0290   -0.0660 c         1 0GF      0.907200
      2 C24         2.0030    0.0910   -0.0230 ca        1 0GF     -0.109600
      3 C25         1.2480   -1.0830   -0.0330 ca        1 0GF     -0.108000
      4 C26        -0.1520   -1.0490    0.0060 ca        1 0GF     -0.084300
      5 C27        -0.7940    0.1970    0.0550 ca        1 0GF     -0.034900
      6 C28        -0.0450    1.3780    0.0650 ca        1 0GF     -0.136000
      7 C29         1.3450    1.3230    0.0260 ca        1 0GF     -0.111000
      8 C30        -0.9110   -2.3210   -0.0060 c3        1 0GF     -0.045800
      9 O7          4.0680   -1.1110   -0.1100 o         1 0GF     -0.826300
     10 BR         -2.6750    0.3330    0.1100 br        1 0GF     -0.166100
     11 H24         1.7860   -2.0450   -0.0720 ha        1 0GF      0.157000
     12 H25        -0.5510    2.3530    0.1040 ha        1 0GF      0.120000
     13 H26         1.9530    2.2420    0.0330 ha        1 0GF      0.156000
     14 H27        -1.5380   -2.4140    0.9160 hc        1 0GF      0.035700
     15 H28        -1.5880   -2.3670   -0.8960 hc        1 0GF      0.035700
     16 H29        -0.2180   -3.1970   -0.0470 hc        1 0GF      0.035700
     17 OXT         4.1580    1.1220   -0.0550 o         1 0GF     -0.826300
@<TRIPOS>BOND
     1    1    2 1   
     2    1    9 1   
     3    1   17 1   
     4    2    3 ar  
     5    2    7 ar  
     6    3    4 ar  
     7    3   11 1   
     8    4    5 ar  
     9    4    8 1   
    10    5    6 ar  
    11    5   10 1   
    12    6    7 ar  
    13    6   12 1   
    14    7   13 1   
    15    8   14 1   
    16    8   15 1   
    17    8   16 1   
@<TRIPOS>SUBSTRUCTURE
     1 0GF         1 TEMP              0 ****  ****    0 ROOT
