@<TRIPOS>MOLECULE
0GF
   17    16     1     0     0
SMALL
bcc


@<TRIPOS>ATOM
      1 C23        -0.3030   -0.4450    0.1830 c2        1 0GF      0.414000
      2 C24         1.2300   -0.2360   -0.1830 c2        1 0GF     -0.475000
      3 C25         1.9950    0.2150    0.9420 c2        1 0GF      0.048000
      4 C26         3.3450    0.1700    1.0560 c2        1 0GF     -0.197000
      5 C27         4.1990   -0.3920    0.0230 c2        1 0GF     -0.097000
      6 C28         4.1400   -0.0500   -1.2680 c2        1 0GF     -0.198000
      7 C29         1.5640   -0.4270   -1.4310 c1        1 0GF      0.103000
      8 C30         4.0130    0.6830    2.2780 c3        1 0GF     -0.152000
      9 O7         -0.8160   -1.5410   -0.1220 o         1 0GF     -0.512500
     10 BR          5.4340   -1.7280    0.5760 br        1 0GF     -0.034000
     11 H24         1.3910    0.6460    1.7660 ha        1 0GF      0.147000
     12 H25         3.4750    0.7530   -1.6260 ha        1 0GF      0.131000
     13 H26         4.7460   -0.5280   -2.0490 ha        1 0GF      0.131000
     14 H27         4.9140    1.2890    2.0100 hc        1 0GF      0.068000
     15 H28         3.3180    1.3310    2.8690 hc        1 0GF      0.068000
     16 H29         4.3420   -0.1620    2.9330 hc        1 0GF      0.068000
     17 OXT        -0.8360    0.5250    0.7690 o         1 0GF     -0.512500
@<TRIPOS>BOND
     1    1    2 1   
     2    1    9 1   
     3    1   17 1   
     4    2    3 1   
     5    2    7 1   
     6    3    4 1   
     7    3   11 1   
     8    4    5 1   
     9    4    8 1   
    10    5    6 1   
    11    5   10 1   
    12    6   12 1   
    13    6   13 1   
    14    8   14 1   
    15    8   15 1   
    16    8   16 1   
@<TRIPOS>SUBSTRUCTURE
     1 0GF         1 TEMP              0 ****  ****    0 ROOT
