@<TRIPOS>MOLECULE
0GF
   17    16     1     0     0
SMALL
bcc


@<TRIPOS>ATOM
      1 C23        -0.5980    0.7730   -0.5580 c2        1 0GF      0.415000
      2 C24         0.9080    0.2580   -0.4460 c2        1 0GF     -0.485000
      3 C25         1.0850   -0.6220    0.6690 c2        1 0GF      0.055000
      4 C26         2.2600   -0.9390    1.2550 c2        1 0GF     -0.253000
      5 C27         3.5440   -0.4190    0.8760 c2        1 0GF     -0.251000
      6 C28         4.0680   -0.3170   -0.3410 c2        1 0GF     -0.183000
      7 C29         1.7200    0.6450   -1.3900 c1        1 0GF      0.109000
      8 C30         6.2800    0.4910    2.1630 c2        1 0GF     -0.715000
      9 O7         -0.7680    2.0080   -0.6060 o         1 0GF     -0.506500
     10 Br          4.5510    0.2480    2.4430 br        1 0GF      0.561000
     11 H24         0.1470   -1.0720    1.0540 ha        1 0GF      0.144000
     12 H25         3.5510   -0.6900   -1.2400 ha        1 0GF      0.129000
     13 H26         5.0500    0.1380   -0.5300 ha        1 0GF      0.129000
     14 H27         2.2590   -1.6420    2.1050 ha        1 0GF      0.115000
     15 H28         6.9340   -0.3720    2.1680 h4        1 0GF      0.122500
     16 H29         6.6030    1.3960    1.6640 h4        1 0GF      0.122500
     17 OXT        -1.4580   -0.1360   -0.5540 o         1 0GF     -0.506500
@<TRIPOS>BOND
     1    1    2 1   
     2    1    9 1   
     3    1   17 1   
     4    2    3 1   
     5    2    7 1   
     6    3    4 1   
     7    3   11 1   
     8    4    5 1   
     9    4   14 1   
    10    5    6 1   
    11    5   10 1   
    12    6   12 1   
    13    6   13 1   
    14    8   10 1   
    15    8   15 1   
    16    8   16 1   
@<TRIPOS>SUBSTRUCTURE
     1 0GF         1 TEMP              0 ****  ****    0 ROOT
