@<TRIPOS>MOLECULE
0GF
   17    16     1     0     0
SMALL
bcc


@<TRIPOS>ATOM
      1 C23        -0.3060    0.4450    0.2150 c2        1 0GF      0.414000
      2 C24         1.2170    0.1930   -0.1670 c2        1 0GF     -0.475000
      3 C25         2.0020   -0.1840    0.9710 c2        1 0GF      0.048000
      4 C26         3.3540   -0.1450    1.0530 c2        1 0GF     -0.197000
      5 C27         4.1910    0.3290   -0.0360 c2        1 0GF     -0.097000
      6 C28         4.1000   -0.1050   -1.2970 c2        1 0GF     -0.198000
      7 C29         1.5250    0.2880   -1.4320 c1        1 0GF      0.103000
      8 C30         4.0440   -0.5760    2.2960 c3        1 0GF     -0.152000
      9 O7         -0.8150    1.5220   -0.1590 o         1 0GF     -0.512500
     10 BR          5.4510    1.6880    0.3920 br        1 0GF     -0.034000
     11 H24         1.4120   -0.5460    1.8380 ha        1 0GF      0.147000
     12 H25         3.4190   -0.9240   -1.5800 ha        1 0GF      0.131000
     13 H26         4.6930    0.3070   -2.1230 ha        1 0GF      0.131000
     14 H27         4.9330   -1.2100    2.0530 hc        1 0GF      0.068000
     15 H28         4.3950    0.3110    2.8800 hc        1 0GF      0.068000
     16 H29         3.3560   -1.1710    2.9460 hc        1 0GF      0.068000
     17 OXT        -0.8350   -0.4720    0.8840 o         1 0GF     -0.512500
@<TRIPOS>BOND
     1    1    2 1   
     2    1    9 1   
     3    1   17 1   
     4    2    3 1   
     5    2    7 1   
     6    3    4 1   
     7    3   11 1   
     8    4    5 1   
     9    4    8 1   
    10    5    6 1   
    11    5   10 1   
    12    6   12 1   
    13    6   13 1   
    14    8   14 1   
    15    8   15 1   
    16    8   16 1   
@<TRIPOS>SUBSTRUCTURE
     1 0GF         1 TEMP              0 ****  ****    0 ROOT
