@<TRIPOS>MOLECULE
0GG
   34    32     1     0     0
SMALL
bcc


@<TRIPOS>ATOM
      1 N4          1.9630    3.8160    3.6490 n3        1 0GG     -0.315000
      2 N6         -0.2410    2.0590    1.3900 n         1 0GG     -0.335000
      3 C31         1.4300    3.5410    2.3320 c3        1 0GG     -0.149000
      4 C32         2.5150    3.6630    1.3270 c2        1 0GG      0.304000
      5 C33         0.8650    2.1210    2.3000 c3        1 0GG     -0.019000
      6 C34        -0.6900    0.7400    0.8420 c2        1 0GG      0.292000
      7 C35        -1.5650    0.7010   -0.4220 c3        1 0GG     -0.150000
      8 C36        -1.5830   -0.6760   -0.9740 c2        1 0GG     -0.075000
      9 C37        -0.4960   -1.1550   -1.7100 c2        1 0GG     -0.101000
     10 C38        -0.5250   -2.4390   -2.2320 c1        1 0GG      0.019000
     11 C39        -1.6490   -3.2590   -2.0190 c2        1 0GG      0.039000
     12 C40        -2.7180   -2.7860   -1.2940 c1        1 0GG     -0.203000
     13 C41        -2.6890   -1.4840   -0.7650 c1        1 0GG     -0.092000
     14 C42         1.6580   -3.4770   -2.5790 c3        1 0GG     -0.074000
     15 O8          2.5580    4.6940    0.5330 o         1 0GG     -0.576500
     16 O9         -0.3440   -0.3060    1.3850 o         1 0GG     -0.427000
     17 O10         0.4960   -2.8510   -3.1910 o         1 0GG     -0.218000
     18 O11        -1.7290   -4.5400   -2.6650 oh        1 0GG     -0.255000
     19 H4          1.3090    4.2260    4.1690 hn        1 0GG      0.129500
     20 H7         -0.6690    2.8250    1.1400 hn        1 0GG      0.271000
     21 H32         0.7290    4.1740    2.1330 h1        1 0GG      0.089000
     22 H33         1.5550    1.5070    2.0100 h1        1 0GG      0.087500
     23 H34         0.5560    1.8670    3.2220 h1        1 0GG      0.087500
     24 H35        -1.1930    1.3280   -1.1020 hc        1 0GG      0.112000
     25 H36        -2.4930    0.9790   -0.1890 hc        1 0GG      0.112000
     26 H37         0.3100   -0.5710   -1.8610 ha        1 0GG      0.154000
     27 H38        -3.4640   -3.3280   -1.1520 ha        1 0GG      0.128000
     28 H39        -3.4780   -1.1380   -0.2300 ha        1 0GG      0.166000
     29 H40         2.3770   -2.8140   -2.4860 h1        1 0GG      0.079333
     30 H41         1.4240   -3.8120   -1.7200 h1        1 0GG      0.079333
     31 H42         1.9610   -4.2090   -3.1390 h1        1 0GG      0.079333
     32 H45        -1.8430   -5.1740   -2.0540 ho        1 0GG      0.210000
     33 H2          2.2400    2.9790    4.0720 hn        1 0GG      0.129500
     34 OXT         3.4220    2.7990    1.2820 o         1 0GG     -0.576500
@<TRIPOS>BOND
     1    1    3 1   
     2    1   19 1   
     3    1   33 1   
     4    2    5 1   
     5    2    6 1   
     6    2   20 1   
     7    3    4 1   
     8    3    5 1   
     9    3   21 1   
    10    4   15 1   
    11    4   34 1   
    12    5   22 1   
    13    5   23 1   
    14    6    7 1   
    15    6   16 1   
    16    7    8 1   
    17    7   24 1   
    18    7   25 1   
    19    8    9 1   
    20    8   13 1   
    21    9   10 1   
    22    9   26 1   
    23   10   11 1   
    24   11   12 1   
    25   11   18 1   
    26   12   27 1   
    27   13   28 1   
    28   14   17 1   
    29   14   29 1   
    30   14   30 1   
    31   14   31 1   
    32   18   32 1   
@<TRIPOS>SUBSTRUCTURE
     1 0GG         1 TEMP              0 ****  ****    0 ROOT
