@<TRIPOS>MOLECULE
0GG
   34    34     1     0     0
SMALL
bcc


@<TRIPOS>ATOM
      1 N4         -1.7860   -0.9230    1.5330 n3        1 0GG     -0.923800
      2 N6         -1.2520    1.3030   -0.4680 n         1 0GG     -0.522900
      3 C31        -2.2790   -0.9070    0.1640 c3        1 0GG     -0.009500
      4 C32        -3.6170   -1.6860   -0.0750 c         1 0GG      0.898600
      5 C33        -2.4640    0.5170   -0.3990 c3        1 0GG      0.068000
      6 C34        -0.8210    2.0500    0.6120 c         1 0GG      0.644100
      7 C35         0.6030    2.5960    0.5730 c3        1 0GG     -0.116100
      8 C36         1.6390    1.5950    0.2090 ca        1 0GG     -0.089300
      9 C37         1.5280    0.2700    0.6520 ca        1 0GG     -0.154000
     10 C38         2.5190   -0.6540    0.3240 ca        1 0GG      0.055100
     11 C39         3.6390   -0.2560   -0.4430 ca        1 0GG      0.096100
     12 C40         3.7490    1.0710   -0.8730 ca        1 0GG     -0.146000
     13 C41         2.7480    1.9840   -0.5480 ca        1 0GG     -0.133000
     14 C42         1.2480   -2.4950    1.1350 c3        1 0GG      0.115700
     15 O8         -4.0870   -2.3610    0.8820 o         1 0GG     -0.833300
     16 O9         -1.5750    2.3840    1.5510 o         1 0GG     -0.624100
     17 O10         2.5150   -1.9810    0.7160 os        1 0GG     -0.363900
     18 O11         4.6540   -1.1220   -0.7800 oh        1 0GG     -0.507100
     19 H4         -2.1340   -0.1170    2.0230 hn        1 0GG      0.347800
     20 H7         -0.5290    0.8990   -1.0240 hn        1 0GG      0.290500
     21 H32        -1.5000   -1.4440   -0.4560 h1        1 0GG      0.031700
     22 H33        -3.2190    1.0750    0.2220 h1        1 0GG      0.078700
     23 H34        -2.8680    0.4120   -1.4470 h1        1 0GG      0.078700
     24 H35         0.6200    3.4580   -0.1470 hc        1 0GG      0.071200
     25 H36         0.8310    3.0030    1.5970 hc        1 0GG      0.071200
     26 H37         0.6530   -0.0380    1.2510 ha        1 0GG      0.187000
     27 H38         4.6210    1.3730   -1.4680 ha        1 0GG      0.141000
     28 H39         2.8350    3.0230   -0.8970 ha        1 0GG      0.127000
     29 H40         0.9720   -2.0660    2.1290 h1        1 0GG      0.057367
     30 H41         0.4530   -2.2710    0.3830 h1        1 0GG      0.057367
     31 H42         1.4310   -3.5960    1.2140 h1        1 0GG      0.057367
     32 H45         4.3870   -2.0100   -0.4970 ho        1 0GG      0.434000
     33 H2         -2.1720   -1.7360    1.9870 hn        1 0GG      0.347800
     34 OXT        -4.1230   -1.6110   -1.2280 o         1 0GG     -0.833300
@<TRIPOS>BOND
     1    1    3 1   
     2    1   19 1   
     3    1   33 1   
     4    2    5 1   
     5    2    6 1   
     6    2   20 1   
     7    3    4 1   
     8    3    5 1   
     9    3   21 1   
    10    4   15 1   
    11    4   34 1   
    12    5   22 1   
    13    5   23 1   
    14    6    7 1   
    15    6   16 2   
    16    7    8 1   
    17    7   24 1   
    18    7   25 1   
    19    8    9 ar  
    20    8   13 ar  
    21    9   10 ar  
    22    9   26 1   
    23   10   11 ar  
    24   10   17 1   
    25   11   12 ar  
    26   11   18 1   
    27   12   13 ar  
    28   12   27 1   
    29   13   28 1   
    30   14   17 1   
    31   14   29 1   
    32   14   30 1   
    33   14   31 1   
    34   18   32 1   
@<TRIPOS>SUBSTRUCTURE
     1 0GG         1 TEMP              0 ****  ****    0 ROOT
