@<TRIPOS>MOLECULE
0GJ
   53    51     1     0     0
SMALL
bcc


@<TRIPOS>ATOM
      1 N          -1.7540    2.8090   -5.3160 n3        1 0GJ     -0.912800
      2 CA         -0.4750    2.3800   -4.8300 c3        1 0GJ      0.089500
      3 C          -0.3760    2.6710   -3.3550 c         1 0GJ      0.669100
      4 O          -0.0400    3.7700   -2.9780 o         1 0GJ     -0.638100
      5 CB          0.6220    3.1240   -5.5650 c3        1 0GJ     -0.089400
      6 CG          1.0660    2.3090   -6.7780 c3        1 0GJ     -0.165400
      7 CD          2.1280    3.0910   -7.5590 c         1 0GJ      0.909600
      8 OE1         3.3510    2.8810   -7.3380 o         1 0GJ     -0.878300
      9 OE2         1.7780    3.8500   -8.5160 o         1 0GJ     -0.878300
     10 N1         -0.7310    1.6240   -2.3640 n         1 0GJ     -0.563900
     11 CA1        -0.7710    1.9520   -0.9490 c3        1 0GJ      0.028000
     12 C1         -1.0320    0.6810   -0.1280 c         1 0GJ      0.632100
     13 O1         -1.1630   -0.3980   -0.6930 o         1 0GJ     -0.621100
     14 N2         -1.1040    0.7560    1.3100 n         1 0GJ     -0.572900
     15 CA2        -1.4100   -0.4080    2.0710 c3        1 0GJ      0.111700
     16 C2         -2.7390   -0.2250    2.7520 c3        1 0GJ      0.117100
     17 O2         -2.6880   -0.7800    4.0420 oh        1 0GJ     -0.604800
     18 CB1        -0.3210   -0.6310    3.1240 c3        1 0GJ     -0.088400
     19 CG1         0.2540   -2.0020    2.9630 c3        1 0GJ     -0.094400
     20 CD1         1.3510   -2.2410    4.0450 c3        1 0GJ      0.181800
     21 NE          2.0400   -3.4940    3.7680 nh        1 0GJ     -0.801200
     22 CZ          3.1810   -3.8990    4.5990 c2        1 0GJ      1.001100
     23 NH1         2.9680   -4.3370    5.9270 nh        1 0GJ     -0.875800
     24 NH2         4.3990   -3.8530    4.1100 n2        1 0GJ     -0.845100
     25 C3         -3.8180   -0.9170    1.9470 c3        1 0GJ     -0.002000
     26 CL         -5.3530   -0.7820    2.7830 cl        1 0GJ     -0.203400
     27 H          -2.2760    2.0640   -5.5200 hn        1 0GJ      0.355800
     28 H2         -1.6400    3.3210   -6.0720 hn        1 0GJ      0.355800
     29 HA         -0.3750    1.4230   -4.9800 h1        1 0GJ      0.116700
     30 HB2         1.3820    3.2560   -4.9650 hc        1 0GJ      0.058700
     31 HB3         0.2870    3.9910   -5.8600 hc        1 0GJ      0.058700
     32 HG2         0.3040    2.1400   -7.3500 hc        1 0GJ      0.054700
     33 HG3         1.4420    1.4600   -6.4790 hc        1 0GJ      0.054700
     34 H1         -0.9360    0.7600   -2.6490 hn        1 0GJ      0.335500
     35 HA2         0.0780    2.3370   -0.6830 h1        1 0GJ      0.084200
     36 HA3        -1.4910    2.6010   -0.7840 h1        1 0GJ      0.084200
     37 H3         -1.0150    1.5580    1.7270 hn        1 0GJ      0.343500
     38 HA1        -1.4520   -1.1680    1.4900 h1        1 0GJ      0.089700
     39 HB21       -0.7020   -0.5440    4.0030 hc        1 0GJ      0.066700
     40 HB31        0.3810    0.0300    3.0090 hc        1 0GJ      0.066700
     41 HG21        0.6530   -2.0860    2.0700 hc        1 0GJ      0.058200
     42 HG31       -0.4490   -2.6620    3.0650 hc        1 0GJ      0.058200
     43 HD2         0.9330   -2.2860    4.9300 h1        1 0GJ      0.066700
     44 HD3         2.0070   -1.4890    4.0260 h1        1 0GJ      0.066700
     45 HE          1.7770   -4.0160    3.0650 hn        1 0GJ      0.431800
     46 HH11        3.6720   -4.3650    6.5300 hn        1 0GJ      0.455300
     47 HH12        2.1300   -4.5650    6.1930 hn        1 0GJ      0.455300
     48 HH21        4.5440   -3.5710    3.2550 DU        1 0GJ      0.219000
     49 HH22        5.1070   -4.1070    4.6340 hn        1 0GJ      0.510400
     50 H27        -2.9420    0.7260    2.8170 h1        1 0GJ      0.055700
     51 H28        -3.3060   -0.3860    4.5620 ho        1 0GJ      0.416000
     52 H11        -3.8890   -0.4900    1.0540 h1        1 0GJ      0.089200
     53 H21        -3.5870   -1.8650    1.8380 h1        1 0GJ      0.089200
@<TRIPOS>BOND
     1    1    2 1   
     2    1   27 1   
     3    1   28 1   
     4    2    3 1   
     5    2    5 1   
     6    2   29 1   
     7    3    4 2   
     8    3   10 1   
     9    5    6 1   
    10    5   30 1   
    11    5   31 1   
    12    6    7 1   
    13    6   32 1   
    14    6   33 1   
    15    7    8 1   
    16    7    9 1   
    17   10   11 1   
    18   10   34 1   
    19   11   12 1   
    20   11   35 1   
    21   11   36 1   
    22   12   13 2   
    23   12   14 1   
    24   14   15 1   
    25   14   37 1   
    26   15   16 1   
    27   15   18 1   
    28   15   38 1   
    29   16   17 1   
    30   16   25 1   
    31   16   50 1   
    32   17   51 1   
    33   18   19 1   
    34   18   39 1   
    35   18   40 1   
    36   19   20 1   
    37   19   41 1   
    38   19   42 1   
    39   20   21 1   
    40   20   43 1   
    41   20   44 1   
    42   21   22 1   
    43   21   45 1   
    44   22   23 1   
    45   22   24 2   
    46   23   46 1   
    47   23   47 1   
    48   24   49 1   
    49   25   26 1   
    50   25   52 1   
    51   25   53 1   
@<TRIPOS>SUBSTRUCTURE
     1 0GJ         1 TEMP              0 ****  ****    0 ROOT
