@<TRIPOS>MOLECULE
0GJ
   53    52     1     0     0
SMALL
bcc


@<TRIPOS>ATOM
      1 N           4.3160   -0.3220    2.6930 n3        1 0GJ     -0.886800
      2 CA          3.5710   -0.4640    1.4590 c3        1 0GJ      0.108500
      3 C           3.0150    0.8850    0.9320 c         1 0GJ      0.608100
      4 O           3.3920    1.9640    1.4390 o         1 0GJ     -0.632100
      5 CB          2.4490   -1.5080    1.5720 c3        1 0GJ     -0.075400
      6 CG          2.3150   -2.3490    0.3170 c3        1 0GJ     -0.174400
      7 CD          0.8750   -2.4610   -0.1330 c         1 0GJ      0.920600
      8 OE1         0.1460   -1.4190   -0.2600 o         1 0GJ     -0.886800
      9 OE2         0.3720   -3.5930   -0.4180 o         1 0GJ     -0.886800
     10 N1          2.1720    0.8660   -0.1610 n         1 0GJ     -0.563900
     11 CA1         1.6260    2.0670   -0.7090 c3        1 0GJ      0.022000
     12 C1          0.1270    2.3400   -0.5200 c         1 0GJ      0.630100
     13 O1         -0.3410    3.4070   -0.9760 o         1 0GJ     -0.635100
     14 N2         -0.6730    1.4420    0.1510 n         1 0GJ     -0.561900
     15 CA2        -2.1140    1.5540    0.1330 c3        1 0GJ      0.109700
     16 C2         -2.6580    2.1010    1.4890 c3        1 0GJ      0.124100
     17 O2         -4.0750    1.9940    1.4170 oh        1 0GJ     -0.610800
     18 CB1        -2.7930    0.2070   -0.1660 c3        1 0GJ     -0.092400
     19 CG1        -2.4850   -0.2710   -1.5670 c3        1 0GJ     -0.092400
     20 CD1        -3.0750   -1.6570   -1.8300 c3        1 0GJ      0.023300
     21 NE         -2.3340   -2.7030   -1.1610 nh        1 0GJ     -0.369100
     22 CZ         -2.7490   -4.0000   -1.1220 cz        1 0GJ      0.477300
     23 NH1        -3.8470   -4.4280   -1.8660 nh        1 0GJ     -0.499700
     24 NH2        -2.1120   -4.9130   -0.2870 nh        1 0GJ     -0.499700
     25 C3         -2.2320    3.5510    1.6750 c3        1 0GJ      0.003000
     26 CL         -2.6220    4.1340    3.2880 cl        1 0GJ     -0.210400
     27 H           4.9680    0.4380    2.6100 hn        1 0GJ      0.357800
     28 H2          3.6970   -0.1240    3.4560 hn        1 0GJ      0.357800
     29 HA          4.3210   -0.8060    0.6800 h1        1 0GJ      0.080700
     30 HB2         2.6550   -2.1950    2.4370 hc        1 0GJ      0.059200
     31 HB3         1.4790   -0.9900    1.7950 hc        1 0GJ      0.059200
     32 HG2         2.9000   -1.9150   -0.5360 hc        1 0GJ      0.057700
     33 HG3         2.7200   -3.3780    0.5010 hc        1 0GJ      0.057700
     34 H1          1.7370    0.0020   -0.4200 hn        1 0GJ      0.349500
     35 HA2         2.1660    2.9620   -0.2790 h1        1 0GJ      0.092200
     36 HA3         1.7860    2.0550   -1.8270 h1        1 0GJ      0.092200
     37 H3         -0.3130    0.5430    0.4000 hn        1 0GJ      0.350500
     38 HA1        -2.4160    2.2980   -0.6660 h1        1 0GJ      0.085700
     39 HB21       -2.4510   -0.5550    0.5840 hc        1 0GJ      0.063700
     40 HB31       -3.9010    0.3370   -0.0430 hc        1 0GJ      0.063700
     41 HG21       -2.9330    0.4320   -2.3180 hc        1 0GJ      0.078700
     42 HG31       -1.3730   -0.2950   -1.7360 hc        1 0GJ      0.078700
     43 HD2        -4.1480   -1.6690   -1.4790 h1        1 0GJ      0.044700
     44 HD3        -3.0630   -1.8490   -2.9430 h1        1 0GJ      0.044700
     45 HE         -1.4110   -2.4530   -0.7720 hn        1 0GJ      0.400700
     46 HH11       -4.4290   -3.7570   -2.3070 hn        1 0GJ      0.305950
     47 HH12       -4.2400   -5.3210   -1.6820 hn        1 0GJ      0.305950
     48 HH21       -1.2170   -4.6340    0.0960 hn        1 0GJ      0.305950
     49 HH22       -2.1920   -5.8780   -0.5200 hn        1 0GJ      0.305950
     50 H27        -2.2850    1.4650    2.3400 h1        1 0GJ      0.054700
     51 H28        -4.4270    2.4410    2.1980 ho        1 0GJ      0.413000
     52 H11        -1.1290    3.6700    1.5460 h1        1 0GJ      0.091700
     53 H21        -2.7680    4.2140    0.9530 h1        1 0GJ      0.091700
@<TRIPOS>BOND
     1    1    2 1   
     2    1   27 1   
     3    1   28 1   
     4    2    3 1   
     5    2    5 1   
     6    2   29 1   
     7    3    4 2   
     8    3   10 1   
     9    5    6 1   
    10    5   30 1   
    11    5   31 1   
    12    6    7 1   
    13    6   32 1   
    14    6   33 1   
    15    7    8 1   
    16    7    9 1   
    17   10   11 1   
    18   10   34 1   
    19   11   12 1   
    20   11   35 1   
    21   11   36 1   
    22   12   13 2   
    23   12   14 1   
    24   14   15 1   
    25   14   37 1   
    26   15   16 1   
    27   15   18 1   
    28   15   38 1   
    29   16   17 1   
    30   16   25 1   
    31   16   50 1   
    32   17   51 1   
    33   18   19 1   
    34   18   39 1   
    35   18   40 1   
    36   19   20 1   
    37   19   41 1   
    38   19   42 1   
    39   20   21 1   
    40   20   43 1   
    41   20   44 1   
    42   21   22 2   
    43   21   45 1   
    44   22   23 1   
    45   22   24 1   
    46   23   46 1   
    47   23   47 1   
    48   24   48 1   
    49   24   49 1   
    50   25   26 1   
    51   25   52 1   
    52   25   53 1   
@<TRIPOS>SUBSTRUCTURE
     1 0GJ         1 TEMP              0 ****  ****    0 ROOT
