@<TRIPOS>MOLECULE
0GO
   90    93     1     0     0
SMALL
bcc


@<TRIPOS>ATOM
      1 N1          1.0350    0.7250    0.0580 n3        1 0GO     -0.744600
      2 C2          2.1060   -0.0700   -0.5470 c3        1 0GO      0.158200
      3 C3          2.9170   -0.7470    0.5860 c3        1 0GO     -0.078400
      4 C4          2.2950   -0.2810    1.8950 c3        1 0GO     -0.092400
      5 C5          1.0520    0.5290    1.5100 c3        1 0GO      0.168800
      6 C6          1.7280   -1.0820   -1.6580 c3        1 0GO     -0.112400
      7 C7          2.0500   -0.4040   -3.0020 c3        1 0GO      0.070000
      8 N8          2.9620    0.7050   -2.7130 n         1 0GO     -0.504800
      9 C9          3.0230    0.9340   -1.3140 c         1 0GO      0.708500
     10 O10         3.7910    1.7860   -0.8430 o         1 0GO     -0.661500
     11 C11         3.0470    1.7780   -3.6600 c3        1 0GO      0.068700
     12 C12         4.4760    2.2910   -3.9260 c         1 0GO      0.549100
     13 N13         5.6270    1.9030   -3.0430 ny        1 0GO     -0.663800
     14 O14         4.7640    3.0340   -4.8600 o         1 0GO     -0.479100
     15 C15        -0.2810    0.6480   -0.5500 c3        1 0GO      0.176800
     16 C16        -1.2300    1.7430   -0.0560 c3        1 0GO     -0.080400
     17 C17        -2.5560    1.6310   -0.7630 c3        1 0GO     -0.100100
     18 C18         2.2110    3.0220   -3.3350 c3        1 0GO     -0.137100
     19 C19         6.2020    3.0110   -2.1960 c3        1 0GO      0.104500
     20 C20         6.3840    4.3350   -2.9830 c3        1 0GO      0.111100
     21 C21         7.0150    5.3990   -2.0570 c3        1 0GO      0.097800
     22 N22         7.3090    6.6670   -2.7730 ny        1 0GO     -0.768000
     23 C23         8.0440    7.6580   -1.8990 c3        1 0GO      0.188100
     24 C24         7.5420    2.5540   -1.5870 c3        1 0GO     -0.050100
     25 C25         7.5990    1.1040   -1.2610 ca        1 0GO     -0.180300
     26 C26         6.7060    0.5470   -0.3350 ca        1 0GO     -0.131000
     27 C27         6.8280   -0.7910    0.0330 ca        1 0GO     -0.116000
     28 C28         7.8370   -1.5830   -0.5190 ca        1 0GO     -0.089000
     29 C29         8.7240   -1.0330   -1.4450 ca        1 0GO     -0.116000
     30 C30         8.6080    0.3070   -1.8150 ca        1 0GO     -0.131000
     31 O31         7.2770    4.1660   -4.0660 oh        1 0GO     -0.608800
     32 C32         8.2880    8.9170   -2.6480 ca        1 0GO     -0.208300
     33 C33         9.4400    9.0490   -3.4330 ca        1 0GO     -0.104000
     34 C34         9.6880   10.2510   -4.0920 ca        1 0GO     -0.114000
     35 C35         8.7960   11.3160   -3.9700 ca        1 0GO     -0.065000
     36 C36         7.6400   11.1940   -3.1850 ca        1 0GO     -0.050300
     37 C37         7.3910    9.9860   -2.5260 ca        1 0GO     -0.101000
     38 C38         6.6870   12.3410   -3.0400 c3        1 0GO     -0.032400
     39 C39         7.3690   13.5270   -2.3830 c3        1 0GO     -0.094600
     40 C40         6.1070   12.7380   -4.3850 c3        1 0GO     -0.094600
     41 H2          2.8550   -1.8600    0.4940 hc        1 0GO      0.060200
     42 H3          3.9940   -0.4520    0.5240 hc        1 0GO      0.060200
     43 H4          2.0130   -1.1510    2.5380 hc        1 0GO      0.068700
     44 H5          3.0100    0.3540    2.4730 hc        1 0GO      0.068700
     45 H6          0.1210    0.0060    1.8670 h1        1 0GO      0.062700
     46 H7          1.0770    1.5510    1.9790 h1        1 0GO      0.062700
     47 H8          2.3450   -2.0110   -1.5510 hc        1 0GO      0.089200
     48 H9          0.6550   -1.3910   -1.6220 hc        1 0GO      0.089200
     49 H10         1.1080   -0.0350   -3.4940 h1        1 0GO      0.069700
     50 H11         2.5640   -1.1180   -3.7020 h1        1 0GO      0.069700
     51 H12         2.7160    1.3770   -4.6750 h1        1 0GO      0.134700
     52 H13         6.3880    1.5340   -3.6330 hn        1 0GO      0.483800
     53 H14        -0.7740   -0.3520   -0.3640 h1        1 0GO      0.032700
     54 H15        -0.1530    0.7670   -1.6640 h1        1 0GO      0.032700
     55 H16        -1.3820    1.6450    1.0510 hc        1 0GO      0.052200
     56 H17        -0.7810    2.7530   -0.2420 hc        1 0GO      0.052200
     57 H18        -3.0300    0.6380   -0.5680 hc        1 0GO      0.044367
     58 H19        -2.4320    1.7500   -1.8670 hc        1 0GO      0.044367
     59 H20        -3.2500    2.4270   -0.3990 hc        1 0GO      0.044367
     60 H21         2.4850    3.4460   -2.3390 hc        1 0GO      0.081700
     61 H22         1.1290    2.7360   -3.3090 hc        1 0GO      0.081700
     62 H23         2.3540    3.7940   -4.1300 hc        1 0GO      0.081700
     63 H24         5.4470    3.1890   -1.3660 hx        1 0GO      0.145700
     64 H25         5.3780    4.7020   -3.3400 h1        1 0GO      0.075700
     65 H26         6.3120    5.6120   -1.2020 hx        1 0GO      0.121700
     66 H27         7.9940    5.0150   -1.6460 hx        1 0GO      0.121700
     67 H28         7.8860    6.4580   -3.6020 hn        1 0GO      0.458800
     68 H30         7.4090    7.8390   -0.9850 hx        1 0GO      0.107700
     69 H31         9.0150    7.1760   -1.5870 hx        1 0GO      0.107700
     70 H32         8.3720    2.8180   -2.3000 hc        1 0GO      0.086700
     71 H33         7.6910    3.1390   -0.6380 hc        1 0GO      0.086700
     72 H34         5.9180    1.1710    0.1200 ha        1 0GO      0.146000
     73 H35         6.1370   -1.2210    0.7760 ha        1 0GO      0.160000
     74 H36         7.9410   -2.6380   -0.2150 ha        1 0GO      0.165000
     75 H37         9.5280   -1.6530   -1.8750 ha        1 0GO      0.160000
     76 H38         9.3310    0.7390   -2.5250 ha        1 0GO      0.146000
     77 H39         6.7650    3.9390   -4.8590 ho        1 0GO      0.457000
     78 H40        10.1600    8.2210   -3.5130 ha        1 0GO      0.137000
     79 H41        10.5990   10.3640   -4.7040 ha        1 0GO      0.166000
     80 H42         9.0030   12.2690   -4.4890 ha        1 0GO      0.169000
     81 H43         6.4970    9.8880   -1.8910 ha        1 0GO      0.136000
     82 H44         5.8340   12.0190   -2.3740 hc        1 0GO      0.054700
     83 H45         6.6320   14.3570   -2.2480 hc        1 0GO      0.048367
     84 H46         7.7740   13.2440   -1.3830 hc        1 0GO      0.048367
     85 H47         8.2090   13.9020   -3.0160 hc        1 0GO      0.048367
     86 H48         5.5810   11.8750   -4.8580 hc        1 0GO      0.048367
     87 H49         6.9100   13.0890   -5.0760 hc        1 0GO      0.048367
     88 H50         5.3730   13.5690   -4.2470 hc        1 0GO      0.048367
     89 H132        5.3480    1.1590   -2.3770 hn        1 0GO      0.483800
     90 H222        6.4390    7.1010   -3.1040 hn        1 0GO      0.458800
@<TRIPOS>BOND
     1    1    2 1   
     2    1    5 1   
     3    1   15 1   
     4    2    3 1   
     5    2    6 1   
     6    2    9 1   
     7    3    4 1   
     8    3   41 1   
     9    3   42 1   
    10    4    5 1   
    11    4   43 1   
    12    4   44 1   
    13    5   45 1   
    14    5   46 1   
    15    6    7 1   
    16    6   47 1   
    17    6   48 1   
    18    7    8 1   
    19    7   49 1   
    20    7   50 1   
    21    8    9 1   
    22    8   11 1   
    23    9   10 2   
    24   11   12 1   
    25   11   18 1   
    26   11   51 1   
    27   12   13 1   
    28   12   14 2   
    29   13   19 1   
    30   13   52 1   
    31   13   89 1   
    32   15   16 1   
    33   15   53 1   
    34   15   54 1   
    35   16   17 1   
    36   16   55 1   
    37   16   56 1   
    38   17   57 1   
    39   17   58 1   
    40   17   59 1   
    41   18   60 1   
    42   18   61 1   
    43   18   62 1   
    44   19   20 1   
    45   19   24 1   
    46   19   63 1   
    47   20   21 1   
    48   20   31 1   
    49   20   64 1   
    50   21   22 1   
    51   21   65 1   
    52   21   66 1   
    53   22   23 1   
    54   22   67 1   
    55   22   90 1   
    56   23   32 1   
    57   23   68 1   
    58   23   69 1   
    59   24   25 1   
    60   24   70 1   
    61   24   71 1   
    62   25   26 ar  
    63   25   30 ar  
    64   26   27 ar  
    65   26   72 1   
    66   27   28 ar  
    67   27   73 1   
    68   28   29 ar  
    69   28   74 1   
    70   29   30 ar  
    71   29   75 1   
    72   30   76 1   
    73   31   77 1   
    74   32   33 ar  
    75   32   37 ar  
    76   33   34 ar  
    77   33   78 1   
    78   34   35 ar  
    79   34   79 1   
    80   35   36 ar  
    81   35   80 1   
    82   36   37 ar  
    83   36   38 1   
    84   37   81 1   
    85   38   39 1   
    86   38   40 1   
    87   38   82 1   
    88   39   83 1   
    89   39   84 1   
    90   39   85 1   
    91   40   86 1   
    92   40   87 1   
    93   40   88 1   
@<TRIPOS>SUBSTRUCTURE
     1 0GO         1 TEMP              0 ****  ****    0 ROOT
