@<TRIPOS>MOLECULE
0GO
   88    91     1     0     0
SMALL
bcc


@<TRIPOS>ATOM
      1 N1         -3.5900   -2.8490    0.7830 n3        1 0GO     -0.733600
      2 C2         -2.3010   -2.2820    0.3700 c3        1 0GO      0.143200
      3 C3         -1.2310   -2.7960    1.3640 c3        1 0GO     -0.075400
      4 C4         -1.8810   -3.9350    2.1400 c3        1 0GO     -0.089400
      5 C5         -3.3590   -3.9370    1.7290 c3        1 0GO      0.174800
      6 C6         -1.8650   -2.5100   -1.1030 c3        1 0GO     -0.118400
      7 C7         -2.0880   -1.1710   -1.8290 c3        1 0GO      0.091000
      8 N8         -2.3580   -0.1730   -0.8090 n         1 0GO     -0.482800
      9 C9         -2.3890   -0.7230    0.4680 c         1 0GO      0.717500
     10 O10        -2.4600   -0.0750    1.5240 o         1 0GO     -0.637500
     11 C11        -2.3560    1.2230   -1.1510 c3        1 0GO      0.059700
     12 C12        -1.0020    1.9300   -0.8760 c         1 0GO      0.635100
     13 N13        -0.5250    1.9150    0.4070 n         1 0GO     -0.554900
     14 O14        -0.4020    2.4960   -1.8140 o         1 0GO     -0.628100
     15 C15        -4.5530   -3.1340   -0.2590 c3        1 0GO      0.183800
     16 C16        -5.9800   -3.2700    0.2770 c3        1 0GO     -0.082400
     17 C17        -6.9380   -3.5290   -0.8570 c3        1 0GO     -0.095100
     18 C18        -3.4620    2.0360   -0.4800 c3        1 0GO     -0.111100
     19 C19         0.6890    2.5990    0.7920 c3        1 0GO      0.092700
     20 C20         1.9620    1.9010    0.2380 c3        1 0GO      0.073100
     21 C21         3.1380    2.8970    0.1820 c3        1 0GO      0.128800
     22 N22         4.3960    2.3750   -0.2960 n3        1 0GO     -0.812200
     23 C23         4.4750    2.1490   -1.7280 c3        1 0GO      0.199100
     24 C24         0.7810    2.7550    2.3220 c3        1 0GO     -0.052100
     25 C25        -0.3360    3.5650    2.8770 ca        1 0GO     -0.088300
     26 C26        -0.2080    4.9550    2.9890 ca        1 0GO     -0.125000
     27 C27        -1.2460    5.7160    3.5230 ca        1 0GO     -0.127500
     28 C28        -2.4200    5.0950    3.9490 ca        1 0GO     -0.129000
     29 C29        -2.5540    3.7120    3.8380 ca        1 0GO     -0.127500
     30 C30        -1.5170    2.9470    3.3040 ca        1 0GO     -0.125000
     31 O31         2.3060    0.7370    0.9680 oh        1 0GO     -0.599800
     32 C32         4.8720    0.7640   -2.1500 ca        1 0GO     -0.102300
     33 C33         5.8710    0.5970   -3.1150 ca        1 0GO     -0.122000
     34 C34         6.2250   -0.6830   -3.5370 ca        1 0GO     -0.130000
     35 C35         5.5910   -1.8000   -2.9990 ca        1 0GO     -0.126000
     36 C36         4.5910   -1.6460   -2.0310 ca        1 0GO     -0.072300
     37 C37         4.2360   -0.3600   -1.6130 ca        1 0GO     -0.131000
     38 C38         3.9030   -2.8390   -1.4440 c3        1 0GO     -0.025400
     39 C39         3.1690   -3.6250   -2.5130 c3        1 0GO     -0.087100
     40 C40         4.8890   -3.7300   -0.7120 c3        1 0GO     -0.087100
     41 H2         -0.3150   -3.1430    0.8290 hc        1 0GO      0.064200
     42 H3         -0.9350   -1.9690    2.0590 hc        1 0GO      0.064200
     43 H4         -1.4050   -4.9140    1.8900 hc        1 0GO      0.051200
     44 H5         -1.7800   -3.7760    3.2410 hc        1 0GO      0.051200
     45 H6         -4.0210   -3.7470    2.6180 h1        1 0GO      0.043200
     46 H7         -3.6420   -4.9380    1.2970 h1        1 0GO      0.043200
     47 H8         -0.7810   -2.7810   -1.1460 hc        1 0GO      0.064700
     48 H9         -2.4360   -3.3270   -1.6030 hc        1 0GO      0.064700
     49 H10        -1.1820   -0.8840   -2.4290 h1        1 0GO      0.051200
     50 H11        -2.9670   -1.2360   -2.5290 h1        1 0GO      0.051200
     51 H12        -2.5000    1.2900   -2.2750 h1        1 0GO      0.086700
     52 H13        -1.0520    1.4730    1.1280 hn        1 0GO      0.343500
     53 H14        -4.5280   -2.2820   -0.9980 h1        1 0GO      0.030700
     54 H15        -4.3030   -4.0830   -0.8220 h1        1 0GO      0.030700
     55 H16        -6.0290   -4.1120    1.0160 hc        1 0GO      0.050200
     56 H17        -6.2740   -2.3330    0.8180 hc        1 0GO      0.050200
     57 H18        -6.9190   -2.6870   -1.5910 hc        1 0GO      0.034033
     58 H19        -6.6710   -4.4700   -1.3970 hc        1 0GO      0.034033
     59 H20        -7.9780   -3.6300   -0.4650 hc        1 0GO      0.034033
     60 H21        -3.3470    3.1070   -0.7740 hc        1 0GO      0.058033
     61 H22        -4.4630    1.6750   -0.8130 hc        1 0GO      0.058033
     62 H23        -3.4060    1.9550    0.6340 hc        1 0GO      0.058033
     63 H24         0.6640    3.6310    0.3240 h1        1 0GO      0.071700
     64 H25         1.7490    1.5130   -0.8030 h1        1 0GO      0.100700
     65 H26         2.8300    3.7630   -0.4680 h1        1 0GO      0.058700
     66 H27         3.3330    3.2900    1.2200 h1        1 0GO      0.058700
     67 H28         4.6350    1.5410    0.2110 hn        1 0GO      0.369800
     68 H30         3.4970    2.3920   -2.2400 h1        1 0GO      0.054200
     69 H31         5.2420    2.8850   -2.1120 h1        1 0GO      0.054200
     70 H32         0.7870    1.7400    2.8060 hc        1 0GO      0.058200
     71 H33         1.7610    3.2490    2.5580 hc        1 0GO      0.058200
     72 H34         0.7170    5.4480    2.6550 ha        1 0GO      0.139000
     73 H35        -1.1370    6.8070    3.6090 ha        1 0GO      0.133000
     74 H36        -3.2390    5.6960    4.3720 ha        1 0GO      0.131000
     75 H37        -3.4790    3.2180    4.1710 ha        1 0GO      0.133000
     76 H38        -1.6360    1.8540    3.2160 ha        1 0GO      0.139000
     77 H39         2.6000    1.0170    1.8430 ho        1 0GO      0.397000
     78 H40         6.3790    1.4760   -3.5390 ha        1 0GO      0.132000
     79 H41         7.0100   -0.8110   -4.2970 ha        1 0GO      0.130000
     80 H42         5.8770   -2.8090   -3.3340 ha        1 0GO      0.130000
     81 H43         3.4440   -0.2310   -0.8540 ha        1 0GO      0.151000
     82 H44         3.1400   -2.4780   -0.6930 hc        1 0GO      0.054700
     83 H45         2.4240   -2.9760   -3.0310 hc        1 0GO      0.035200
     84 H46         3.8850   -4.0190   -3.2740 hc        1 0GO      0.035200
     85 H47         2.6330   -4.4890   -2.0510 hc        1 0GO      0.035200
     86 H48         5.4050   -3.1580    0.0960 hc        1 0GO      0.035200
     87 H49         4.3540   -4.5950   -0.2520 hc        1 0GO      0.035200
     88 H50         5.6620   -4.1240   -1.4160 hc        1 0GO      0.035200
@<TRIPOS>BOND
     1    1    2 1   
     2    1    5 1   
     3    1   15 1   
     4    2    3 1   
     5    2    6 1   
     6    2    9 1   
     7    3    4 1   
     8    3   41 1   
     9    3   42 1   
    10    4    5 1   
    11    4   43 1   
    12    4   44 1   
    13    5   45 1   
    14    5   46 1   
    15    6    7 1   
    16    6   47 1   
    17    6   48 1   
    18    7    8 1   
    19    7   49 1   
    20    7   50 1   
    21    8    9 1   
    22    8   11 1   
    23    9   10 2   
    24   11   12 1   
    25   11   18 1   
    26   11   51 1   
    27   12   13 1   
    28   12   14 2   
    29   13   19 1   
    30   13   52 1   
    31   15   16 1   
    32   15   53 1   
    33   15   54 1   
    34   16   17 1   
    35   16   55 1   
    36   16   56 1   
    37   17   57 1   
    38   17   58 1   
    39   17   59 1   
    40   18   60 1   
    41   18   61 1   
    42   18   62 1   
    43   19   20 1   
    44   19   24 1   
    45   19   63 1   
    46   20   21 1   
    47   20   31 1   
    48   20   64 1   
    49   21   22 1   
    50   21   65 1   
    51   21   66 1   
    52   22   23 1   
    53   22   67 1   
    54   23   32 1   
    55   23   68 1   
    56   23   69 1   
    57   24   25 1   
    58   24   70 1   
    59   24   71 1   
    60   25   26 ar  
    61   25   30 ar  
    62   26   27 ar  
    63   26   72 1   
    64   27   28 ar  
    65   27   73 1   
    66   28   29 ar  
    67   28   74 1   
    68   29   30 ar  
    69   29   75 1   
    70   30   76 1   
    71   31   77 1   
    72   32   33 ar  
    73   32   37 ar  
    74   33   34 ar  
    75   33   78 1   
    76   34   35 ar  
    77   34   79 1   
    78   35   36 ar  
    79   35   80 1   
    80   36   37 ar  
    81   36   38 1   
    82   37   81 1   
    83   38   39 1   
    84   38   40 1   
    85   38   82 1   
    86   39   83 1   
    87   39   84 1   
    88   39   85 1   
    89   40   86 1   
    90   40   87 1   
    91   40   88 1   
@<TRIPOS>SUBSTRUCTURE
     1 0GO         1 TEMP              0 ****  ****    0 ROOT
