@<TRIPOS>MOLECULE
0GO
   90    93     1     0     0
SMALL
bcc


@<TRIPOS>ATOM
      1 N1          1.0670    0.7150    0.1020 n3        1 0GO     -0.744600
      2 C2          2.1250   -0.0770   -0.5290 c3        1 0GO      0.158200
      3 C3          2.9550   -0.7640    0.5830 c3        1 0GO     -0.078400
      4 C4          2.3570   -0.3090    1.9070 c3        1 0GO     -0.092400
      5 C5          1.1090    0.5070    1.5510 c3        1 0GO      0.168800
      6 C6          1.7260   -1.0800   -1.6410 c3        1 0GO     -0.112400
      7 C7          2.0250   -0.3920   -2.9850 c3        1 0GO      0.070000
      8 N8          2.9440    0.7140   -2.7030 n         1 0GO     -0.504800
      9 C9          3.0300    0.9320   -1.3040 c         1 0GO      0.708500
     10 O10         3.8070    1.7790   -0.8390 o         1 0GO     -0.661500
     11 C11         3.0130    1.7940   -3.6430 c3        1 0GO      0.068700
     12 C12         4.4390    2.3080   -3.9310 c         1 0GO      0.549100
     13 N13         5.6040    1.9110   -3.0710 n4        1 0GO     -0.663800
     14 O14         4.7110    3.0570   -4.8640 o         1 0GO     -0.479100
     15 C15        -0.2600    0.6450   -0.4830 c3        1 0GO      0.176800
     16 C16        -1.1980    1.7360    0.0360 c3        1 0GO     -0.080400
     17 C17        -2.5370    1.6320   -0.6480 c3        1 0GO     -0.100100
     18 C18         2.1860    3.0380   -3.2930 c3        1 0GO     -0.137100
     19 C19         6.1960    3.0120   -2.2260 c3        1 0GO      0.104500
     20 C20         6.3650    4.3420   -3.0060 c3        1 0GO      0.111100
     21 C21         7.0130    5.3980   -2.0820 c3        1 0GO      0.097800
     22 N22         7.2970    6.6710   -2.7940 n4        1 0GO     -0.768000
     23 C23         8.0470    7.6550   -1.9250 c3        1 0GO      0.188100
     24 C24         7.5450    2.5490   -1.6440 c3        1 0GO     -0.050100
     25 C25         7.6060    1.0960   -1.3310 ca        1 0GO     -0.180300
     26 C26         6.7290    0.5320   -0.3940 ca        1 0GO     -0.131000
     27 C27         6.8560   -0.8090   -0.0390 ca        1 0GO     -0.116000
     28 C28         7.8550   -1.5970   -0.6150 ca        1 0GO     -0.089000
     29 C29         8.7260   -1.0400   -1.5520 ca        1 0GO     -0.116000
     30 C30         8.6050    0.3030   -1.9090 ca        1 0GO     -0.131000
     31 O31         7.2390    4.1800   -4.1060 oh        1 0GO     -0.608800
     32 C32         8.2810    8.9190   -2.6690 ca        1 0GO     -0.208300
     33 C33         9.4220    9.0560   -3.4690 ca        1 0GO     -0.104000
     34 C34         9.6610   10.2620   -4.1230 ca        1 0GO     -0.114000
     35 C35         8.7710   11.3270   -3.9830 ca        1 0GO     -0.065000
     36 C36         7.6250   11.1990   -3.1820 ca        1 0GO     -0.050300
     37 C37         7.3850    9.9870   -2.5280 ca        1 0GO     -0.101000
     38 C38         6.6750   12.3450   -3.0170 c3        1 0GO     -0.032400
     39 C39         7.3650   13.5270   -2.3610 c3        1 0GO     -0.094600
     40 C40         6.0760   12.7510   -4.3510 c3        1 0GO     -0.094600
     41 H2          4.0320   -0.4700    0.5050 hc        1 0GO      0.060200
     42 H3          2.8900   -1.8760    0.4840 hc        1 0GO      0.060200
     43 H4          2.0860   -1.1830    2.5490 hc        1 0GO      0.068700
     44 H5          3.0840    0.3210    2.4780 hc        1 0GO      0.068700
     45 H6          0.1830   -0.0180    1.9210 h1        1 0GO      0.062700
     46 H7          1.1440    1.5240    2.0290 h1        1 0GO      0.062700
     47 H8          2.3430   -2.0100   -1.5520 hc        1 0GO      0.089200
     48 H9          0.6530   -1.3870   -1.5890 hc        1 0GO      0.089200
     49 H10         2.5250   -1.1000   -3.7000 h1        1 0GO      0.069700
     50 H11         1.0750   -0.0160   -3.4570 h1        1 0GO      0.069700
     51 H12         2.6630    1.4030   -4.6550 h1        1 0GO      0.134700
     52 H13         5.3360    1.1630   -2.4050 hn        1 0GO      0.483800
     53 H14        -0.1520    0.7720   -1.5990 h1        1 0GO      0.032700
     54 H15        -0.7510   -0.3560   -0.2960 h1        1 0GO      0.032700
     55 H16        -0.7520    2.7480   -0.1500 hc        1 0GO      0.052200
     56 H17        -1.3310    1.6300    1.1460 hc        1 0GO      0.052200
     57 H18        -2.4330    1.7600   -1.7520 hc        1 0GO      0.044367
     58 H19        -3.0090    0.6390   -0.4520 hc        1 0GO      0.044367
     59 H20        -3.2230    2.4270   -0.2650 hc        1 0GO      0.044367
     60 H21         2.3160    3.8160   -4.0840 hc        1 0GO      0.081700
     61 H22         1.1030    2.7530   -3.2500 hc        1 0GO      0.081700
     62 H23         2.4780    3.4530   -2.2990 hc        1 0GO      0.081700
     63 H24         5.4560    3.1850   -1.3810 hx        1 0GO      0.145700
     64 H25         5.3540    4.7120   -3.3430 h1        1 0GO      0.075700
     65 H26         6.3250    5.6060   -1.2140 hx        1 0GO      0.121700
     66 H27         7.9990    5.0100   -1.6910 hx        1 0GO      0.121700
     67 H28         6.4220    7.1080   -3.1070 hn        1 0GO      0.458800
     68 H30         7.4270    7.8310   -1.0000 hx        1 0GO      0.107700
     69 H31         9.0220    7.1690   -1.6310 hx        1 0GO      0.107700
     70 H32         7.7110    3.1270   -0.6930 hc        1 0GO      0.086700
     71 H33         8.3630    2.8180   -2.3690 hc        1 0GO      0.086700
     72 H34         5.9500    1.1540    0.0800 ha        1 0GO      0.146000
     73 H35         6.1780   -1.2440    0.7140 ha        1 0GO      0.160000
     74 H36         7.9630   -2.6540   -0.3210 ha        1 0GO      0.165000
     75 H37         9.5210   -1.6570   -2.0010 ha        1 0GO      0.160000
     76 H38         9.3150    0.7390   -2.6280 ha        1 0GO      0.146000
     77 H39         6.7130    3.9600   -4.8910 ho        1 0GO      0.457000
     78 H40        10.1410    8.2290   -3.5640 ha        1 0GO      0.137000
     79 H41        10.5630   10.3790   -4.7470 ha        1 0GO      0.166000
     80 H42         8.9710   12.2830   -4.4970 ha        1 0GO      0.169000
     81 H43         6.5000    9.8850   -1.8810 ha        1 0GO      0.136000
     82 H44         5.8310   12.0190   -2.3410 hc        1 0GO      0.054700
     83 H45         6.6310   14.3560   -2.2110 hc        1 0GO      0.048367
     84 H46         8.1970   13.9060   -3.0030 hc        1 0GO      0.048367
     85 H47         7.7840   13.2380   -1.3680 hc        1 0GO      0.048367
     86 H48         6.8700   13.1070   -5.0510 hc        1 0GO      0.048367
     87 H49         5.5450   11.8910   -4.8230 hc        1 0GO      0.048367
     88 H50         5.3450   13.5820   -4.1970 hc        1 0GO      0.048367
     89 H132        6.3540    1.5460   -3.6770 hn        1 0GO      0.483800
     90 H222        7.8610    6.4670   -3.6330 hn        1 0GO      0.458800
@<TRIPOS>BOND
     1    1    2 1   
     2    1    5 1   
     3    1   15 1   
     4    2    3 1   
     5    2    6 1   
     6    2    9 1   
     7    3    4 1   
     8    3   41 1   
     9    3   42 1   
    10    4    5 1   
    11    4   43 1   
    12    4   44 1   
    13    5   45 1   
    14    5   46 1   
    15    6    7 1   
    16    6   47 1   
    17    6   48 1   
    18    7    8 1   
    19    7   49 1   
    20    7   50 1   
    21    8    9 1   
    22    8   11 1   
    23    9   10 2   
    24   11   12 1   
    25   11   18 1   
    26   11   51 1   
    27   12   13 1   
    28   12   14 2   
    29   13   19 1   
    30   13   52 1   
    31   13   89 1   
    32   15   16 1   
    33   15   53 1   
    34   15   54 1   
    35   16   17 1   
    36   16   55 1   
    37   16   56 1   
    38   17   57 1   
    39   17   58 1   
    40   17   59 1   
    41   18   60 1   
    42   18   61 1   
    43   18   62 1   
    44   19   20 1   
    45   19   24 1   
    46   19   63 1   
    47   20   21 1   
    48   20   31 1   
    49   20   64 1   
    50   21   22 1   
    51   21   65 1   
    52   21   66 1   
    53   22   23 1   
    54   22   67 1   
    55   22   90 1   
    56   23   32 1   
    57   23   68 1   
    58   23   69 1   
    59   24   25 1   
    60   24   70 1   
    61   24   71 1   
    62   25   26 ar  
    63   25   30 ar  
    64   26   27 ar  
    65   26   72 1   
    66   27   28 ar  
    67   27   73 1   
    68   28   29 ar  
    69   28   74 1   
    70   29   30 ar  
    71   29   75 1   
    72   30   76 1   
    73   31   77 1   
    74   32   33 ar  
    75   32   37 ar  
    76   33   34 ar  
    77   33   78 1   
    78   34   35 ar  
    79   34   79 1   
    80   35   36 ar  
    81   35   80 1   
    82   36   37 ar  
    83   36   38 1   
    84   37   81 1   
    85   38   39 1   
    86   38   40 1   
    87   38   82 1   
    88   39   83 1   
    89   39   84 1   
    90   39   85 1   
    91   40   86 1   
    92   40   87 1   
    93   40   88 1   
@<TRIPOS>SUBSTRUCTURE
     1 0GO         1 TEMP              0 ****  ****    0 ROOT
