@<TRIPOS>MOLECULE
0GO
   88    87     1     0     0
SMALL
bcc


@<TRIPOS>ATOM
      1 N1         -4.9470   -4.0950    1.3960 n3        1 0GO     -0.258000
      2 C2         -3.9100   -3.8350    2.2220 c3        1 0GO      0.031000
      3 C3         -4.5680   -3.3560    3.6050 c3        1 0GO     -0.153000
      4 C4         -6.0640   -3.1180    3.2930 c3        1 0GO     -0.168000
      5 C5         -6.1610   -3.1610    1.9030 c3        1 0GO     -0.062000
      6 C6         -3.0440   -5.0670    2.4210 c3        1 0GO     -0.193000
      7 C7         -1.7090   -4.7720    1.7200 c3        1 0GO     -0.041000
      8 N8         -1.9070   -3.5020    0.9490 n         1 0GO     -0.306000
      9 C9         -3.0190   -2.7690    1.6360 c2        1 0GO      0.316000
     10 O10        -3.3310   -1.5580    1.4560 o         1 0GO     -0.326000
     11 C11        -0.9900   -2.9420   -0.0170 c3        1 0GO      0.029000
     12 C12        -0.1630   -1.8350    0.6390 c2        1 0GO      0.270000
     13 N13         0.9360   -1.1880   -0.1220 n         1 0GO     -0.361000
     14 O14        -0.3980   -1.4920    1.8260 o         1 0GO     -0.381000
     15 C15        -5.3210   -5.4770    1.5050 c3        1 0GO     -0.053000
     16 C16        -6.7070   -5.6820    0.8690 c3        1 0GO     -0.161000
     17 C17        -7.2440   -7.0250    1.2600 c3        1 0GO     -0.212000
     18 C18        -1.7490   -2.3800   -1.1490 c3        1 0GO     -0.218000
     19 C19         1.4920    0.0320    0.3260 c3        1 0GO      0.035000
     20 C20         1.1510    1.1550   -0.6810 c3        1 0GO      0.008000
     21 C21         1.6650    2.4530   -0.1750 c3        1 0GO     -0.113000
     22 N22         1.4240    3.4610   -1.1430 n3        1 0GO     -0.309000
     23 C23         2.2870    4.5710   -0.8940 c3        1 0GO     -0.033000
     24 C24         3.0170   -0.1060    0.4330 c3        1 0GO     -0.132000
     25 C25         3.4260   -0.2800    1.9280 c2        1 0GO     -0.065000
     26 C26         3.9440   -1.4950    2.3750 c2        1 0GO     -0.127000
     27 C27         4.4370   -1.6040    3.6800 c1        1 0GO     -0.130000
     28 C28         4.4100   -0.5090    4.5240 c1        1 0GO     -0.130500
     29 C29         3.8920    0.7030    4.0760 c1        1 0GO     -0.130500
     30 C30         3.4010    0.8160    2.7780 c1        1 0GO     -0.124000
     31 O31         1.7480    0.8710   -1.9110 oh        1 0GO     -0.339000
     32 C32         2.4610    5.4020   -2.1950 c2        1 0GO     -0.083000
     33 C33         1.3480    5.9810   -2.8170 c2        1 0GO     -0.131000
     34 C34         1.5200    6.7620   -3.9670 c1        1 0GO     -0.126000
     35 C35         2.7750    6.9580   -4.4820 c1        1 0GO     -0.122000
     36 C36         3.8890    6.3800   -3.8620 c1        1 0GO     -0.065000
     37 C37         3.7270    5.6040   -2.7200 c1        1 0GO     -0.111000
     38 C38         5.2800    6.5560   -4.4780 c3        1 0GO     -0.071000
     39 C39         5.3850    5.7170   -5.7910 c3        1 0GO     -0.206000
     40 C40         5.5120    8.0350   -4.8150 c3        1 0GO     -0.206000
     41 H2         -4.4710   -4.0690    4.3000 hc        1 0GO      0.104500
     42 H3         -4.1310   -2.4950    3.9240 hc        1 0GO      0.104500
     43 H4         -6.3540   -2.2030    3.6390 hc        1 0GO      0.088000
     44 H5         -6.6270   -3.8390    3.7040 hc        1 0GO      0.088000
     45 H6         -7.0160   -3.5500    1.6390 h1        1 0GO      0.080000
     46 H7         -6.0700   -2.2440    1.5250 h1        1 0GO      0.080000
     47 H8         -2.8940   -5.2190    3.3700 hc        1 0GO      0.101500
     48 H9         -3.4610   -5.8350    2.0280 hc        1 0GO      0.101500
     49 H10        -1.4740   -5.5330    1.0850 h1        1 0GO      0.092000
     50 H11        -1.0340   -4.6590    2.3510 h1        1 0GO      0.092000
     51 H12        -0.3800   -3.6600   -0.3510 h1        1 0GO      0.110000
     52 H13         1.2230   -1.5500   -0.8660 hn        1 0GO      0.232000
     53 H14        -4.6330   -6.0590    1.0160 h1        1 0GO      0.070500
     54 H15        -5.3510   -5.7250    2.4210 h1        1 0GO      0.070500
     55 H16        -6.6250   -5.6310   -0.1430 hc        1 0GO      0.089000
     56 H17        -7.3240   -4.9750    1.1850 hc        1 0GO      0.089000
     57 H18        -7.2390   -7.1070    2.2110 hc        1 0GO      0.072333
     58 H19        -8.1560   -7.1180    0.9310 hc        1 0GO      0.072333
     59 H20        -6.6960   -7.7120    0.8790 hc        1 0GO      0.072333
     60 H21        -1.5130   -1.4320   -1.2650 hc        1 0GO      0.097000
     61 H22        -1.5270   -2.8760   -1.9710 hc        1 0GO      0.097000
     62 H23        -2.7080   -2.4570   -0.9710 hc        1 0GO      0.097000
     63 H24         1.1230    0.2560    1.2040 h1        1 0GO      0.128000
     64 H25         0.1380    1.2110   -0.7980 h1        1 0GO      0.089000
     65 H26         2.6670    2.3810   -0.0060 h1        1 0GO      0.082500
     66 H27         1.2110    2.6810    0.6570 h1        1 0GO      0.082500
     67 H28         0.4930    3.7500   -1.0880 hn        1 0GO      0.160000
     68 H30         3.2080    4.2270   -0.5840 h1        1 0GO      0.078500
     69 H31         1.9270    5.0930   -0.2490 h1        1 0GO      0.078500
     70 H32         3.4180    0.6560    0.0920 hc        1 0GO      0.103000
     71 H33         3.3180   -0.9030   -0.0910 hc        1 0GO      0.103000
     72 H34         3.9650   -2.2740    1.7740 ha        1 0GO      0.131000
     73 H35         4.7840   -2.4160    3.9810 ha        1 0GO      0.130000
     74 H36         4.7660   -0.5890    5.4660 ha        1 0GO      0.130500
     75 H37         3.8740    1.4610    4.6610 ha        1 0GO      0.130500
     76 H38         3.0310    1.6880    2.4590 ha        1 0GO      0.132000
     77 H39         1.1600    0.8090   -2.4980 ho        1 0GO      0.221000
     78 H40         0.5050    5.8500   -2.4720 ha        1 0GO      0.129000
     79 H41         0.7380    7.1710   -4.4090 ha        1 0GO      0.132000
     80 H42         2.8900    7.5020   -5.2820 ha        1 0GO      0.133000
     81 H43         4.5360    5.1840   -2.2720 ha        1 0GO      0.135000
     82 H44         5.9400    6.2620   -3.8570 hc        1 0GO      0.090000
     83 H45         4.7340    6.1240   -6.5230 hc        1 0GO      0.076000
     84 H46         5.1410    4.8150   -5.6160 hc        1 0GO      0.076000
     85 H47         6.3310    5.7480   -6.1310 hc        1 0GO      0.076000
     86 H48         6.4130    8.1510   -5.1380 hc        1 0GO      0.076000
     87 H49         4.8730    8.3150   -5.5160 hc        1 0GO      0.076000
     88 H50         5.3780    8.5840   -4.0110 hc        1 0GO      0.076000
@<TRIPOS>BOND
     1    1    2 1   
     2    1    5 1   
     3    1   15 1   
     4    2    3 1   
     5    2    6 1   
     6    2    9 1   
     7    3    4 1   
     8    3   41 1   
     9    3   42 1   
    10    4    5 1   
    11    4   43 1   
    12    4   44 1   
    13    5   45 1   
    14    5   46 1   
    15    6    7 1   
    16    6   47 1   
    17    6   48 1   
    18    7    8 1   
    19    7   49 1   
    20    7   50 1   
    21    8    9 1   
    22    8   11 1   
    23    9   10 1   
    24   11   12 1   
    25   11   18 1   
    26   11   51 1   
    27   12   13 1   
    28   12   14 1   
    29   13   19 1   
    30   13   52 1   
    31   15   16 1   
    32   15   53 1   
    33   15   54 1   
    34   16   17 1   
    35   16   55 1   
    36   16   56 1   
    37   17   57 1   
    38   17   58 1   
    39   17   59 1   
    40   18   60 1   
    41   18   61 1   
    42   18   62 1   
    43   19   20 1   
    44   19   24 1   
    45   19   63 1   
    46   20   21 1   
    47   20   31 1   
    48   20   64 1   
    49   21   22 1   
    50   21   65 1   
    51   21   66 1   
    52   22   23 1   
    53   22   67 1   
    54   23   32 1   
    55   23   68 1   
    56   23   69 1   
    57   24   25 1   
    58   24   70 1   
    59   24   71 1   
    60   25   26 1   
    61   25   30 1   
    62   26   27 1   
    63   26   72 1   
    64   27   73 1   
    65   28   29 1   
    66   28   74 1   
    67   29   75 1   
    68   30   76 1   
    69   31   77 1   
    70   32   33 1   
    71   32   37 1   
    72   33   34 1   
    73   33   78 1   
    74   34   79 1   
    75   35   36 1   
    76   35   80 1   
    77   36   38 1   
    78   37   81 1   
    79   38   39 1   
    80   38   40 1   
    81   38   82 1   
    82   39   83 1   
    83   39   84 1   
    84   39   85 1   
    85   40   86 1   
    86   40   87 1   
    87   40   88 1   
@<TRIPOS>SUBSTRUCTURE
     1 0GO         1 TEMP              0 ****  ****    0 ROOT
