@<TRIPOS>MOLECULE
0GO
   90    93     1     0     0
SMALL
bcc


@<TRIPOS>ATOM
      1 N1          1.0620    0.7210    0.1010 n3        1 0GO     -0.744600
      2 C2          2.1110   -0.0720   -0.5440 c3        1 0GO      0.158200
      3 C3          2.9440   -0.7730    0.5570 c3        1 0GO     -0.078400
      4 C4          2.3580   -0.3250    1.8890 c3        1 0GO     -0.092400
      5 C5          1.1130    0.5010    1.5480 c3        1 0GO      0.168800
      6 C6          1.6980   -1.0640   -1.6610 c3        1 0GO     -0.112400
      7 C7          1.9920   -0.3670   -3.0020 c3        1 0GO      0.070000
      8 N8          2.9200    0.7310   -2.7180 n         1 0GO     -0.504800
      9 C9          3.0170    0.9370   -1.3170 c         1 0GO      0.708500
     10 O10         3.8030    1.7760   -0.8520 o         1 0GO     -0.661500
     11 C11         2.9890    1.8180   -3.6500 c3        1 0GO      0.068700
     12 C12         4.4160    2.3260   -3.9430 c         1 0GO      0.549100
     13 N13         5.5850    1.9150   -3.0950 n4        1 0GO     -0.663800
     14 O14         4.6860    3.0810   -4.8710 o         1 0GO     -0.479100
     15 C15        -0.2690    0.6650   -0.4760 c3        1 0GO      0.176800
     16 C16        -1.1960    1.7580    0.0590 c3        1 0GO     -0.080400
     17 C17        -2.5400    1.6690   -0.6170 c3        1 0GO     -0.100100
     18 C18         2.1710    3.0630   -3.2850 c3        1 0GO     -0.137100
     19 C19         6.1890    3.0050   -2.2450 c3        1 0GO      0.104500
     20 C20         6.3620    4.3410   -3.0150 c3        1 0GO      0.111100
     21 C21         7.0230    5.3840   -2.0880 c3        1 0GO      0.097800
     22 N22         7.3080    6.6620   -2.7910 n4        1 0GO     -0.768000
     23 C23         8.0730    7.6340   -1.9210 c3        1 0GO      0.188100
     24 C24         7.5400    2.5290   -1.6770 c3        1 0GO     -0.050100
     25 C25         7.5940    1.0730   -1.3750 ca        1 0GO     -0.180300
     26 C26         6.7200    0.5080   -0.4360 ca        1 0GO     -0.131000
     27 C27         6.8410   -0.8370   -0.0920 ca        1 0GO     -0.116000
     28 C28         7.8300   -1.6270   -0.6820 ca        1 0GO     -0.089000
     29 C29         8.6980   -1.0680   -1.6210 ca        1 0GO     -0.116000
     30 C30         8.5830    0.2780   -1.9660 ca        1 0GO     -0.131000
     31 O31         7.2260    4.1820   -4.1230 oh        1 0GO     -0.608800
     32 C32         8.3060    8.9030   -2.6550 ca        1 0GO     -0.208300
     33 C33         9.4370    9.0400   -3.4690 ca        1 0GO     -0.104000
     34 C34         9.6770   10.2510   -4.1150 ca        1 0GO     -0.114000
     35 C35         8.7960   11.3200   -3.9520 ca        1 0GO     -0.065000
     36 C36         7.6610   11.1930   -3.1370 ca        1 0GO     -0.050300
     37 C37         7.4200    9.9760   -2.4920 ca        1 0GO     -0.101000
     38 C38         6.7210   12.3440   -2.9480 c3        1 0GO     -0.032400
     39 C39         7.4290   13.5150   -2.2900 c3        1 0GO     -0.094600
     40 C40         6.1070   12.7680   -4.2690 c3        1 0GO     -0.094600
     41 H2          4.0220   -0.4850    0.4740 hc        1 0GO      0.060200
     42 H3          2.8720   -1.8840    0.4500 hc        1 0GO      0.060200
     43 H4          2.0860   -1.2020    2.5250 hc        1 0GO      0.068700
     44 H5          3.0930    0.2960    2.4590 hc        1 0GO      0.068700
     45 H6          1.1570    1.5150    2.0330 h1        1 0GO      0.062700
     46 H7          0.1870   -0.0210    1.9200 h1        1 0GO      0.062700
     47 H8          0.6230   -1.3640   -1.6030 hc        1 0GO      0.089200
     48 H9          2.3100   -1.9980   -1.5840 hc        1 0GO      0.089200
     49 H10         1.0410    0.0180   -3.4650 h1        1 0GO      0.069700
     50 H11         2.4830   -1.0730   -3.7250 h1        1 0GO      0.069700
     51 H12         2.6300    1.4360   -4.6620 h1        1 0GO      0.134700
     52 H13         6.3280    1.5500   -3.7090 hn        1 0GO      0.483800
     53 H14        -0.1680    0.8010   -1.5910 h1        1 0GO      0.032700
     54 H15        -0.7660   -0.3340   -0.2940 h1        1 0GO      0.032700
     55 H16        -1.3220    1.6430    1.1680 hc        1 0GO      0.052200
     56 H17        -0.7440    2.7680   -0.1220 hc        1 0GO      0.052200
     57 H18        -3.0170    0.6770   -0.4260 hc        1 0GO      0.044367
     58 H19        -2.4420    1.8050   -1.7210 hc        1 0GO      0.044367
     59 H20        -3.2180    2.4650   -0.2230 hc        1 0GO      0.044367
     60 H21         2.4720    3.4690   -2.2890 hc        1 0GO      0.081700
     61 H22         1.0870    2.7850   -3.2370 hc        1 0GO      0.081700
     62 H23         2.3010    3.8460   -4.0700 hc        1 0GO      0.081700
     63 H24         5.4570    3.1760   -1.3930 hx        1 0GO      0.145700
     64 H25         5.3500    4.7200   -3.3410 h1        1 0GO      0.075700
     65 H26         6.3430    5.5890   -1.2120 hx        1 0GO      0.121700
     66 H27         8.0100    4.9870   -1.7080 hx        1 0GO      0.121700
     67 H28         7.8620    6.4620   -3.6380 hn        1 0GO      0.458800
     68 H30         9.0480    7.1400   -1.6420 hx        1 0GO      0.107700
     69 H31         7.4630    7.8040   -0.9870 hx        1 0GO      0.107700
     70 H32         8.3540    2.7980   -2.4050 hc        1 0GO      0.086700
     71 H33         7.7170    3.0980   -0.7220 hc        1 0GO      0.086700
     72 H34         5.9480    1.1300    0.0480 ha        1 0GO      0.146000
     73 H35         6.1660   -1.2730    0.6620 ha        1 0GO      0.160000
     74 H36         7.9330   -2.6870   -0.3970 ha        1 0GO      0.165000
     75 H37         9.4860   -1.6870   -2.0800 ha        1 0GO      0.160000
     76 H38         9.2910    0.7160   -2.6870 ha        1 0GO      0.146000
     77 H39         6.6930    3.9720   -4.9060 ho        1 0GO      0.457000
     78 H40        10.1480    8.2080   -3.5830 ha        1 0GO      0.137000
     79 H41        10.5710   10.3670   -4.7500 ha        1 0GO      0.166000
     80 H42         8.9960   12.2800   -4.4600 ha        1 0GO      0.169000
     81 H43         6.5430    9.8740   -1.8340 ha        1 0GO      0.136000
     82 H44         5.8840   12.0170   -2.2640 hc        1 0GO      0.054700
     83 H45         6.7030   14.3470   -2.1210 hc        1 0GO      0.048367
     84 H46         7.8590   13.2120   -1.3050 hc        1 0GO      0.048367
     85 H47         8.2550   13.8940   -2.9380 hc        1 0GO      0.048367
     86 H48         5.3840   13.6020   -4.0980 hc        1 0GO      0.048367
     87 H49         6.8940   13.1260   -4.9760 hc        1 0GO      0.048367
     88 H50         5.5630   11.9160   -4.7420 hc        1 0GO      0.048367
     89 H132        5.3160    1.1630   -2.4330 hn        1 0GO      0.483800
     90 H222        6.4330    7.1070   -3.0920 hn        1 0GO      0.458800
@<TRIPOS>BOND
     1    1    2 1   
     2    1    5 1   
     3    1   15 1   
     4    2    3 1   
     5    2    6 1   
     6    2    9 1   
     7    3    4 1   
     8    3   41 1   
     9    3   42 1   
    10    4    5 1   
    11    4   43 1   
    12    4   44 1   
    13    5   45 1   
    14    5   46 1   
    15    6    7 1   
    16    6   47 1   
    17    6   48 1   
    18    7    8 1   
    19    7   49 1   
    20    7   50 1   
    21    8    9 1   
    22    8   11 1   
    23    9   10 2   
    24   11   12 1   
    25   11   18 1   
    26   11   51 1   
    27   12   13 1   
    28   12   14 2   
    29   13   19 1   
    30   13   52 1   
    31   13   89 1   
    32   15   16 1   
    33   15   53 1   
    34   15   54 1   
    35   16   17 1   
    36   16   55 1   
    37   16   56 1   
    38   17   57 1   
    39   17   58 1   
    40   17   59 1   
    41   18   60 1   
    42   18   61 1   
    43   18   62 1   
    44   19   20 1   
    45   19   24 1   
    46   19   63 1   
    47   20   21 1   
    48   20   31 1   
    49   20   64 1   
    50   21   22 1   
    51   21   65 1   
    52   21   66 1   
    53   22   23 1   
    54   22   67 1   
    55   22   90 1   
    56   23   32 1   
    57   23   68 1   
    58   23   69 1   
    59   24   25 1   
    60   24   70 1   
    61   24   71 1   
    62   25   26 ar  
    63   25   30 ar  
    64   26   27 ar  
    65   26   72 1   
    66   27   28 ar  
    67   27   73 1   
    68   28   29 ar  
    69   28   74 1   
    70   29   30 ar  
    71   29   75 1   
    72   30   76 1   
    73   31   77 1   
    74   32   33 ar  
    75   32   37 ar  
    76   33   34 ar  
    77   33   78 1   
    78   34   35 ar  
    79   34   79 1   
    80   35   36 ar  
    81   35   80 1   
    82   36   37 ar  
    83   36   38 1   
    84   37   81 1   
    85   38   39 1   
    86   38   40 1   
    87   38   82 1   
    88   39   83 1   
    89   39   84 1   
    90   39   85 1   
    91   40   86 1   
    92   40   87 1   
    93   40   88 1   
@<TRIPOS>SUBSTRUCTURE
     1 0GO         1 TEMP              0 ****  ****    0 ROOT
