@<TRIPOS>MOLECULE
0GR
   54    56     1     0     0
SMALL
bcc


@<TRIPOS>ATOM
      1 C2          3.5680    0.7060   -0.0360 c         1 0GR      0.589600
      2 C4          4.4780    0.8430    1.1220 cc        1 0GR      0.197200
      3 C5          5.4930    1.7520    1.3670 cd        1 0GR     -0.195300
      4 C6          6.0420    1.4210    2.6610 cd        1 0GR     -0.283300
      5 C7          5.3290    0.3320    3.1260 cc        1 0GR      0.254600
      6 O3          3.6680    1.5160   -0.9840 o         1 0GR     -0.616100
      7 O8          4.3620   -0.0460    2.2000 os        1 0GR     -0.351800
      8 N           2.6850   -0.3470   -0.0380 n         1 0GR     -0.523900
      9 CA          1.6360   -0.4710   -1.0270 c3        1 0GR      0.015700
     10 C           0.2340   -0.5760   -0.3560 c         1 0GR      0.628100
     11 O           0.1330   -0.9460    0.8380 o         1 0GR     -0.659100
     12 CB          1.7710   -1.7220   -1.9110 c3        1 0GR     -0.100400
     13 CG          3.0190   -1.7240   -2.7790 c3        1 0GR     -0.058700
     14 CD1         3.0790   -3.0230   -3.5590 c3        1 0GR     -0.096100
     15 CD2         3.0510   -0.5420   -3.7250 c3        1 0GR     -0.096100
     16 N1         -0.8390   -0.1850   -1.1260 n         1 0GR     -0.479900
     17 CA1        -2.1330   -0.8380   -0.9720 c3        1 0GR     -0.070300
     18 C1         -2.4330   -1.8120   -2.1780 c         1 0GR      0.905600
     19 O1         -1.5590   -1.9170   -3.0850 o         1 0GR     -0.827800
     20 CB1        -3.2900    0.1610   -0.8700 c3        1 0GR     -0.006200
     21 CG1        -3.3140    0.9450    0.3720 cc        1 0GR     -0.110400
     22 CD11       -2.5000    0.8030    1.4930 cd        1 0GR     -0.106100
     23 CD21       -4.2370    2.0300    0.6580 ca        1 0GR     -0.087800
     24 NE1        -2.8800    1.7150    2.4910 na        1 0GR     -0.202400
     25 CE2        -3.9140    2.5070    1.9880 ca        1 0GR     -0.054200
     26 CE3        -5.2740    2.6340   -0.0500 ca        1 0GR     -0.078000
     27 CZ2        -4.6260    3.5680    2.5660 ca        1 0GR     -0.158000
     28 CZ3        -5.9680    3.6850    0.5350 ca        1 0GR     -0.176000
     29 CH2        -5.6470    4.1440    1.8230 ca        1 0GR     -0.128000
     30 OXT        -3.5250   -2.4330   -2.1410 o         1 0GR     -0.827800
     31 H5          5.8120    2.5590    0.7120 ha        1 0GR      0.175000
     32 H6          6.8560    1.9410    3.1560 ha        1 0GR      0.158000
     33 H7          5.3500   -0.2780    4.0240 h4        1 0GR      0.052100
     34 H           2.5520   -0.8690    0.8010 hn        1 0GR      0.334500
     35 HA          1.6690    0.4470   -1.6900 h1        1 0GR      0.097700
     36 HB2         1.7760   -2.6370   -1.2620 hc        1 0GR      0.081200
     37 HB3         0.8570   -1.7860   -2.5700 hc        1 0GR      0.081200
     38 HG          3.9270   -1.6700   -2.1140 hc        1 0GR      0.038700
     39 HD11        2.1890   -3.1160   -4.2280 hc        1 0GR      0.034700
     40 HD12        4.0020   -3.0570   -4.1860 hc        1 0GR      0.034700
     41 HD13        3.0900   -3.8960   -2.8630 hc        1 0GR      0.034700
     42 HD21        2.0880   -0.4620   -4.2850 hc        1 0GR      0.034700
     43 HD22        3.2210    0.4070   -3.1580 hc        1 0GR      0.034700
     44 HD23        3.8810   -0.6620   -4.4630 hc        1 0GR      0.034700
     45 H1         -0.6250   -0.0490   -2.0990 hn        1 0GR      0.306500
     46 HA1        -2.1180   -1.4680   -0.0360 h1        1 0GR      0.069700
     47 HB21       -3.2720    0.8610   -1.7490 hc        1 0GR      0.065200
     48 HB31       -4.2360   -0.4480   -0.9490 hc        1 0GR      0.065200
     49 HD1        -1.6720    0.1030    1.6570 h4        1 0GR      0.202000
     50 HE1        -2.3440    1.9320    3.2860 hn        1 0GR      0.283700
     51 HE3        -5.5300    2.2740   -1.0570 ha        1 0GR      0.136000
     52 HZ2        -4.3830    3.9310    3.5720 ha        1 0GR      0.117000
     53 HZ3        -6.7870    4.1700   -0.0150 ha        1 0GR      0.116000
     54 HH2        -6.2190    4.9800    2.2510 ha        1 0GR      0.112000
@<TRIPOS>BOND
     1    1    2 1   
     2    1    6 2   
     3    1    8 1   
     4    2    3 2   
     5    2    7 1   
     6    3    4 1   
     7    3   31 1   
     8    4    5 2   
     9    4   32 1   
    10    5    7 1   
    11    5   33 1   
    12    8    9 1   
    13    8   34 1   
    14    9   10 1   
    15    9   12 1   
    16    9   35 1   
    17   10   11 2   
    18   10   16 1   
    19   12   13 1   
    20   12   36 1   
    21   12   37 1   
    22   13   14 1   
    23   13   15 1   
    24   13   38 1   
    25   14   39 1   
    26   14   40 1   
    27   14   41 1   
    28   15   42 1   
    29   15   43 1   
    30   15   44 1   
    31   16   17 1   
    32   16   45 1   
    33   17   18 1   
    34   17   20 1   
    35   17   46 1   
    36   18   19 1   
    37   18   30 1   
    38   20   21 1   
    39   20   47 1   
    40   20   48 1   
    41   21   22 2   
    42   21   23 1   
    43   22   24 1   
    44   22   49 1   
    45   23   25 ar  
    46   23   26 ar  
    47   24   25 1   
    48   24   50 1   
    49   25   27 ar  
    50   26   28 ar  
    51   26   51 1   
    52   27   29 ar  
    53   27   52 1   
    54   28   29 ar  
    55   28   53 1   
    56   29   54 1   
@<TRIPOS>SUBSTRUCTURE
     1 0GR         1 TEMP              0 ****  ****    0 ROOT
