@<TRIPOS>MOLECULE
0GR
   54    47     1     0     0
SMALL
bcc


@<TRIPOS>ATOM
      1 C2          3.2850    0.2790    2.3190 c1        1 0GR      0.374000
      2 C4          4.7970    0.3060    2.3000 c2        1 0GR     -0.086000
      3 C5          5.6320   -0.4240    3.1200 c1        1 0GR     -0.132000
      4 C6          6.9220   -0.1230    2.7850 c1        1 0GR     -0.219000
      5 C7          6.8910    0.7950    1.7550 c1        1 0GR     -0.076000
      6 O3          2.7010   -0.4380    3.1070 o         1 0GR     -0.380000
      7 O8          5.5780    1.0560    1.4600 os        1 0GR     -0.092000
      8 N           2.5490    1.0860    1.4140 n2        1 0GR     -0.340000
      9 CA          1.1300    1.0570    1.4300 c3        1 0GR     -0.010000
     10 C           0.6400   -0.1220    0.6190 c2        1 0GR      0.273000
     11 O           1.3810   -0.6600   -0.1790 o         1 0GR     -0.389000
     12 CB          0.5930    2.3390    0.8320 c3        1 0GR     -0.181000
     13 CG          1.2650    3.5230    1.4920 c3        1 0GR     -0.105000
     14 CD1         1.8650    4.4190    0.4300 c3        1 0GR     -0.215000
     15 CD2         0.2430    4.3020    2.2900 c3        1 0GR     -0.215000
     16 N1         -0.6880   -0.5940    0.7840 n         1 0GR     -0.296000
     17 CA1        -1.2590   -1.4600   -0.1850 c3        1 0GR     -0.095000
     18 C1         -0.9230   -0.9570   -1.5720 c2        1 0GR      0.324000
     19 O1         -1.2720    0.2000   -1.9240 o         1 0GR     -0.567500
     20 CB1        -2.7610   -1.4910   -0.0110 c3        1 0GR     -0.091000
     21 CG1        -3.3700   -2.4110   -1.0450 c2        1 0GR     -0.083000
     22 CD11       -3.6610   -3.6740   -0.5690 c1        1 0GR     -0.128000
     23 CD21       -3.7880   -2.3450   -2.3560 c1        1 0GR     -0.077000
     24 NE1        -4.2530   -4.3800   -1.5780 n2        1 0GR     -0.212000
     25 CE2        -4.3330   -3.5580   -2.6870 c1        1 0GR     -0.017000
     26 CE3        -3.7480   -1.3100   -3.3060 c1        1 0GR     -0.066000
     27 CZ2        -4.8520   -3.7670   -3.9770 c1        1 0GR     -0.166000
     28 CZ3        -4.2600   -1.5160   -4.5790 c1        1 0GR     -0.147500
     29 CH2        -4.8120   -2.7450   -4.9140 c1        1 0GR     -0.147500
     30 OXT        -0.2740   -1.6870   -2.3660 o         1 0GR     -0.567500
     31 H5          5.3510   -1.0460    3.8180 DU        1 0GR      0.177400
     32 H6          7.7240   -0.5130    3.1810 DU        1 0GR      0.177400
     33 H7          7.6680    1.1900    1.3140 DU        1 0GR      0.177400
     34 H           2.9880    1.6390    0.8360 hn        1 0GR      0.253000
     35 HA          0.8160    0.9720    2.3520 h1        1 0GR      0.131000
     36 HB2         0.7780    2.3520   -0.1280 hc        1 0GR      0.116000
     37 HB3        -0.3730    2.3880    0.9790 hc        1 0GR      0.116000
     38 HG          1.9700    3.2070    2.0880 hc        1 0GR      0.088000
     39 HD11        2.6520    3.9830    0.0420 hc        1 0GR      0.075500
     40 HD12        2.1290    5.2720    0.8340 hc        1 0GR      0.075500
     41 HD13        1.2020    4.5820   -0.2730 hc        1 0GR      0.075500
     42 HD21       -0.2110    3.7000    2.9160 hc        1 0GR      0.075500
     43 HD22       -0.4160    4.6960    1.6810 hc        1 0GR      0.075500
     44 HD23        0.6930    5.0150    2.7900 hc        1 0GR      0.075500
     45 H1         -1.1680   -0.3570    1.5220 hn        1 0GR      0.215000
     46 HA1        -0.8990   -2.3610   -0.0690 h1        1 0GR      0.123000
     47 HB21       -2.9790   -1.8180    0.8850 hc        1 0GR      0.097000
     48 HB31       -3.1210   -0.5890   -0.1250 hc        1 0GR      0.097000
     49 HD1        -3.4890   -3.9990    0.3350 DU        1 0GR      0.177400
     50 HE1        -4.5440   -5.2430   -1.5280 DU        1 0GR      0.177400
     51 HE3        -3.3600   -0.4460   -3.0710 ha        1 0GR      0.205000
     52 HZ2        -5.2400   -4.6310   -4.2130 ha        1 0GR      0.115000
     53 HZ3        -4.2320   -0.7980   -5.2390 ha        1 0GR      0.115500
     54 HH2        -5.1560   -2.8960   -5.8150 ha        1 0GR      0.115500
@<TRIPOS>BOND
     1    1    2 1   
     2    1    6 1   
     3    2    3 1   
     4    2    7 1   
     5    3    4 1   
     6    4    5 1   
     7    5    7 1   
     8    8    9 1   
     9    8   34 1   
    10    9   10 1   
    11    9   12 1   
    12    9   35 1   
    13   10   11 1   
    14   10   16 1   
    15   12   13 1   
    16   12   36 1   
    17   12   37 1   
    18   13   14 1   
    19   13   15 1   
    20   13   38 1   
    21   14   39 1   
    22   14   40 1   
    23   14   41 1   
    24   15   42 1   
    25   15   43 1   
    26   15   44 1   
    27   16   17 1   
    28   16   45 1   
    29   17   18 1   
    30   17   20 1   
    31   17   46 1   
    32   18   19 1   
    33   18   30 1   
    34   20   21 1   
    35   20   47 1   
    36   20   48 1   
    37   21   22 1   
    38   21   23 1   
    39   22   24 1   
    40   23   26 1   
    41   24   25 1   
    42   25   27 1   
    43   26   51 1   
    44   27   52 1   
    45   28   29 1   
    46   28   53 1   
    47   29   54 1   
@<TRIPOS>SUBSTRUCTURE
     1 0GR         1 TEMP              0 ****  ****    0 ROOT
