@<TRIPOS>MOLECULE
0GS
   57    59     1     0     0
SMALL
bcc


@<TRIPOS>ATOM
      1 BR1         0.1660   -0.4340    0.0500 br        1 0GS      0.017900
      2 C2          2.0160   -0.1910    0.1550 ca        1 0GS      0.009100
      3 C3          2.6450    0.0670    1.3930 ca        1 0GS     -0.095400
      4 C4          4.0530    0.2450    1.4380 ca        1 0GS      0.186900
      5 C5          4.8090    0.1700    0.2540 ca        1 0GS     -0.134000
      6 C7          4.1780   -0.0780   -0.9640 ca        1 0GS     -0.004300
      7 C8          2.7870   -0.2590   -1.0030 ca        1 0GS     -0.096000
      8 C10         4.9710   -0.0960   -2.2290 c3        1 0GS     -0.049100
      9 C13         5.0010   -1.4680   -2.8920 c3        1 0GS     -0.051700
     10 C15         5.6360   -1.3790   -4.2930 c3        1 0GS      0.122100
     11 C17         5.5220   -2.7710   -4.9890 c3        1 0GS      0.162500
     12 C19         6.3190   -3.7910   -4.2040 c3        1 0GS     -0.338600
     13 S22         5.6640   -4.0750   -2.6140 s6        1 0GS      1.346000
     14 C23         5.7700   -2.4650   -2.0500 c3        1 0GS     -0.341600
     15 O26         6.5390   -4.8810   -1.9120 o         1 0GS     -0.605800
     16 O27         4.3240   -4.4150   -2.7690 o         1 0GS     -0.605800
     17 N28         5.9450   -2.6920   -6.4290 n4        1 0GS     -0.764000
     18 C30         5.3410   -3.7830   -7.2740 c3        1 0GS      0.181100
     19 C33         5.9260   -3.7750   -8.6430 ca        1 0GS     -0.201300
     20 C34         7.2250   -4.2600   -8.8410 ca        1 0GS     -0.087000
     21 C36         7.7550   -4.3260  -10.1290 ca        1 0GS     -0.138300
     22 C37         6.9790   -3.9280  -11.2250 ca        1 0GS     -0.045000
     23 C39         5.6860   -3.4410  -11.0240 ca        1 0GS     -0.116000
     24 C41         5.1580   -3.3570   -9.7370 ca        1 0GS     -0.075000
     25 C43         9.1750   -4.8500  -10.3620 c3        1 0GS      0.461900
     26 F44         9.7480   -5.3110   -9.1880 f         1 0GS     -0.227800
     27 F45         9.1630   -5.9960  -11.1330 f         1 0GS     -0.227800
     28 C46        10.0370   -3.7430  -11.0020 c3        1 0GS     -0.139100
     29 O50         4.9250   -0.4840   -5.1310 oh        1 0GS     -0.610800
     30 F52         4.6650    0.4900    2.6160 f         1 0GS     -0.099900
     31 N53         1.8590    0.1600    2.6200 n4        1 0GS     -0.698000
     32 H1          5.9010    0.3240    0.3160 ha        1 0GS      0.193000
     33 H2          2.2940   -0.4510   -1.9750 ha        1 0GS      0.186000
     34 H3          4.5000    0.6460   -2.9330 hc        1 0GS      0.080200
     35 H4          6.0230    0.2440   -2.0280 hc        1 0GS      0.080200
     36 H5          3.9360   -1.8270   -3.0110 hc        1 0GS      0.096700
     37 H6          6.7150   -1.0690   -4.2080 h1        1 0GS      0.069700
     38 H7          4.4240   -3.0670   -4.9970 hx        1 0GS      0.137700
     39 H8          7.3960   -3.4820   -4.1260 h1        1 0GS      0.137200
     40 H9          6.3350   -4.7790   -4.7460 h1        1 0GS      0.137200
     41 H10         6.8400   -2.1310   -1.9590 h1        1 0GS      0.132700
     42 H11         5.3730   -2.4120   -0.9970 h1        1 0GS      0.132700
     43 H12         5.6490   -1.7780   -6.8050 hn        1 0GS      0.460300
     44 H14         5.5490   -4.7680   -6.7640 hx        1 0GS      0.109700
     45 H15         4.2260   -3.6150   -7.3040 hx        1 0GS      0.109700
     46 H16         7.8250   -4.6210   -7.9900 ha        1 0GS      0.146000
     47 H17         7.3860   -4.0170  -12.2470 ha        1 0GS      0.173000
     48 H18         5.0760   -3.1320  -11.8900 ha        1 0GS      0.171000
     49 H19         4.1310   -2.9850   -9.5900 ha        1 0GS      0.147000
     50 H20        10.0580   -2.8530  -10.3340 hc        1 0GS      0.073700
     51 H21         9.6100   -3.4650  -11.9930 hc        1 0GS      0.073700
     52 H22        11.0770   -4.1230  -11.1460 hc        1 0GS      0.073700
     53 H23         5.1710    0.4190   -4.8850 ho        1 0GS      0.447000
     54 H24         1.1720    0.9230    2.5360 hn        1 0GS      0.479467
     55 H25         1.3580   -0.7250    2.7820 hn        1 0GS      0.479467
     56 H282        6.9680   -2.7510   -6.4950 hn        1 0GS      0.460300
     57 H533        2.4780    0.3500    3.4220 hn        1 0GS      0.479467
@<TRIPOS>BOND
     1    1    2 1   
     2    2    3 ar  
     3    2    7 ar  
     4    3    4 ar  
     5    3   31 1   
     6    4    5 ar  
     7    4   30 1   
     8    5    6 ar  
     9    5   32 1   
    10    6    7 ar  
    11    6    8 1   
    12    7   33 1   
    13    8    9 1   
    14    8   34 1   
    15    8   35 1   
    16    9   10 1   
    17    9   14 1   
    18    9   36 1   
    19   10   11 1   
    20   10   29 1   
    21   10   37 1   
    22   11   12 1   
    23   11   17 1   
    24   11   38 1   
    25   12   13 1   
    26   12   39 1   
    27   12   40 1   
    28   13   14 1   
    29   13   15 2   
    30   13   16 2   
    31   14   41 1   
    32   14   42 1   
    33   17   18 1   
    34   17   43 1   
    35   17   56 1   
    36   18   19 1   
    37   18   44 1   
    38   18   45 1   
    39   19   20 ar  
    40   19   24 ar  
    41   20   21 ar  
    42   20   46 1   
    43   21   22 ar  
    44   21   25 1   
    45   22   23 ar  
    46   22   47 1   
    47   23   24 ar  
    48   23   48 1   
    49   24   49 1   
    50   25   26 1   
    51   25   27 1   
    52   25   28 1   
    53   28   50 1   
    54   28   51 1   
    55   28   52 1   
    56   29   53 1   
    57   31   54 1   
    58   31   55 1   
    59   31   57 1   
@<TRIPOS>SUBSTRUCTURE
     1 0GS         1 TEMP              0 ****  ****    0 ROOT
