@<TRIPOS>MOLECULE
0GS
   55    52     1     0     0
SMALL
bcc


@<TRIPOS>ATOM
      1 BR1        -5.8510    1.6660    3.8210 br        1 0GS      0.058000
      2 C2         -3.9780    1.6790    4.4220 c2        1 0GS     -0.224000
      3 C3         -3.6850    1.8170    5.7770 c2        1 0GS      0.091000
      4 C4         -2.3240    1.8240    6.2160 c1        1 0GS      0.014000
      5 C5         -1.2720    1.6890    5.2650 c1        1 0GS     -0.108000
      6 C7         -1.5690    1.5530    3.9200 c1        1 0GS     -0.111000
      7 C8         -2.9380    1.5460    3.4840 c1        1 0GS     -0.067000
      8 C10        -0.4290    1.5010    2.8800 c3        1 0GS     -0.111000
      9 C13        -0.4060    0.1580    2.2250 c3        1 0GS     -0.099000
     10 C15         0.3750    0.2800    0.8880 c3        1 0GS      0.006000
     11 C17         0.6170   -1.0800    0.1380 c3        1 0GS     -0.005000
     12 C19         1.2610   -2.1600    0.9770 c3        1 0GS     -0.868000
     13 S22         0.3620   -2.3660    2.4340 s4        1 0GS      2.028800
     14 C23         0.1670   -0.8440    3.2070 c2        1 0GS     -0.862000
     15 O26         1.0830   -3.3170    3.3270 o         1 0GS     -0.536400
     16 O27        -0.9670   -2.9080    2.1180 o         1 0GS     -0.536400
     17 N28         1.4770   -0.8230   -1.0180 n3        1 0GS     -0.304000
     18 C30         1.0610   -1.6700   -2.1310 c3        1 0GS     -0.032000
     19 C33         1.7700   -1.2370   -3.3910 c2        1 0GS     -0.091000
     20 C34         1.0460   -0.9120   -4.5160 c2        1 0GS     -0.094000
     21 C36         1.7000   -0.5180   -5.6720 c1        1 0GS     -0.146000
     22 C37         3.0900   -0.4520   -5.6910 c1        1 0GS     -0.115500
     23 C39         3.8240   -0.7850   -4.5370 c1        1 0GS     -0.115500
     24 C41         3.1790   -1.1690   -3.4110 c1        1 0GS     -0.093000
     25 C43         0.8800   -0.2200   -6.9750 c3        1 0GS      0.311000
     26 F44         1.4320   -0.8890   -8.0130 f         1 0GS     -0.169500
     27 F45        -0.3590   -0.6090   -6.8130 f         1 0GS     -0.169500
     28 C46         0.9000    1.3250   -7.2710 c3        1 0GS     -0.255000
     29 O50        -0.3630    1.1510    0.0250 oh        1 0GS     -0.315000
     30 F52        -2.0450    2.0840    7.4690 f         1 0GS     -0.108000
     31 N53        -4.7560    1.8180    6.7470 n3        1 0GS     -0.339000
     32 H1         -0.2850    1.6930    5.5780 ha        1 0GS      0.150000
     33 H2         -3.1460    1.4470    2.5390 ha        1 0GS      0.147000
     34 H3          0.3660    1.6470    3.2940 hc        1 0GS      0.103500
     35 H4         -0.5830    2.2200    2.1710 hc        1 0GS      0.103500
     36 H5         -1.2870   -0.0950    2.0280 hc        1 0GS      0.113000
     37 H6          1.2760    0.7010    1.0790 h1        1 0GS      0.135000
     38 H7         -0.2950   -1.4320   -0.2010 h1        1 0GS      0.082000
     39 H8          1.4930   -2.9590    0.4100 h1        1 0GS      0.167000
     40 H9          2.1460   -1.8900    1.2600 h1        1 0GS      0.167000
     41 H10        -0.3240   -0.9130    3.9920 ha        1 0GS      0.163000
     42 H11         1.0870   -0.4980    3.5820 ha        1 0GS      0.163000
     43 H12         1.4160   -0.0030   -1.2430 hn        1 0GS      0.182000
     44 H14         0.1040   -1.5930   -2.2530 h1        1 0GS      0.081000
     45 H15         1.2800   -2.5570   -1.9450 h1        1 0GS      0.081000
     46 H16         0.1120   -0.9610   -4.4980 ha        1 0GS      0.146000
     47 H17         3.5670   -0.1690   -6.5220 ha        1 0GS      0.142000
     48 H18         4.7840   -0.7410   -4.5460 ha        1 0GS      0.142000
     49 H19         3.7020   -1.4070   -2.5920 ha        1 0GS      0.149000
     50 H20         1.7980    1.6090   -7.4500 hc        1 0GS      0.103667
     51 H21         0.3260    1.5190   -8.0630 hc        1 0GS      0.103667
     52 H22         0.5450    1.8210   -6.4710 hc        1 0GS      0.103667
     53 H23        -1.1730    0.7960   -0.1320 ho        1 0GS      0.202000
     54 H24        -4.5690    1.8380    7.6100 hn        1 0GS      0.217000
     55 H25        -5.6240    1.7950    6.4680 hn        1 0GS      0.217000
@<TRIPOS>BOND
     1    1    2 1   
     2    2    3 1   
     3    2    7 1   
     4    3    4 1   
     5    3   31 1   
     6    4   30 1   
     7    5    6 1   
     8    5   32 1   
     9    6    8 1   
    10    7   33 1   
    11    8    9 1   
    12    8   34 1   
    13    8   35 1   
    14    9   10 1   
    15    9   14 1   
    16    9   36 1   
    17   10   11 1   
    18   10   29 1   
    19   10   37 1   
    20   11   12 1   
    21   11   17 1   
    22   11   38 1   
    23   12   13 1   
    24   12   39 1   
    25   12   40 1   
    26   13   15 1   
    27   13   16 1   
    28   14   41 1   
    29   14   42 1   
    30   17   18 1   
    31   17   43 1   
    32   18   19 1   
    33   18   44 1   
    34   18   45 1   
    35   19   20 1   
    36   19   24 1   
    37   20   21 1   
    38   20   46 1   
    39   21   25 1   
    40   22   23 1   
    41   22   47 1   
    42   23   48 1   
    43   24   49 1   
    44   25   26 1   
    45   25   27 1   
    46   25   28 1   
    47   28   50 1   
    48   28   51 1   
    49   28   52 1   
    50   29   53 1   
    51   31   54 1   
    52   31   55 1   
@<TRIPOS>SUBSTRUCTURE
     1 0GS         1 TEMP              0 ****  ****    0 ROOT
