@<TRIPOS>MOLECULE
0GS
   56    58     1     0     0
SMALL
bcc


@<TRIPOS>ATOM
      1 Br1         0.1820   -0.1440    0.1410 br        1 0GS     -0.061100
      2 C2          2.0520   -0.0500    0.2030 ca        1 0GS     -0.108900
      3 C3          2.7350    0.0520    1.4450 ca        1 0GS      0.219600
      4 C4          4.1720    0.1390    1.3930 ca        1 0GS      0.039900
      5 C5          4.8540    0.1040    0.1770 ca        1 0GS     -0.099000
      6 C7          4.1490   -0.0120   -1.0260 ca        1 0GS     -0.166300
      7 C8          2.7560   -0.0790   -0.9980 ca        1 0GS     -0.053000
      8 C10         4.8760   -0.0230   -2.3240 c3        1 0GS     -0.013100
      9 C13         4.8870   -1.4120   -2.9610 c3        1 0GS     -0.054700
     10 C15         5.5590   -1.3690   -4.3420 c3        1 0GS      0.124100
     11 C17         5.4980   -2.7870   -4.9880 c3        1 0GS      0.159500
     12 C19         6.2960   -3.7570   -4.1470 c3        1 0GS     -0.328600
     13 S22         5.5630   -4.0100   -2.5730 s6        1 0GS      1.346000
     14 C23         5.6070   -2.3990   -2.0620 c3        1 0GS     -0.354600
     15 O26         6.4350   -4.7900   -1.8310 o         1 0GS     -0.614800
     16 O27         4.2600   -4.4330   -2.8140 o         1 0GS     -0.614800
     17 N28         5.9620   -2.7490   -6.4190 ny        1 0GS     -0.760000
     18 C30         5.4140   -3.8820   -7.2360 c3        1 0GS      0.175100
     19 C33         5.9690   -3.8610   -8.6190 ca        1 0GS     -0.190300
     20 C34         7.2740   -4.3130   -8.8470 ca        1 0GS     -0.084000
     21 C36         7.7780   -4.3530  -10.1460 ca        1 0GS     -0.141300
     22 C37         6.9730   -3.9580  -11.2210 ca        1 0GS     -0.054000
     23 C39         5.6740   -3.5050  -10.9910 ca        1 0GS     -0.119000
     24 C41         5.1700   -3.4510   -9.6910 ca        1 0GS     -0.078000
     25 C43         9.2060   -4.8300  -10.4160 c3        1 0GS      0.460900
     26 F44         9.7730   -5.4210   -9.3000 f         1 0GS     -0.228800
     27 F45         9.2240   -5.8760  -11.3210 f         1 0GS     -0.228800
     28 C46        10.0570   -3.6420  -10.9100 c3        1 0GS     -0.138100
     29 O50         4.8770   -0.5240   -5.2550 oh        1 0GS     -0.628800
     30 F52         4.8760    0.2580    2.5470 f         1 0GS     -0.133900
     31 N53         2.0830    0.0270    2.6480 nv        1 0GS     -0.847200
     32 H1          5.9520    0.1810    0.1800 ha        1 0GS      0.149000
     33 H2          2.2020   -0.1540   -1.9490 ha        1 0GS      0.144000
     34 H3          4.3660    0.7010   -3.0170 hc        1 0GS      0.054200
     35 H4          5.9320    0.3270   -2.1800 hc        1 0GS      0.054200
     36 H5          3.8160   -1.7440   -3.0920 hc        1 0GS      0.096700
     37 H6          6.6290   -1.0300   -4.2420 h1        1 0GS      0.062700
     38 H7          4.4080   -3.1100   -5.0150 hx        1 0GS      0.136700
     39 H8          6.3670   -4.7600   -4.6510 h1        1 0GS      0.125700
     40 H9          7.3540   -3.4040   -4.0220 h1        1 0GS      0.125700
     41 H10         6.6620   -2.0430   -1.8990 h1        1 0GS      0.148200
     42 H11         5.1340   -2.3040   -1.0360 h1        1 0GS      0.148200
     43 H12         6.9860   -2.7790   -6.4480 hn        1 0GS      0.457800
     44 H14         4.2890   -3.7850   -7.2480 hx        1 0GS      0.110700
     45 H15         5.6860   -4.8470   -6.7170 hx        1 0GS      0.110700
     46 H16         7.9000   -4.6670   -8.0110 ha        1 0GS      0.149000
     47 H17         7.3660   -4.0210  -12.2510 ha        1 0GS      0.168000
     48 H18         5.0400   -3.1990  -11.8390 ha        1 0GS      0.165000
     49 H19         4.1380   -3.1040   -9.5190 ha        1 0GS      0.148000
     50 H20        11.0970   -3.9910  -11.1170 hc        1 0GS      0.071367
     51 H21         9.6130   -3.2340  -11.8480 hc        1 0GS      0.071367
     52 H22        10.0820   -2.8510  -10.1260 hc        1 0GS      0.071367
     53 H23         4.8260    0.3620   -4.8700 ho        1 0GS      0.454000
     54 H24         2.5980    0.2240    3.4710 hn        1 0GS      0.447800
     55 H25         1.0960    0.1100    2.6750 hn        1 0GS      0.447800
     56 H282        5.6530   -1.8570   -6.8350 hn        1 0GS      0.457800
@<TRIPOS>BOND
     1    1    2 1   
     2    2    3 ar  
     3    2    7 ar  
     4    3    4 ar  
     5    3   31 1   
     6    4    5 ar  
     7    4   30 1   
     8    5    6 ar  
     9    5   32 1   
    10    6    7 ar  
    11    6    8 1   
    12    7   33 1   
    13    8    9 1   
    14    8   34 1   
    15    8   35 1   
    16    9   10 1   
    17    9   14 1   
    18    9   36 1   
    19   10   11 1   
    20   10   29 1   
    21   10   37 1   
    22   11   12 1   
    23   11   17 1   
    24   11   38 1   
    25   12   13 1   
    26   12   39 1   
    27   12   40 1   
    28   13   14 1   
    29   13   15 2   
    30   13   16 2   
    31   14   41 1   
    32   14   42 1   
    33   17   18 1   
    34   17   43 1   
    35   17   56 1   
    36   18   19 1   
    37   18   44 1   
    38   18   45 1   
    39   19   20 ar  
    40   19   24 ar  
    41   20   21 ar  
    42   20   46 1   
    43   21   22 ar  
    44   21   25 1   
    45   22   23 ar  
    46   22   47 1   
    47   23   24 ar  
    48   23   48 1   
    49   24   49 1   
    50   25   26 1   
    51   25   27 1   
    52   25   28 1   
    53   28   50 1   
    54   28   51 1   
    55   28   52 1   
    56   29   53 1   
    57   31   54 1   
    58   31   55 1   
@<TRIPOS>SUBSTRUCTURE
     1 0GS         1 TEMP              0 ****  ****    0 ROOT
