@<TRIPOS>MOLECULE
0GS
   55    57     1     0     0
SMALL
bcc


@<TRIPOS>ATOM
      1 BR1         6.0860   -1.6300   -1.7720 br        1 0GS     -0.083100
      2 C2          5.4510   -0.4860   -0.4270 ca        1 0GS     -0.082900
      3 C3          6.2530    0.5770    0.0580 ca        1 0GS      0.166600
      4 C4          5.6790    1.4160    1.0700 ca        1 0GS      0.046900
      5 C5          4.3960    1.1740    1.5690 ca        1 0GS     -0.111000
      6 C7          3.6380    0.1090    1.0780 ca        1 0GS     -0.116300
      7 C8          4.1730   -0.7100    0.0820 ca        1 0GS     -0.065000
      8 C10         2.2790   -0.1660    1.6200 c3        1 0GS     -0.022100
      9 C13         1.1770    0.3050    0.6760 c3        1 0GS     -0.027700
     10 C15        -0.1760   -0.2760    1.1230 c3        1 0GS      0.146100
     11 C17        -1.3100    0.1380    0.1370 c3        1 0GS      0.176500
     12 C19        -1.3950    1.6680    0.0790 c3        1 0GS     -0.358600
     13 S22         0.0140    2.4350   -0.5020 s6        1 0GS      1.340000
     14 C23         1.1210    1.8180    0.6280 c3        1 0GS     -0.331600
     15 O26        -0.1200    3.8160   -0.3100 o         1 0GS     -0.647800
     16 O27         0.3060    1.9890   -1.7950 o         1 0GS     -0.647800
     17 N28        -2.5560   -0.5180    0.4990 n3        1 0GS     -0.828200
     18 C30        -3.4950   -0.6550   -0.6010 c3        1 0GS      0.210100
     19 C33        -4.8620   -1.0860   -0.1540 ca        1 0GS     -0.103300
     20 C34        -5.9820   -0.3340   -0.5190 ca        1 0GS     -0.093000
     21 C36        -7.2580   -0.7540   -0.1380 ca        1 0GS     -0.152300
     22 C37        -7.4200   -1.9270    0.6050 ca        1 0GS     -0.094000
     23 C39        -6.3010   -2.6740    0.9710 ca        1 0GS     -0.134000
     24 C41        -5.0250   -2.2570    0.5940 ca        1 0GS     -0.095000
     25 C43        -8.4770    0.0850   -0.5000 c3        1 0GS      0.460900
     26 F44        -8.3110    0.7690   -1.6930 f         1 0GS     -0.239800
     27 F45        -9.5820   -0.6970   -0.7940 f         1 0GS     -0.239800
     28 C46        -8.7790    1.0580    0.6600 c3        1 0GS     -0.137100
     29 O50        -0.0030   -1.6830    1.1300 oh        1 0GS     -0.595800
     30 F52         6.3920    2.4660    1.5540 f         1 0GS     -0.143900
     31 N53         7.5610    0.7680   -0.3560 nh        1 0GS     -0.828200
     32 H1          3.9950    1.8330    2.3540 ha        1 0GS      0.148000
     33 H2          3.5670   -1.5480   -0.3040 ha        1 0GS      0.156000
     34 H3          2.1620   -1.2740    1.7800 hc        1 0GS      0.065700
     35 H4          2.1510    0.3330    2.6170 hc        1 0GS      0.065700
     36 H5          1.4030   -0.0900   -0.3560 hc        1 0GS      0.086700
     37 H6         -0.4250    0.0790    2.1620 h1        1 0GS      0.037700
     38 H7         -1.0090   -0.2370   -0.8890 h1        1 0GS      0.090700
     39 H8         -2.2630    1.9480   -0.5800 h1        1 0GS      0.115700
     40 H9         -1.6630    2.0550    1.0980 h1        1 0GS      0.115700
     41 H10         0.9080    2.2080    1.6590 h1        1 0GS      0.124700
     42 H11         2.1630    2.1820    0.3950 h1        1 0GS      0.124700
     43 H12        -2.9820   -0.0600    1.2830 hn        1 0GS      0.367800
     44 H14        -3.5880    0.3000   -1.2000 h1        1 0GS      0.048200
     45 H15        -3.0800   -1.4430   -1.2960 h1        1 0GS      0.048200
     46 H16        -5.8690    0.5830   -1.1200 ha        1 0GS      0.147000
     47 H17        -8.4300   -2.2590    0.8880 ha        1 0GS      0.147000
     48 H18        -6.4270   -3.5980    1.5540 ha        1 0GS      0.140000
     49 H19        -4.1430   -2.8510    0.8780 ha        1 0GS      0.146000
     50 H20        -7.9010    1.7260    0.8150 hc        1 0GS      0.064367
     51 H21        -9.6750    1.6730    0.4100 hc        1 0GS      0.064367
     52 H22        -8.9770    0.4710    1.5860 hc        1 0GS      0.064367
     53 H23        -0.8570   -2.0840    1.3370 ho        1 0GS      0.425000
     54 H24         7.8130    0.3820   -1.2370 hn        1 0GS      0.418800
     55 H25         7.9530    1.6580   -0.1480 hn        1 0GS      0.418800
@<TRIPOS>BOND
     1    1    2 1   
     2    2    3 ar  
     3    2    7 ar  
     4    3    4 ar  
     5    3   31 1   
     6    4    5 ar  
     7    4   30 1   
     8    5    6 ar  
     9    5   32 1   
    10    6    7 ar  
    11    6    8 1   
    12    7   33 1   
    13    8    9 1   
    14    8   34 1   
    15    8   35 1   
    16    9   10 1   
    17    9   14 1   
    18    9   36 1   
    19   10   11 1   
    20   10   29 1   
    21   10   37 1   
    22   11   12 1   
    23   11   17 1   
    24   11   38 1   
    25   12   13 1   
    26   12   39 1   
    27   12   40 1   
    28   13   14 1   
    29   13   15 2   
    30   13   16 2   
    31   14   41 1   
    32   14   42 1   
    33   17   18 1   
    34   17   43 1   
    35   18   19 1   
    36   18   44 1   
    37   18   45 1   
    38   19   20 ar  
    39   19   24 ar  
    40   20   21 ar  
    41   20   46 1   
    42   21   22 ar  
    43   21   25 1   
    44   22   23 ar  
    45   22   47 1   
    46   23   24 ar  
    47   23   48 1   
    48   24   49 1   
    49   25   26 1   
    50   25   27 1   
    51   25   28 1   
    52   28   50 1   
    53   28   51 1   
    54   28   52 1   
    55   29   53 1   
    56   31   54 1   
    57   31   55 1   
@<TRIPOS>SUBSTRUCTURE
     1 0GS         1 TEMP              0 ****  ****    0 ROOT
