@<TRIPOS>MOLECULE
0GS
   56    58     1     0     0
SMALL
bcc


@<TRIPOS>ATOM
      1 BR1         0.1750   -0.1680    0.1420 br        1 0GS     -0.061100
      2 C2          2.0440   -0.0580    0.2010 ca        1 0GS     -0.108900
      3 C3          2.7280    0.0550    1.4410 ca        1 0GS      0.219600
      4 C4          4.1630    0.1530    1.3870 ca        1 0GS      0.039900
      5 C5          4.8440    0.1190    0.1700 ca        1 0GS     -0.099000
      6 C7          4.1390   -0.0070   -1.0310 ca        1 0GS     -0.166300
      7 C8          2.7460   -0.0870   -1.0010 ca        1 0GS     -0.053000
      8 C10         4.8630   -0.0180   -2.3300 c3        1 0GS     -0.013100
      9 C13         4.8840   -1.4090   -2.9630 c3        1 0GS     -0.054700
     10 C15         5.5530   -1.3650   -4.3450 c3        1 0GS      0.124100
     11 C17         5.5000   -2.7860   -4.9860 c3        1 0GS      0.159500
     12 C19         6.3070   -3.7480   -4.1440 c3        1 0GS     -0.328600
     13 S22         5.5780   -4.0000   -2.5680 s6        1 0GS      1.346000
     14 C23         5.6120   -2.3880   -2.0620 c3        1 0GS     -0.354600
     15 O26         6.4570   -4.7720   -1.8250 o         1 0GS     -0.614800
     16 O27         4.2770   -4.4340   -2.8050 o         1 0GS     -0.614800
     17 N28         5.9620   -2.7490   -6.4180 n4        1 0GS     -0.760000
     18 C30         5.4190   -3.8890   -7.2300 c3        1 0GS      0.175100
     19 C33         5.9730   -3.8700   -8.6140 ca        1 0GS     -0.190300
     20 C34         7.2790   -4.3170   -8.8420 ca        1 0GS     -0.084000
     21 C36         7.7820   -4.3590  -10.1420 ca        1 0GS     -0.141300
     22 C37         6.9750   -3.9700  -11.2170 ca        1 0GS     -0.054000
     23 C39         5.6740   -3.5230  -10.9870 ca        1 0GS     -0.119000
     24 C41         5.1710   -3.4660   -9.6870 ca        1 0GS     -0.078000
     25 C43         9.2120   -4.8310  -10.4120 c3        1 0GS      0.460900
     26 F44         9.7830   -5.4170   -9.2940 f         1 0GS     -0.228800
     27 F45         9.2340   -5.8780  -11.3140 f         1 0GS     -0.228800
     28 C46        10.0580   -3.6400  -10.9090 c3        1 0GS     -0.138100
     29 O50         4.8630   -0.5280   -5.2600 oh        1 0GS     -0.628800
     30 F52         4.8690    0.2830    2.5400 f         1 0GS     -0.133900
     31 N53         2.0780    0.0290    2.6450 nh        1 0GS     -0.847200
     32 H1          5.9420    0.2060    0.1720 ha        1 0GS      0.149000
     33 H2          2.1910   -0.1700   -1.9510 ha        1 0GS      0.144000
     34 H3          5.9180    0.3400   -2.1890 hc        1 0GS      0.054200
     35 H4          4.3480    0.7000   -3.0250 hc        1 0GS      0.054200
     36 H5          3.8150   -1.7490   -3.0910 hc        1 0GS      0.096700
     37 H6          6.6200   -1.0190   -4.2480 h1        1 0GS      0.062700
     38 H7          4.4120   -3.1160   -5.0100 hx        1 0GS      0.136700
     39 H8          6.3830   -4.7510   -4.6440 h1        1 0GS      0.125700
     40 H9          7.3620   -3.3870   -4.0220 h1        1 0GS      0.125700
     41 H10         5.1410   -2.2930   -1.0350 h1        1 0GS      0.148200
     42 H11         6.6650   -2.0230   -1.9020 h1        1 0GS      0.148200
     43 H12         5.6460   -1.8610   -6.8360 hn        1 0GS      0.457800
     44 H14         4.2940   -3.7980   -7.2420 hx        1 0GS      0.110700
     45 H15         5.6970   -4.8500   -6.7080 hx        1 0GS      0.110700
     46 H16         7.9080   -4.6660   -8.0060 ha        1 0GS      0.149000
     47 H17         7.3670   -4.0350  -12.2470 ha        1 0GS      0.168000
     48 H18         5.0380   -3.2220  -11.8350 ha        1 0GS      0.165000
     49 H19         4.1380   -3.1240   -9.5150 ha        1 0GS      0.148000
     50 H20        11.0990   -3.9860  -11.1160 hc        1 0GS      0.071367
     51 H21        10.0810   -2.8480  -10.1270 hc        1 0GS      0.071367
     52 H22         9.6110   -3.2360  -11.8470 hc        1 0GS      0.071367
     53 H23         4.8070    0.3580   -4.8780 ho        1 0GS      0.454000
     54 H24         1.0900    0.1030    2.6740 hn        1 0GS      0.447800
     55 H25         2.5920    0.2340    3.4670 hn        1 0GS      0.447800
     56 H282        6.9860   -2.7730   -6.4490 hn        1 0GS      0.457800
@<TRIPOS>BOND
     1    1    2 1   
     2    2    3 ar  
     3    2    7 ar  
     4    3    4 ar  
     5    3   31 1   
     6    4    5 ar  
     7    4   30 1   
     8    5    6 ar  
     9    5   32 1   
    10    6    7 ar  
    11    6    8 1   
    12    7   33 1   
    13    8    9 1   
    14    8   34 1   
    15    8   35 1   
    16    9   10 1   
    17    9   14 1   
    18    9   36 1   
    19   10   11 1   
    20   10   29 1   
    21   10   37 1   
    22   11   12 1   
    23   11   17 1   
    24   11   38 1   
    25   12   13 1   
    26   12   39 1   
    27   12   40 1   
    28   13   14 1   
    29   13   15 2   
    30   13   16 2   
    31   14   41 1   
    32   14   42 1   
    33   17   18 1   
    34   17   43 1   
    35   17   56 1   
    36   18   19 1   
    37   18   44 1   
    38   18   45 1   
    39   19   20 ar  
    40   19   24 ar  
    41   20   21 ar  
    42   20   46 1   
    43   21   22 ar  
    44   21   25 1   
    45   22   23 ar  
    46   22   47 1   
    47   23   24 ar  
    48   23   48 1   
    49   24   49 1   
    50   25   26 1   
    51   25   27 1   
    52   25   28 1   
    53   28   50 1   
    54   28   51 1   
    55   28   52 1   
    56   29   53 1   
    57   31   54 1   
    58   31   55 1   
@<TRIPOS>SUBSTRUCTURE
     1 0GS         1 TEMP              0 ****  ****    0 ROOT
