@<TRIPOS>MOLECULE
0GT
   69    64     1     0     0
SMALL
bcc


@<TRIPOS>ATOM
      1 F1         -9.7500   -1.7130    0.3400 f         1 0GT     -0.180000
      2 C2         -9.4430   -1.8180    1.6400 c3        1 0GT      0.213000
      3 F4        -10.4610   -2.4110    2.2960 f         1 0GT     -0.180000
      4 C5         -8.1820   -2.6530    1.7980 c3        1 0GT     -0.136000
      5 C8         -7.3600   -2.5880    0.5040 c2        1 0GT     -0.171000
      6 C9         -7.9560   -2.9840   -0.6670 c1        1 0GT     -0.050000
      7 N11        -7.0650   -2.7800   -1.6860 n2        1 0GT     -0.208000
      8 C13        -5.9040   -2.2530   -1.1410 c1        1 0GT     -0.002000
      9 C14        -6.0850   -2.1350    0.2040 c1        1 0GT     -0.074000
     10 C15        -5.0160   -1.6920    1.0270 c1        1 0GT     -0.087000
     11 C17        -3.7910   -1.3800    0.4630 c1        1 0GT     -0.103000
     12 C18        -3.6080   -1.5000   -0.9060 c1        1 0GT     -0.108000
     13 C20        -4.6570   -1.9350   -1.7140 c1        1 0GT     -0.134000
     14 C22        -2.6560   -0.8040    1.3700 c3        1 0GT     -0.111000
     15 C25        -1.3090   -1.4510    0.9780 c3        1 0GT     -0.098000
     16 C27        -0.2000   -0.3530    1.0350 c3        1 0GT      0.013000
     17 C29         1.2630   -0.8790    0.7990 c3        1 0GT      0.026000
     18 C31         1.6730   -2.0300    1.6930 c3        1 0GT     -0.871000
     19 S34         0.4990   -3.2850    1.5810 s4        1 0GT      2.029800
     20 C35        -1.0700   -2.6370    1.8770 c2        1 0GT     -0.864000
     21 O38         0.5200   -3.8520    0.2400 o         1 0GT     -0.538400
     22 O39         0.8110   -4.3120    2.5370 o         1 0GT     -0.538400
     23 N40         2.1760    0.2040    1.0090 n3        1 0GT     -0.297000
     24 C42         3.2350    0.1530    0.0010 c3        1 0GT     -0.035000
     25 C45         4.0850    1.4900    0.0600 c2        1 0GT     -0.090000
     26 C46         4.8090    1.9120   -1.0630 c2        1 0GT     -0.120000
     27 C48         5.5910    3.0680   -0.9940 c1        1 0GT     -0.059000
     28 C49         5.6510    3.7990    0.1880 c1        1 0GT     -0.129000
     29 C51         4.9340    3.3810    1.3010 c1        1 0GT     -0.129000
     30 C53         4.1460    2.2190    1.2360 c1        1 0GT     -0.114000
     31 C55         6.3750    3.5480   -2.2390 c3        1 0GT     -0.017000
     32 C56         5.3900    3.8220   -3.3900 c3        1 0GT     -0.203667
     33 C60         7.1340    4.8350   -1.9000 c3        1 0GT     -0.203667
     34 C64         7.3650    2.4780   -2.6570 c3        1 0GT     -0.203667
     35 O68        -0.4790    0.6010    0.0770 oh        1 0GT     -0.323000
     36 H1         -9.2920   -0.9230    2.0130 h2        1 0GT      0.112000
     37 H2         -7.6380   -2.2960    2.5540 hc        1 0GT      0.113500
     38 H3         -8.4250   -3.5750    1.9820 hc        1 0GT      0.113500
     39 H4         -8.8250   -3.4170   -0.7460 DU        1 0GT      0.214000
     40 H5         -7.2120   -2.9660   -2.5900 DU        1 0GT      0.214000
     41 H6         -5.1420   -1.6110    1.9810 ha        1 0GT      0.134000
     42 H7         -2.7390   -1.2800   -1.3060 ha        1 0GT      0.137000
     43 H8         -4.5290   -2.0190   -2.6700 ha        1 0GT      0.138000
     44 H9         -2.6000    0.1800    1.2480 hc        1 0GT      0.089000
     45 H10        -2.8530   -1.0030    2.3030 hc        1 0GT      0.089000
     46 H11        -1.3780   -1.7720    0.0610 hc        1 0GT      0.125000
     47 H12        -0.2360    0.0770    1.9280 h1        1 0GT      0.091000
     48 H13         1.3370   -1.1710   -0.1340 h1        1 0GT      0.093000
     49 H14         2.5690   -2.3780    1.6390 h1        1 0GT      0.165500
     50 H15         1.6860   -1.6690    2.5870 h1        1 0GT      0.165500
     51 H16        -1.8590   -3.2010    1.8370 ha        1 0GT      0.164000
     52 H17        -1.0710   -2.3960    2.8320 ha        1 0GT      0.164000
     53 H18         1.7340    0.9910    0.9420 hn        1 0GT      0.180000
     54 H20         3.8190   -0.6140    0.1790 h1        1 0GT      0.079000
     55 H21         2.8280    0.0570   -0.9060 h1        1 0GT      0.079000
     56 H22         4.7690    1.4000   -1.8890 ha        1 0GT      0.133000
     57 H23         6.1810    4.5820    0.2340 ha        1 0GT      0.132500
     58 H24         4.9780    3.9010    2.1380 ha        1 0GT      0.132500
     59 H25         3.6520    1.9310    2.0050 ha        1 0GT      0.143000
     60 H26         5.8720    4.2220   -4.1480 hc        1 0GT      0.076333
     61 H27         4.9740    2.9760   -3.6760 hc        1 0GT      0.076333
     62 H28         4.6980    4.4370   -3.0830 hc        1 0GT      0.076333
     63 H29         7.6700    5.1060   -2.6670 hc        1 0GT      0.076333
     64 H30         6.4950    5.5440   -1.6810 hc        1 0GT      0.076333
     65 H31         7.7280    4.6730   -1.1200 hc        1 0GT      0.076333
     66 H32         7.8690    2.1610   -1.8550 hc        1 0GT      0.076333
     67 H33         6.8910    1.7360   -3.0540 hc        1 0GT      0.076333
     68 H34         8.0020    2.8560   -3.3200 hc        1 0GT      0.076333
     69 H35        -0.6200    1.4000    0.4800 ho        1 0GT      0.209000
@<TRIPOS>BOND
     1    1    2 1   
     2    2    3 1   
     3    2    4 1   
     4    2   36 1   
     5    4    5 1   
     6    4   37 1   
     7    4   38 1   
     8    5    6 1   
     9    5    9 1   
    10    6    7 1   
    11    7    8 1   
    12    8   13 1   
    13    9   10 1   
    14   10   41 1   
    15   11   12 1   
    16   11   14 1   
    17   12   42 1   
    18   13   43 1   
    19   14   15 1   
    20   14   44 1   
    21   14   45 1   
    22   15   16 1   
    23   15   20 1   
    24   15   46 1   
    25   16   17 1   
    26   16   35 1   
    27   16   47 1   
    28   17   18 1   
    29   17   23 1   
    30   17   48 1   
    31   18   19 1   
    32   18   49 1   
    33   18   50 1   
    34   19   21 1   
    35   19   22 1   
    36   20   51 1   
    37   20   52 1   
    38   23   24 1   
    39   23   53 1   
    40   24   25 1   
    41   24   54 1   
    42   24   55 1   
    43   25   26 1   
    44   25   30 1   
    45   26   27 1   
    46   26   56 1   
    47   27   31 1   
    48   28   29 1   
    49   28   57 1   
    50   29   58 1   
    51   30   59 1   
    52   31   32 1   
    53   31   33 1   
    54   31   34 1   
    55   32   60 1   
    56   32   61 1   
    57   32   62 1   
    58   33   63 1   
    59   33   64 1   
    60   33   65 1   
    61   34   66 1   
    62   34   67 1   
    63   34   68 1   
    64   35   69 1   
@<TRIPOS>SUBSTRUCTURE
     1 0GT         1 TEMP              0 ****  ****    0 ROOT
