@<TRIPOS>MOLECULE
0GT
   70    73     1     0     0
SMALL
bcc


@<TRIPOS>ATOM
      1 F1          1.3770    0.0530    1.3230 f         1 0GT     -0.250800
      2 C2          1.6030    0.1470   -0.0330 c3        1 0GT      0.398900
      3 F4          2.8180    0.7980   -0.0810 f         1 0GT     -0.250800
      4 C5          1.6550   -1.2520   -0.6990 c3        1 0GT     -0.059200
      5 C8          1.3230   -1.2020   -2.1240 cc        1 0GT     -0.158400
      6 C9          0.2110   -1.7940   -2.7300 cd        1 0GT     -0.072100
      7 N11         0.2450   -1.5870   -4.1090 na        1 0GT     -0.179400
      8 C13         1.3890   -0.8500   -4.4170 ca        1 0GT     -0.039200
      9 C14         2.0970   -0.5850   -3.1830 ca        1 0GT     -0.084800
     10 C15         3.2790    0.1530   -3.2140 ca        1 0GT     -0.079000
     11 C17         3.7610    0.6130   -4.4360 ca        1 0GT     -0.140300
     12 C18         3.0620    0.3440   -5.6330 ca        1 0GT     -0.113000
     13 C20         1.8820   -0.3790   -5.6450 ca        1 0GT     -0.126000
     14 C22         5.0080    1.4240   -4.4840 c3        1 0GT     -0.021100
     15 C25         6.2210    0.5740   -4.8610 c3        1 0GT     -0.051700
     16 C27         7.4150    1.4890   -5.1600 c3        1 0GT      0.119100
     17 C29         8.6550    0.6300   -5.5670 c3        1 0GT      0.123500
     18 C31         9.0430   -0.2830   -4.4260 c3        1 0GT     -0.324600
     19 S34         7.8050   -1.4820   -4.1080 s6        1 0GT      1.345000
     20 C35         6.5560   -0.4020   -3.7520 c3        1 0GT     -0.354600
     21 O38         7.5790   -2.1400   -5.3150 o         1 0GT     -0.618300
     22 O39         8.1920   -2.1930   -2.9820 o         1 0GT     -0.618300
     23 N40         9.7840    1.5220   -6.0000 n4        1 0GT     -0.760000
     24 C42        10.7540    0.8400   -6.9200 c3        1 0GT      0.178100
     25 C45        11.8690    1.7600   -7.2790 ca        1 0GT     -0.190300
     26 C46        13.0910    1.6700   -6.6080 ca        1 0GT     -0.099000
     27 C48        14.1640    2.5040   -6.9590 ca        1 0GT     -0.046300
     28 C49        13.9800    3.4290   -7.9930 ca        1 0GT     -0.082000
     29 C51        12.7580    3.5190   -8.6650 ca        1 0GT     -0.116000
     30 C53        11.7000    2.6870   -8.3140 ca        1 0GT     -0.112000
     31 C55        15.4700    2.3690   -6.2180 c3        1 0GT     -0.017700
     32 C56        16.0110    0.9540   -6.4050 c3        1 0GT     -0.090433
     33 C60        16.5210    3.3520   -6.7180 c3        1 0GT     -0.090433
     34 C64        15.2390    2.6310   -4.7320 c3        1 0GT     -0.090433
     35 O68         7.1680    2.4110   -6.2030 oh        1 0GT     -0.606800
     36 H1          0.8050    0.7870   -0.5130 h2        1 0GT      0.077700
     37 H2          2.6850   -1.6770   -0.5550 hc        1 0GT      0.077200
     38 H3          0.9310   -1.9150   -0.1530 hc        1 0GT      0.077200
     39 H4         -0.6060   -2.3560   -2.2710 h4        1 0GT      0.180000
     40 H5         -0.4290   -1.8980   -4.7580 hn        1 0GT      0.311700
     41 H6          3.8020    0.3810   -2.2710 ha        1 0GT      0.146000
     42 H7          3.4640    0.7300   -6.5830 ha        1 0GT      0.123000
     43 H8          1.3450   -0.5740   -6.5840 ha        1 0GT      0.145000
     44 H9          4.8890    2.2510   -5.2360 hc        1 0GT      0.062700
     45 H10         5.1930    1.9070   -3.4870 hc        1 0GT      0.062700
     46 H11         5.9680   -0.0100   -5.7950 hc        1 0GT      0.085700
     47 H12         7.6620    2.1190   -4.2580 h1        1 0GT      0.096700
     48 H13         8.3740    0.0030   -6.4710 hx        1 0GT      0.124700
     49 H14         9.2510    0.3070   -3.4950 h1        1 0GT      0.124200
     50 H15         9.9960   -0.8310   -4.6600 h1        1 0GT      0.124200
     51 H16         5.5980   -0.9630   -3.5210 h1        1 0GT      0.151200
     52 H17         6.7550    0.1740   -2.8050 h1        1 0GT      0.151200
     53 H18        10.2870    1.8610   -5.1730 hn        1 0GT      0.457800
     54 H20        10.1850    0.5220   -7.8420 hx        1 0GT      0.105200
     55 H21        11.1390   -0.0820   -6.3980 hx        1 0GT      0.105200
     56 H22        13.2230    0.9270   -5.8050 ha        1 0GT      0.139000
     57 H23        14.8000    4.1010   -8.2990 ha        1 0GT      0.162000
     58 H24        12.6360    4.2480   -9.4810 ha        1 0GT      0.157000
     59 H25        10.7450    2.7490   -8.8590 ha        1 0GT      0.136000
     60 H26        15.3000    0.1980   -5.9950 hc        1 0GT      0.044033
     61 H27        16.9850    0.8490   -5.8680 hc        1 0GT      0.044033
     62 H28        16.1770    0.7410   -7.4880 hc        1 0GT      0.044033
     63 H29        16.7480    3.1750   -7.7960 hc        1 0GT      0.044033
     64 H30        16.1770    4.4050   -6.5810 hc        1 0GT      0.044033
     65 H31        17.4660    3.2150   -6.1360 hc        1 0GT      0.044033
     66 H32        14.5200    1.8930   -4.3050 hc        1 0GT      0.044033
     67 H33        14.8360    3.6600   -4.5760 hc        1 0GT      0.044033
     68 H34        16.2060    2.5400   -4.1800 hc        1 0GT      0.044033
     69 H35         6.4680    2.0640   -6.7740 ho        1 0GT      0.439000
     70 H402        9.3810    2.3400   -6.4850 hn        1 0GT      0.457800
@<TRIPOS>BOND
     1    1    2 1   
     2    2    3 1   
     3    2    4 1   
     4    2   36 1   
     5    4    5 1   
     6    4   37 1   
     7    4   38 1   
     8    5    6 2   
     9    5    9 1   
    10    6    7 1   
    11    6   39 1   
    12    7    8 1   
    13    7   40 1   
    14    8    9 ar  
    15    8   13 ar  
    16    9   10 ar  
    17   10   11 ar  
    18   10   41 1   
    19   11   12 ar  
    20   11   14 1   
    21   12   13 ar  
    22   12   42 1   
    23   13   43 1   
    24   14   15 1   
    25   14   44 1   
    26   14   45 1   
    27   15   16 1   
    28   15   20 1   
    29   15   46 1   
    30   16   17 1   
    31   16   35 1   
    32   16   47 1   
    33   17   18 1   
    34   17   23 1   
    35   17   48 1   
    36   18   19 1   
    37   18   49 1   
    38   18   50 1   
    39   19   20 1   
    40   19   21 2   
    41   19   22 2   
    42   20   51 1   
    43   20   52 1   
    44   23   24 1   
    45   23   53 1   
    46   23   70 1   
    47   24   25 1   
    48   24   54 1   
    49   24   55 1   
    50   25   26 ar  
    51   25   30 ar  
    52   26   27 ar  
    53   26   56 1   
    54   27   28 ar  
    55   27   31 1   
    56   28   29 ar  
    57   28   57 1   
    58   29   30 ar  
    59   29   58 1   
    60   30   59 1   
    61   31   32 1   
    62   31   33 1   
    63   31   34 1   
    64   32   60 1   
    65   32   61 1   
    66   32   62 1   
    67   33   63 1   
    68   33   64 1   
    69   33   65 1   
    70   34   66 1   
    71   34   67 1   
    72   34   68 1   
    73   35   69 1   
@<TRIPOS>SUBSTRUCTURE
     1 0GT         1 TEMP              0 ****  ****    0 ROOT
