@<TRIPOS>MOLECULE
0GT
   69    72     1     0     0
SMALL
bcc


@<TRIPOS>ATOM
      1 F1         -9.1220    0.8960   -1.8440 f         1 0GT     -0.252300
      2 C2         -7.7540    0.9900   -1.9790 c3        1 0GT      0.393900
      3 F4         -7.6200    1.9460   -2.9640 f         1 0GT     -0.252300
      4 C5         -7.0530    1.4230   -0.6650 c3        1 0GT     -0.052200
      5 C8         -6.7500    0.2720    0.1880 cc        1 0GT     -0.164400
      6 C9         -7.5870   -0.2980    1.1510 cd        1 0GT     -0.078100
      7 N11        -6.9460   -1.3690    1.7720 na        1 0GT     -0.186400
      8 C13        -5.6710   -1.5030    1.2170 ca        1 0GT     -0.049200
      9 C14        -5.5100   -0.4780    0.2090 ca        1 0GT     -0.085800
     10 C15        -4.3090   -0.3900   -0.4940 ca        1 0GT     -0.091000
     11 C17        -3.2900   -1.2950   -0.2160 ca        1 0GT     -0.107300
     12 C18        -3.4650   -2.2960    0.7650 ca        1 0GT     -0.107000
     13 C20        -4.6380   -2.4140    1.4890 ca        1 0GT     -0.136000
     14 C22        -2.0030   -1.2340   -0.9640 c3        1 0GT     -0.025100
     15 C25        -0.8610   -0.7060   -0.1010 c3        1 0GT     -0.026700
     16 C27         0.4800   -0.9170   -0.8250 c3        1 0GT      0.146100
     17 C29         1.6710   -0.4440    0.0620 c3        1 0GT      0.176500
     18 C31         1.4880    1.0410    0.4020 c3        1 0GT     -0.358600
     19 S34         0.0820    1.3930    1.3020 s6        1 0GT      1.339000
     20 C35        -1.0690    0.7580    0.2300 c3        1 0GT     -0.332600
     21 O38         0.0960    0.6900    2.5110 o         1 0GT     -0.650300
     22 O39        -0.0670    2.7850    1.3710 o         1 0GT     -0.650300
     23 N40         2.9360   -0.7590   -0.5800 n3        1 0GT     -0.828200
     24 C42         4.0550   -0.8780    0.3390 c3        1 0GT      0.211100
     25 C45         5.3900   -0.7980   -0.3420 ca        1 0GT     -0.103300
     26 C46         6.3430    0.1210    0.1010 ca        1 0GT     -0.121000
     27 C48         7.6110    0.1910   -0.4970 ca        1 0GT     -0.064300
     28 C49         7.9020   -0.6780   -1.5540 ca        1 0GT     -0.122000
     29 C51         6.9500   -1.5960   -2.0000 ca        1 0GT     -0.132000
     30 C53         5.6970   -1.6620   -1.3990 ca        1 0GT     -0.115000
     31 C55         8.6080    1.1950    0.0190 c3        1 0GT     -0.010700
     32 C56         8.8920    0.9160    1.4930 c3        1 0GT     -0.086100
     33 C60         9.9300    1.1420   -0.7370 c3        1 0GT     -0.086100
     34 C64         8.0330    2.6020   -0.1270 c3        1 0GT     -0.086100
     35 O68         0.5640   -2.3100   -1.0770 oh        1 0GT     -0.596800
     36 H1         -7.3350    0.0040   -2.3420 h2        1 0GT      0.073700
     37 H2         -6.1060    1.9550   -0.9460 hc        1 0GT      0.073200
     38 H3         -7.7160    2.1520   -0.1300 hc        1 0GT      0.073200
     39 H4         -8.6030   -0.0120    1.4350 h4        1 0GT      0.173000
     40 H5         -7.3200   -1.9310    2.4890 hn        1 0GT      0.302700
     41 H6         -4.1780    0.3890   -1.2600 ha        1 0GT      0.133000
     42 H7         -2.6370   -2.9980    0.9550 ha        1 0GT      0.139000
     43 H8         -4.7580   -3.1960    2.2520 ha        1 0GT      0.136000
     44 H9         -1.7330   -2.2670   -1.3190 hc        1 0GT      0.062700
     45 H10        -2.1100   -0.5830   -1.8720 hc        1 0GT      0.062700
     46 H11        -0.8390   -1.3010    0.8580 hc        1 0GT      0.084700
     47 H12         0.4850   -0.3560   -1.8010 h1        1 0GT      0.037700
     48 H13         1.6180   -1.0340    1.0280 h1        1 0GT      0.088700
     49 H14         2.3900    1.3840    0.9810 h1        1 0GT      0.116200
     50 H15         1.5070    1.6350   -0.5500 h1        1 0GT      0.116200
     51 H16        -1.1030    1.3450   -0.7270 h1        1 0GT      0.126700
     52 H17        -2.1070    0.8550    0.6600 h1        1 0GT      0.126700
     53 H18         3.1350   -0.1030   -1.3120 hn        1 0GT      0.368800
     54 H20         4.0130   -0.0990    1.1580 h1        1 0GT      0.044200
     55 H21         3.9640   -1.8870    0.8370 h1        1 0GT      0.044200
     56 H22         6.0980    0.7980    0.9340 ha        1 0GT      0.132000
     57 H23         8.8840   -0.6540   -2.0500 ha        1 0GT      0.136000
     58 H24         7.1950   -2.2740   -2.8310 ha        1 0GT      0.133000
     59 H25         4.9490   -2.3910   -1.7470 ha        1 0GT      0.141000
     60 H26         9.3060   -0.1120    1.6190 hc        1 0GT      0.037478
     61 H27         9.6350    1.6530    1.8820 hc        1 0GT      0.037478
     62 H28         7.9580    1.0020    2.0980 hc        1 0GT      0.037478
     63 H29         9.7750    1.3660   -1.8190 hc        1 0GT      0.037478
     64 H30        10.6330    1.9020   -0.3180 hc        1 0GT      0.037478
     65 H31        10.4020    0.1350   -0.6360 hc        1 0GT      0.037478
     66 H32         7.0910    2.7060    0.4620 hc        1 0GT      0.037478
     67 H33         8.7700    3.3530    0.2470 hc        1 0GT      0.037478
     68 H34         7.8120    2.8200   -1.1980 hc        1 0GT      0.037478
     69 H35         1.4300   -2.4870   -1.4640 ho        1 0GT      0.425000
@<TRIPOS>BOND
     1    1    2 1   
     2    2    3 1   
     3    2    4 1   
     4    2   36 1   
     5    4    5 1   
     6    4   37 1   
     7    4   38 1   
     8    5    6 2   
     9    5    9 1   
    10    6    7 1   
    11    6   39 1   
    12    7    8 1   
    13    7   40 1   
    14    8    9 ar  
    15    8   13 ar  
    16    9   10 ar  
    17   10   11 ar  
    18   10   41 1   
    19   11   12 ar  
    20   11   14 1   
    21   12   13 ar  
    22   12   42 1   
    23   13   43 1   
    24   14   15 1   
    25   14   44 1   
    26   14   45 1   
    27   15   16 1   
    28   15   20 1   
    29   15   46 1   
    30   16   17 1   
    31   16   35 1   
    32   16   47 1   
    33   17   18 1   
    34   17   23 1   
    35   17   48 1   
    36   18   19 1   
    37   18   49 1   
    38   18   50 1   
    39   19   20 1   
    40   19   21 2   
    41   19   22 2   
    42   20   51 1   
    43   20   52 1   
    44   23   24 1   
    45   23   53 1   
    46   24   25 1   
    47   24   54 1   
    48   24   55 1   
    49   25   26 ar  
    50   25   30 ar  
    51   26   27 ar  
    52   26   56 1   
    53   27   28 ar  
    54   27   31 1   
    55   28   29 ar  
    56   28   57 1   
    57   29   30 ar  
    58   29   58 1   
    59   30   59 1   
    60   31   32 1   
    61   31   33 1   
    62   31   34 1   
    63   32   60 1   
    64   32   61 1   
    65   32   62 1   
    66   33   63 1   
    67   33   64 1   
    68   33   65 1   
    69   34   66 1   
    70   34   67 1   
    71   34   68 1   
    72   35   69 1   
@<TRIPOS>SUBSTRUCTURE
     1 0GT         1 TEMP              0 ****  ****    0 ROOT
