@<TRIPOS>MOLECULE
0GT
   70    73     1     0     0
SMALL
bcc


@<TRIPOS>ATOM
      1 F1          1.4360    0.4210    1.3540 f         1 0GT     -0.250800
      2 C2          1.6350    0.4000   -0.0090 c3        1 0GT      0.398900
      3 F4          2.8140    1.1050   -0.1420 f         1 0GT     -0.250800
      4 C5          1.7490   -1.0500   -0.5450 c3        1 0GT     -0.058200
      5 C8          1.4030   -1.1460   -1.9650 cc        1 0GT     -0.158400
      6 C9          0.3090   -1.8340   -2.5000 cd        1 0GT     -0.072100
      7 N11         0.3240   -1.7560   -3.8930 na        1 0GT     -0.179400
      8 C13         1.4360   -1.0070   -4.2810 ca        1 0GT     -0.039200
      9 C14         2.1430   -0.6030   -3.0850 ca        1 0GT     -0.086800
     10 C15         3.2960    0.1730   -3.1980 ca        1 0GT     -0.078000
     11 C17         3.7490    0.5360   -4.4630 ca        1 0GT     -0.142300
     12 C18         3.0530    0.1290   -5.6230 ca        1 0GT     -0.112000
     13 C20         1.9010   -0.6360   -5.5530 ca        1 0GT     -0.127000
     14 C22         4.9590    1.3920   -4.6020 c3        1 0GT     -0.020100
     15 C25         6.1900    0.5880   -5.0150 c3        1 0GT     -0.052700
     16 C27         7.4060    1.5130   -5.1760 c3        1 0GT      0.123100
     17 C29         8.6300    0.6800   -5.6610 c3        1 0GT      0.158500
     18 C31         8.9940   -0.3420   -4.6080 c3        1 0GT     -0.327600
     19 S34         7.7380   -1.5490   -4.4060 s6        1 0GT      1.345000
     20 C35         6.4910   -0.4900   -3.9910 c3        1 0GT     -0.357600
     21 O38         7.5340   -2.1170   -5.6610 o         1 0GT     -0.618300
     22 O39         8.0990   -2.3440   -3.3280 o         1 0GT     -0.618300
     23 N40         9.7860    1.5760   -6.0130 n4        1 0GT     -0.761000
     24 C42        10.7440    0.9400   -6.9800 c3        1 0GT      0.177100
     25 C45        11.8800    1.8590   -7.2680 ca        1 0GT     -0.190300
     26 C46        13.0930    1.7060   -6.5910 ca        1 0GT     -0.100000
     27 C48        14.1840    2.5380   -6.8790 ca        1 0GT     -0.047300
     28 C49        14.0290    3.5300   -7.8560 ca        1 0GT     -0.082000
     29 C51        12.8170    3.6830   -8.5330 ca        1 0GT     -0.117000
     30 C53        11.7390    2.8520   -8.2460 ca        1 0GT     -0.112000
     31 C55        15.4790    2.3330   -6.1350 c3        1 0GT     -0.017700
     32 C56        15.9960    0.9220   -6.4030 c3        1 0GT     -0.090433
     33 C60        16.5540    3.3250   -6.5620 c3        1 0GT     -0.090433
     34 C64        15.2360    2.5080   -4.6380 c3        1 0GT     -0.090433
     35 O68         7.2130    2.4970   -6.1800 oh        1 0GT     -0.628800
     36 H1          0.7970    0.9530   -0.5300 h2        1 0GT      0.076700
     37 H2          1.0620   -1.6930    0.0690 hc        1 0GT      0.077200
     38 H3          2.7990   -1.4110   -0.3770 hc        1 0GT      0.077200
     39 H4         -0.4820   -2.3820   -1.9810 h4        1 0GT      0.180000
     40 H5         -0.3420   -2.1520   -4.5020 hn        1 0GT      0.311700
     41 H6          3.8180    0.5050   -2.2870 ha        1 0GT      0.146000
     42 H7          3.4340    0.4380   -6.6090 ha        1 0GT      0.130000
     43 H8          1.3660   -0.9400   -6.4640 ha        1 0GT      0.146000
     44 H9          5.1710    1.9200   -3.6340 hc        1 0GT      0.054200
     45 H10         4.7490    2.1750   -5.3810 hc        1 0GT      0.054200
     46 H11         5.9710    0.1020   -6.0110 hc        1 0GT      0.095700
     47 H12         7.6400    2.0170   -4.1960 h1        1 0GT      0.062700
     48 H13         8.3310    0.1500   -6.6220 hx        1 0GT      0.135700
     49 H14         9.2040    0.1540   -3.6240 h1        1 0GT      0.124200
     50 H15         9.9390   -0.8820   -4.8860 h1        1 0GT      0.124200
     51 H16         5.5250   -1.0650   -3.8350 h1        1 0GT      0.151200
     52 H17         6.6670   -0.0040   -2.9920 h1        1 0GT      0.151200
     53 H18         9.4110    2.4370   -6.4400 hn        1 0GT      0.457300
     54 H20        10.1710    0.7040   -7.9230 hx        1 0GT      0.106700
     55 H21        11.1070   -0.0260   -6.5260 hx        1 0GT      0.106700
     56 H22        13.2020    0.9110   -5.8360 ha        1 0GT      0.139000
     57 H23        14.8650    4.2020   -8.1120 ha        1 0GT      0.161000
     58 H24        12.7180    4.4630   -9.3050 ha        1 0GT      0.157000
     59 H25        10.7930    2.9640   -8.7960 ha        1 0GT      0.138000
     60 H26        16.9620    0.7660   -5.8640 hc        1 0GT      0.044033
     61 H27        15.2660    0.1570   -6.0470 hc        1 0GT      0.044033
     62 H28        16.1690    0.7730   -7.4960 hc        1 0GT      0.044033
     63 H29        16.7890    3.2100   -7.6470 hc        1 0GT      0.044033
     64 H30        16.2270    4.3740   -6.3640 hc        1 0GT      0.044033
     65 H31        17.4890    3.1350   -5.9800 hc        1 0GT      0.044033
     66 H32        14.4980    1.7590   -4.2650 hc        1 0GT      0.044033
     67 H33        16.1950    2.3630   -4.0820 hc        1 0GT      0.044033
     68 H34        14.8520    3.5330   -4.4230 hc        1 0GT      0.044033
     69 H35         6.4200    3.0050   -5.9570 ho        1 0GT      0.453000
     70 H402       10.2900    1.8360   -5.1600 hn        1 0GT      0.457300
@<TRIPOS>BOND
     1    1    2 1   
     2    2    3 1   
     3    2    4 1   
     4    2   36 1   
     5    4    5 1   
     6    4   37 1   
     7    4   38 1   
     8    5    6 2   
     9    5    9 1   
    10    6    7 1   
    11    6   39 1   
    12    7    8 1   
    13    7   40 1   
    14    8    9 ar  
    15    8   13 ar  
    16    9   10 ar  
    17   10   11 ar  
    18   10   41 1   
    19   11   12 ar  
    20   11   14 1   
    21   12   13 ar  
    22   12   42 1   
    23   13   43 1   
    24   14   15 1   
    25   14   44 1   
    26   14   45 1   
    27   15   16 1   
    28   15   20 1   
    29   15   46 1   
    30   16   17 1   
    31   16   35 1   
    32   16   47 1   
    33   17   18 1   
    34   17   23 1   
    35   17   48 1   
    36   18   19 1   
    37   18   49 1   
    38   18   50 1   
    39   19   20 1   
    40   19   21 2   
    41   19   22 2   
    42   20   51 1   
    43   20   52 1   
    44   23   24 1   
    45   23   53 1   
    46   23   70 1   
    47   24   25 1   
    48   24   54 1   
    49   24   55 1   
    50   25   26 ar  
    51   25   30 ar  
    52   26   27 ar  
    53   26   56 1   
    54   27   28 ar  
    55   27   31 1   
    56   28   29 ar  
    57   28   57 1   
    58   29   30 ar  
    59   29   58 1   
    60   30   59 1   
    61   31   32 1   
    62   31   33 1   
    63   31   34 1   
    64   32   60 1   
    65   32   61 1   
    66   32   62 1   
    67   33   63 1   
    68   33   64 1   
    69   33   65 1   
    70   34   66 1   
    71   34   67 1   
    72   34   68 1   
    73   35   69 1   
@<TRIPOS>SUBSTRUCTURE
     1 0GT         1 TEMP              0 ****  ****    0 ROOT
