@<TRIPOS>MOLECULE
0GT
   70    73     1     0     0
SMALL
bcc


@<TRIPOS>ATOM
      1 F1          1.4360    0.4180    1.3590 f         1 0GT     -0.250800
      2 C2          1.6350    0.3990   -0.0040 c3        1 0GT      0.398900
      3 F4          2.8140    1.1030   -0.1360 f         1 0GT     -0.250800
      4 C5          1.7480   -1.0500   -0.5420 c3        1 0GT     -0.058200
      5 C8          1.4010   -1.1430   -1.9630 cc        1 0GT     -0.158400
      6 C9          0.3070   -1.8290   -2.4990 cd        1 0GT     -0.072100
      7 N11         0.3220   -1.7480   -3.8910 na        1 0GT     -0.179400
      8 C13         1.4330   -1.0000   -4.2790 ca        1 0GT     -0.039200
      9 C14         2.1420   -0.5980   -3.0820 ca        1 0GT     -0.086800
     10 C15         3.2950    0.1760   -3.1940 ca        1 0GT     -0.078000
     11 C17         3.7480    0.5400   -4.4580 ca        1 0GT     -0.142300
     12 C18         3.0510    0.1370   -5.6190 ca        1 0GT     -0.112000
     13 C20         1.8990   -0.6270   -5.5500 ca        1 0GT     -0.127000
     14 C22         4.9590    1.3960   -4.5960 c3        1 0GT     -0.020100
     15 C25         6.1890    0.5910   -5.0130 c3        1 0GT     -0.052700
     16 C27         7.4060    1.5160   -5.1720 c3        1 0GT      0.123100
     17 C29         8.6290    0.6820   -5.6620 c3        1 0GT      0.158500
     18 C31         8.9920   -0.3440   -4.6110 c3        1 0GT     -0.327600
     19 S34         7.7350   -1.5500   -4.4110 s6        1 0GT      1.345000
     20 C35         6.4890   -0.4900   -3.9920 c3        1 0GT     -0.357600
     21 O38         7.5280   -2.1140   -5.6670 o         1 0GT     -0.618300
     22 O39         8.0960   -2.3470   -3.3360 o         1 0GT     -0.618300
     23 N40         9.7850    1.5770   -6.0130 ny        1 0GT     -0.761000
     24 C42        10.7410    0.9430   -6.9820 c3        1 0GT      0.177100
     25 C45        11.8770    1.8620   -7.2700 ca        1 0GT     -0.190300
     26 C46        13.0920    1.7020   -6.5990 ca        1 0GT     -0.099000
     27 C48        14.1840    2.5350   -6.8870 ca        1 0GT     -0.047300
     28 C49        14.0270    3.5310   -7.8580 ca        1 0GT     -0.082000
     29 C51        12.8120    3.6910   -8.5290 ca        1 0GT     -0.117000
     30 C53        11.7340    2.8600   -8.2420 ca        1 0GT     -0.112000
     31 C55        15.4810    2.3230   -6.1490 c3        1 0GT     -0.017700
     32 C56        15.9950    0.9120   -6.4280 c3        1 0GT     -0.090433
     33 C60        16.5560    3.3150   -6.5750 c3        1 0GT     -0.090433
     34 C64        15.2450    2.4890   -4.6500 c3        1 0GT     -0.090433
     35 O68         7.2130    2.5020   -6.1740 oh        1 0GT     -0.628800
     36 H1          0.7970    0.9530   -0.5240 h2        1 0GT      0.076700
     37 H2          2.7970   -1.4120   -0.3750 hc        1 0GT      0.077200
     38 H3          1.0610   -1.6940    0.0700 hc        1 0GT      0.077200
     39 H4         -0.4850   -2.3770   -1.9800 h4        1 0GT      0.180000
     40 H5         -0.3450   -2.1430   -4.5010 hn        1 0GT      0.311700
     41 H6          3.8180    0.5060   -2.2820 ha        1 0GT      0.146000
     42 H7          3.4330    0.4470   -6.6040 ha        1 0GT      0.130000
     43 H8          1.3630   -0.9280   -6.4610 ha        1 0GT      0.146000
     44 H9          5.1730    1.9210   -3.6270 hc        1 0GT      0.054200
     45 H10         4.7500    2.1810   -5.3730 hc        1 0GT      0.054200
     46 H11         5.9690    0.1080   -6.0090 hc        1 0GT      0.095700
     47 H12         7.6420    2.0160   -4.1910 h1        1 0GT      0.062700
     48 H13         8.3280    0.1550   -6.6230 hx        1 0GT      0.135700
     49 H14         9.2040    0.1500   -3.6270 h1        1 0GT      0.124200
     50 H15         9.9370   -0.8840   -4.8920 h1        1 0GT      0.124200
     51 H16         6.6680   -0.0060   -2.9910 h1        1 0GT      0.151200
     52 H17         5.5230   -1.0640   -3.8360 h1        1 0GT      0.151200
     53 H18         9.4100    2.4400   -6.4360 hn        1 0GT      0.457300
     54 H20        10.1650    0.7100   -7.9260 hx        1 0GT      0.106700
     55 H21        11.1040   -0.0240   -6.5310 hx        1 0GT      0.106700
     56 H22        13.2030    0.9030   -5.8480 ha        1 0GT      0.139000
     57 H23        14.8630    4.2040   -8.1130 ha        1 0GT      0.161000
     58 H24        12.7120    4.4760   -9.2960 ha        1 0GT      0.157000
     59 H25        10.7860    2.9770   -8.7870 ha        1 0GT      0.138000
     60 H26        16.9630    0.7520   -5.8940 hc        1 0GT      0.044033
     61 H27        16.1640    0.7700   -7.5220 hc        1 0GT      0.044033
     62 H28        15.2650    0.1460   -6.0740 hc        1 0GT      0.044033
     63 H29        16.7870    3.2060   -7.6620 hc        1 0GT      0.044033
     64 H30        17.4940    3.1200   -5.9980 hc        1 0GT      0.044033
     65 H31        16.2320    4.3630   -6.3700 hc        1 0GT      0.044033
     66 H32        14.5070    1.7390   -4.2790 hc        1 0GT      0.044033
     67 H33        16.2060    2.3400   -4.0990 hc        1 0GT      0.044033
     68 H34        14.8630    3.5140   -4.4280 hc        1 0GT      0.044033
     69 H35         6.4210    3.0100   -5.9490 ho        1 0GT      0.454000
     70 H402       10.2910    1.8340   -5.1600 hn        1 0GT      0.457300
@<TRIPOS>BOND
     1    1    2 1   
     2    2    3 1   
     3    2    4 1   
     4    2   36 1   
     5    4    5 1   
     6    4   37 1   
     7    4   38 1   
     8    5    6 2   
     9    5    9 1   
    10    6    7 1   
    11    6   39 1   
    12    7    8 1   
    13    7   40 1   
    14    8    9 ar  
    15    8   13 ar  
    16    9   10 ar  
    17   10   11 ar  
    18   10   41 1   
    19   11   12 ar  
    20   11   14 1   
    21   12   13 ar  
    22   12   42 1   
    23   13   43 1   
    24   14   15 1   
    25   14   44 1   
    26   14   45 1   
    27   15   16 1   
    28   15   20 1   
    29   15   46 1   
    30   16   17 1   
    31   16   35 1   
    32   16   47 1   
    33   17   18 1   
    34   17   23 1   
    35   17   48 1   
    36   18   19 1   
    37   18   49 1   
    38   18   50 1   
    39   19   20 1   
    40   19   21 2   
    41   19   22 2   
    42   20   51 1   
    43   20   52 1   
    44   23   24 1   
    45   23   53 1   
    46   23   70 1   
    47   24   25 1   
    48   24   54 1   
    49   24   55 1   
    50   25   26 ar  
    51   25   30 ar  
    52   26   27 ar  
    53   26   56 1   
    54   27   28 ar  
    55   27   31 1   
    56   28   29 ar  
    57   28   57 1   
    58   29   30 ar  
    59   29   58 1   
    60   30   59 1   
    61   31   32 1   
    62   31   33 1   
    63   31   34 1   
    64   32   60 1   
    65   32   61 1   
    66   32   62 1   
    67   33   63 1   
    68   33   64 1   
    69   33   65 1   
    70   34   66 1   
    71   34   67 1   
    72   34   68 1   
    73   35   69 1   
@<TRIPOS>SUBSTRUCTURE
     1 0GT         1 TEMP              0 ****  ****    0 ROOT
