@<TRIPOS>MOLECULE
0GU
   79    83     1     0     0
SMALL
bcc


@<TRIPOS>ATOM
      1 F1          0.2480    0.5740    0.5750 f         1 0GU     -0.240300
      2 C2          1.5840    0.2880    0.3610 c3        1 0GU      0.406600
      3 C3          2.3440    0.0420    1.6880 c3        1 0GU     -0.122900
      4 C6          1.8840   -1.2350    2.3490 c3        1 0GU     -0.066400
      5 C9          2.0190   -2.4530    1.4430 c3        1 0GU     -0.011700
      6 C10         3.5220   -2.8560    1.2330 c3        1 0GU      0.170800
      7 N13         3.6810   -4.2500    1.6590 nu        1 0GU     -0.696600
      8 C15         2.4810   -4.6530    2.2670 ca        1 0GU      0.107600
      9 C16         1.4480   -3.6790    2.1190 ca        1 0GU     -0.113300
     10 C17         0.1640   -3.9280    2.5580 ca        1 0GU     -0.093000
     11 C19        -0.1240   -5.1590    3.1740 ca        1 0GU     -0.132300
     12 C20         0.8770   -6.1140    3.3490 ca        1 0GU     -0.128000
     13 C22         2.1910   -5.8770    2.9020 ca        1 0GU      0.094900
     14 F23         3.1520   -6.8110    3.0910 f         1 0GU     -0.126900
     15 C24        -1.5010   -5.4370    3.6670 c3        1 0GU     -0.021100
     16 C27        -2.2530   -6.3810    2.7280 c3        1 0GU     -0.054700
     17 C29        -3.5170   -6.9040    3.4230 c3        1 0GU      0.124100
     18 C31        -4.2790   -7.8760    2.4700 c3        1 0GU      0.125500
     19 C33        -4.7040   -7.1530    1.2140 c3        1 0GU     -0.322600
     20 S36        -3.3220   -6.6600    0.2570 s6        1 0GU      1.343000
     21 C37        -2.6010   -5.6770    1.4320 c3        1 0GU     -0.349600
     22 O40        -2.5700   -7.8090    0.0300 o         1 0GU     -0.615300
     23 O41        -3.7940   -5.9000   -0.8020 o         1 0GU     -0.615300
     24 N42        -5.4110   -8.5590    3.1820 ny        1 0GU     -0.757000
     25 C44        -6.6170   -7.6970    3.4190 c3        1 0GU      0.175100
     26 C47        -7.6360   -8.4360    4.2160 ca        1 0GU     -0.191300
     27 C48        -7.5150   -8.4990    5.6070 ca        1 0GU     -0.108000
     28 C50        -8.4800   -9.1610    6.3810 ca        1 0GU     -0.046300
     29 C51        -9.5670   -9.7550    5.7270 ca        1 0GU     -0.081000
     30 C53        -9.6890   -9.6900    4.3380 ca        1 0GU     -0.118000
     31 C55        -8.7270   -9.0340    3.5750 ca        1 0GU     -0.105000
     32 C57        -8.3180   -9.2010    7.8780 c3        1 0GU     -0.016700
     33 C58        -6.9990   -9.8860    8.2270 c3        1 0GU     -0.090100
     34 C62        -8.3080   -7.7750    8.4230 c3        1 0GU     -0.090100
     35 C66        -9.4460   -9.9650    8.5610 c3        1 0GU     -0.090100
     36 O70        -3.2460   -7.6000    4.6240 oh        1 0GU     -0.606800
     37 C72         1.3220   -2.2090    0.1100 c3        1 0GU     -0.066400
     38 C75         1.7730   -0.9370   -0.5680 c3        1 0GU     -0.122900
     39 F78         2.0180    1.4490   -0.2530 f         1 0GU     -0.240300
     40 H1          3.4380    0.0010    1.4520 hc        1 0GU      0.074950
     41 H2          2.1660    0.9110    2.3730 hc        1 0GU      0.074950
     42 H3          2.4740   -1.3970    3.2890 hc        1 0GU      0.058200
     43 H4          0.8040   -1.1280    2.6400 hc        1 0GU      0.058200
     44 H5          4.1950   -2.1670    1.8100 h1        1 0GU      0.062700
     45 H6          3.7980   -2.8020    0.1450 h1        1 0GU      0.062700
     46 H7          4.5180   -4.4670    2.1560 hn        1 0GU      0.417800
     47 H8         -0.6210   -3.1660    2.4420 ha        1 0GU      0.140000
     48 H9          0.6580   -7.0690    3.8490 ha        1 0GU      0.139000
     49 H10        -1.4460   -5.9010    4.6890 hc        1 0GU      0.063700
     50 H11        -2.0780   -4.4790    3.7680 hc        1 0GU      0.063700
     51 H12        -1.5800   -7.2580    2.4940 hc        1 0GU      0.087700
     52 H13        -4.1850   -6.0460    3.7190 h1        1 0GU      0.095700
     53 H14        -3.5600   -8.7120    2.1840 hx        1 0GU      0.120700
     54 H15        -5.3320   -6.2580    1.4620 h1        1 0GU      0.125700
     55 H16        -5.3500   -7.8130    0.5740 h1        1 0GU      0.125700
     56 H17        -3.2300   -4.7730    1.6620 h1        1 0GU      0.147700
     57 H18        -1.6340   -5.2360    1.0390 h1        1 0GU      0.147700
     58 H19        -5.0560   -8.8750    4.0990 hn        1 0GU      0.459300
     59 H21        -7.0320   -7.3950    2.4150 hx        1 0GU      0.103700
     60 H22        -6.2720   -6.7740    3.9680 hx        1 0GU      0.103700
     61 H23        -6.6620   -8.0110    6.1050 ha        1 0GU      0.140000
     62 H24       -10.3490  -10.2800    6.3010 ha        1 0GU      0.162000
     63 H25       -10.5560  -10.1570    3.8430 ha        1 0GU      0.158000
     64 H26        -8.8370   -8.9740    2.4820 ha        1 0GU      0.139000
     65 H27        -6.9850  -10.9290    7.8310 hc        1 0GU      0.043922
     66 H28        -6.1350   -9.3240    7.7990 hc        1 0GU      0.043922
     67 H29        -6.8780   -9.9250    9.3370 hc        1 0GU      0.043922
     68 H30        -8.2000   -7.7970    9.5350 hc        1 0GU      0.043922
     69 H31        -7.4570   -7.1930    7.9980 hc        1 0GU      0.043922
     70 H32        -9.2620   -7.2550    8.1690 hc        1 0GU      0.043922
     71 H33       -10.4310   -9.4780    8.3620 hc        1 0GU      0.043922
     72 H34        -9.2770   -9.9710    9.6660 hc        1 0GU      0.043922
     73 H35        -9.4790  -11.0230    8.2080 hc        1 0GU      0.043922
     74 H36        -2.3370   -7.9310    4.6000 ho        1 0GU      0.439000
     75 H37         0.2150   -2.1510    0.2950 hc        1 0GU      0.058200
     76 H38         1.5120   -3.0770   -0.5750 hc        1 0GU      0.058200
     77 H39         1.1820   -0.7750   -1.5050 hc        1 0GU      0.074950
     78 H40         2.8570   -0.9910   -0.8450 hc        1 0GU      0.074950
     79 H422       -5.6970   -9.3810    2.6410 hn        1 0GU      0.459300
@<TRIPOS>BOND
     1    1    2 1   
     2    2    3 1   
     3    2   38 1   
     4    2   39 1   
     5    3    4 1   
     6    3   40 1   
     7    3   41 1   
     8    4    5 1   
     9    4   42 1   
    10    4   43 1   
    11    5    6 1   
    12    5    9 1   
    13    5   37 1   
    14    6    7 1   
    15    6   44 1   
    16    6   45 1   
    17    7    8 1   
    18    7   46 1   
    19    8    9 ar  
    20    8   13 ar  
    21    9   10 ar  
    22   10   11 ar  
    23   10   47 1   
    24   11   12 ar  
    25   11   15 1   
    26   12   13 ar  
    27   12   48 1   
    28   13   14 1   
    29   15   16 1   
    30   15   49 1   
    31   15   50 1   
    32   16   17 1   
    33   16   21 1   
    34   16   51 1   
    35   17   18 1   
    36   17   36 1   
    37   17   52 1   
    38   18   19 1   
    39   18   24 1   
    40   18   53 1   
    41   19   20 1   
    42   19   54 1   
    43   19   55 1   
    44   20   21 1   
    45   20   22 2   
    46   20   23 2   
    47   21   56 1   
    48   21   57 1   
    49   24   25 1   
    50   24   58 1   
    51   24   79 1   
    52   25   26 1   
    53   25   59 1   
    54   25   60 1   
    55   26   27 ar  
    56   26   31 ar  
    57   27   28 ar  
    58   27   61 1   
    59   28   29 ar  
    60   28   32 1   
    61   29   30 ar  
    62   29   62 1   
    63   30   31 ar  
    64   30   63 1   
    65   31   64 1   
    66   32   33 1   
    67   32   34 1   
    68   32   35 1   
    69   33   65 1   
    70   33   66 1   
    71   33   67 1   
    72   34   68 1   
    73   34   69 1   
    74   34   70 1   
    75   35   71 1   
    76   35   72 1   
    77   35   73 1   
    78   36   74 1   
    79   37   38 1   
    80   37   75 1   
    81   37   76 1   
    82   38   77 1   
    83   38   78 1   
@<TRIPOS>SUBSTRUCTURE
     1 0GU         1 TEMP              0 ****  ****    0 ROOT
