@<TRIPOS>MOLECULE
0GU
   78    76     1     0     0
SMALL
bcc


@<TRIPOS>ATOM
      1 F1         -7.1770    0.4440   -1.4740 f         1 0GU     -0.173000
      2 C2         -6.0940   -0.2360   -1.0770 c3        1 0GU      0.262000
      3 C3         -6.4360   -1.0110    0.1840 c3        1 0GU     -0.198000
      4 C6         -5.3250   -1.9540    0.6010 c3        1 0GU     -0.147000
      5 C9         -4.8730   -2.8580   -0.5350 c3        1 0GU     -0.018000
      6 C10        -5.6810   -4.0160   -0.9090 c3        1 0GU     -0.073000
      7 N13        -5.0000   -5.2010   -0.4510 n3        1 0GU     -0.240000
      8 C15        -3.6620   -4.7830    0.1130 c1        1 0GU     -0.011000
      9 C16        -3.6070   -3.3680    0.1060 c1        1 0GU     -0.102000
     10 C17        -2.5880   -2.7020    0.8140 c1        1 0GU     -0.093000
     11 C19        -1.6220   -3.4450    1.5300 c1        1 0GU     -0.083000
     12 C20        -1.6780   -4.8550    1.5360 c1        1 0GU     -0.139000
     13 C22        -2.6960   -5.5240    0.8300 c1        1 0GU      0.062000
     14 F23        -2.8200   -6.8880    0.9380 f         1 0GU     -0.102000
     15 C24        -0.5150   -2.7000    2.3590 c3        1 0GU     -0.113000
     16 C27         0.8120   -2.5870    1.4960 c3        1 0GU     -0.062000
     17 C29         1.3090   -1.1260    1.5560 c3        1 0GU     -0.013000
     18 C31         2.7140   -0.8720    0.8630 c3        1 0GU     -0.004000
     19 C33         3.8280   -1.7860    1.3400 c3        1 0GU     -0.865000
     20 S36         3.3130   -3.4110    1.2040 s4        1 0GU      2.031800
     21 C37         1.7910   -3.6030    1.9990 c2        1 0GU     -0.869000
     22 O40         4.2780   -4.2540    1.8540 o         1 0GU     -0.537400
     23 O41         3.2090   -3.7900   -0.1690 o         1 0GU     -0.537400
     24 N42         3.0990    0.4650    1.1110 n3        1 0GU     -0.313000
     25 C44         3.1930    1.1850   -0.1460 c3        1 0GU     -0.038000
     26 C47         3.3390    2.6940    0.1380 c2        1 0GU     -0.122000
     27 C48         3.6320    3.5680   -0.9010 c2        1 0GU     -0.122000
     28 C50         3.6100    4.9470   -0.6830 c1        1 0GU     -0.054000
     29 C51         3.2960    5.4410    0.5640 c2        1 0GU     -0.124000
     30 C53         3.0020    4.5650    1.6070 c1        1 0GU     -0.127000
     31 C55         3.0250    3.1900    1.3880 c1        1 0GU     -0.135000
     32 C57         4.0400    5.9080   -1.8050 c2        1 0GU     -0.019000
     33 C58         5.4610    6.4400   -1.5110 c3        1 0GU     -0.204000
     34 C62         4.0420    5.1640   -3.1360 c3        1 0GU     -0.204000
     35 C66         3.0500    7.0950   -1.8770 c3        1 0GU     -0.204000
     36 O70         0.3650   -0.3190    0.9380 oh        1 0GU     -0.326000
     37 C72        -4.5310   -2.0900   -1.7940 c3        1 0GU     -0.147000
     38 C75        -5.6400   -1.1480   -2.2140 c3        1 0GU     -0.198000
     39 F78        -5.1000    0.6460   -0.7950 f         1 0GU     -0.173000
     40 H1         -6.6040   -0.3700    0.9190 hc        1 0GU      0.108500
     41 H2         -7.2530   -1.5330    0.0250 hc        1 0GU      0.108500
     42 H3         -4.5650   -1.4280    0.9040 hc        1 0GU      0.101500
     43 H4         -5.6380   -2.5030    1.3340 hc        1 0GU      0.101500
     44 H5         -5.7850   -4.0480   -1.8930 h1        1 0GU      0.092500
     45 H6         -6.5700   -3.9550   -0.4810 h1        1 0GU      0.092500
     46 H7         -4.8690   -5.7720   -1.1570 hn        1 0GU      0.191000
     47 H8         -2.5480   -1.7220    0.8100 ha        1 0GU      0.147000
     48 H9         -1.0060   -5.3710    2.0360 ha        1 0GU      0.147000
     49 H10        -0.8330   -1.7910    2.5960 hc        1 0GU      0.103000
     50 H11        -0.3260   -3.2070    3.1860 hc        1 0GU      0.103000
     51 H12         0.5940   -2.8050    0.5500 hc        1 0GU      0.124000
     52 H13         1.3760   -0.8580    2.5100 h1        1 0GU      0.079000
     53 H14         2.6070   -0.9900   -0.0920 h1        1 0GU      0.129000
     54 H15         4.2480   -1.5060    2.1770 h1        1 0GU      0.164000
     55 H16         4.5960   -1.6880    0.7220 h1        1 0GU      0.164000
     56 H17         1.3640   -4.4810    1.8850 ha        1 0GU      0.162500
     57 H18         1.9290   -3.5810    2.9600 ha        1 0GU      0.162500
     58 H19         2.4820    0.8650    1.6450 hn        1 0GU      0.165000
     59 H21         3.9870    0.8630   -0.6550 h1        1 0GU      0.103000
     60 H22         2.3850    1.0290   -0.6700 h1        1 0GU      0.103000
     61 H23         3.8510    3.2230   -1.7720 ha        1 0GU      0.142000
     62 H24         3.2800    6.4030    0.7170 ha        1 0GU      0.135000
     63 H25         2.7790    4.9160    2.4930 ha        1 0GU      0.136000
     64 H26         2.8160    2.5730    2.1230 ha        1 0GU      0.141000
     65 H27         6.0710    5.6990   -1.4370 hc        1 0GU      0.077222
     66 H28         5.4560    6.9410   -0.6760 hc        1 0GU      0.077222
     67 H29         5.7480    7.0260   -2.2420 hc        1 0GU      0.077222
     68 H30         4.1610    5.7940   -3.8580 hc        1 0GU      0.077222
     69 H31         4.7810    4.5120   -3.1460 hc        1 0GU      0.077222
     70 H32         3.1920    4.6950   -3.2490 hc        1 0GU      0.077222
     71 H33         3.2150    7.6020   -2.6770 hc        1 0GU      0.077222
     72 H34         3.1750    7.6750   -1.0880 hc        1 0GU      0.077222
     73 H35         2.1450    6.7590   -1.8890 hc        1 0GU      0.077222
     74 H36         0.2180    0.3920    1.4310 ho        1 0GU      0.213000
     75 H37        -3.7250   -1.5750   -1.6370 hc        1 0GU      0.101500
     76 H38        -4.3640   -2.7280   -2.5200 hc        1 0GU      0.101500
     77 H39        -6.4120   -1.6820   -2.5220 hc        1 0GU      0.108500
     78 H40        -5.3220   -0.5950   -2.9560 hc        1 0GU      0.108500
@<TRIPOS>BOND
     1    1    2 1   
     2    2    3 1   
     3    2   38 1   
     4    2   39 1   
     5    3    4 1   
     6    3   40 1   
     7    3   41 1   
     8    4    5 1   
     9    4   42 1   
    10    4   43 1   
    11    5    6 1   
    12    5    9 1   
    13    5   37 1   
    14    6    7 1   
    15    6   44 1   
    16    6   45 1   
    17    7    8 1   
    18    7   46 1   
    19    8   13 1   
    20    9   10 1   
    21   10   47 1   
    22   11   12 1   
    23   11   15 1   
    24   12   48 1   
    25   13   14 1   
    26   15   16 1   
    27   15   49 1   
    28   15   50 1   
    29   16   17 1   
    30   16   21 1   
    31   16   51 1   
    32   17   18 1   
    33   17   36 1   
    34   17   52 1   
    35   18   19 1   
    36   18   24 1   
    37   18   53 1   
    38   19   20 1   
    39   19   54 1   
    40   19   55 1   
    41   20   22 1   
    42   20   23 1   
    43   21   56 1   
    44   21   57 1   
    45   24   25 1   
    46   24   58 1   
    47   25   26 1   
    48   25   59 1   
    49   25   60 1   
    50   26   27 1   
    51   26   31 1   
    52   27   28 1   
    53   27   61 1   
    54   28   29 1   
    55   29   30 1   
    56   29   62 1   
    57   30   63 1   
    58   31   64 1   
    59   32   33 1   
    60   32   34 1   
    61   32   35 1   
    62   33   65 1   
    63   33   66 1   
    64   33   67 1   
    65   34   68 1   
    66   34   69 1   
    67   34   70 1   
    68   35   71 1   
    69   35   72 1   
    70   35   73 1   
    71   36   74 1   
    72   37   38 1   
    73   37   75 1   
    74   37   76 1   
    75   38   77 1   
    76   38   78 1   
@<TRIPOS>SUBSTRUCTURE
     1 0GU         1 TEMP              0 ****  ****    0 ROOT
