@<TRIPOS>MOLECULE
0GU
   79    83     1     0     0
SMALL
bcc


@<TRIPOS>ATOM
      1 F1          0.2490    0.5820    0.5930 f         1 0GU     -0.240300
      2 C2          1.5850    0.2960    0.3760 c3        1 0GU      0.406600
      3 C3          2.3460    0.0440    1.7020 c3        1 0GU     -0.122900
      4 C6          1.8860   -1.2350    2.3580 c3        1 0GU     -0.066400
      5 C9          2.0180   -2.4500    1.4480 c3        1 0GU     -0.011700
      6 C10         3.5210   -2.8530    1.2340 c3        1 0GU      0.170800
      7 N13         3.6790   -4.2500    1.6540 nh        1 0GU     -0.696600
      8 C15         2.4800   -4.6530    2.2620 ca        1 0GU      0.107600
      9 C16         1.4470   -3.6780    2.1190 ca        1 0GU     -0.113300
     10 C17         0.1640   -3.9280    2.5590 ca        1 0GU     -0.093000
     11 C19        -0.1250   -5.1600    3.1710 ca        1 0GU     -0.132300
     12 C20         0.8760   -6.1170    3.3420 ca        1 0GU     -0.128000
     13 C22         2.1890   -5.8800    2.8940 ca        1 0GU      0.094900
     14 F23         3.1500   -6.8140    3.0780 f         1 0GU     -0.126900
     15 C24        -1.5020   -5.4390    3.6650 c3        1 0GU     -0.021100
     16 C27        -2.2540   -6.3820    2.7250 c3        1 0GU     -0.054700
     17 C29        -3.5180   -6.9040    3.4210 c3        1 0GU      0.124100
     18 C31        -4.2800   -7.8760    2.4680 c3        1 0GU      0.125500
     19 C33        -4.7060   -7.1520    1.2120 c3        1 0GU     -0.322600
     20 S36        -3.3240   -6.6590    0.2550 s6        1 0GU      1.343000
     21 C37        -2.6020   -5.6770    1.4300 c3        1 0GU     -0.349600
     22 O40        -2.5720   -7.8080    0.0280 o         1 0GU     -0.615300
     23 O41        -3.7960   -5.8990   -0.8040 o         1 0GU     -0.615300
     24 N42        -5.4130   -8.5590    3.1800 n4        1 0GU     -0.757000
     25 C44        -6.6180   -7.6970    3.4170 c3        1 0GU      0.175100
     26 C47        -7.6380   -8.4360    4.2140 ca        1 0GU     -0.191300
     27 C48        -7.5190   -8.4970    5.6050 ca        1 0GU     -0.108000
     28 C50        -8.4830   -9.1580    6.3790 ca        1 0GU     -0.046300
     29 C51        -9.5700   -9.7540    5.7240 ca        1 0GU     -0.081000
     30 C53        -9.6900   -9.6910    4.3350 ca        1 0GU     -0.118000
     31 C55        -8.7270   -9.0350    3.5720 ca        1 0GU     -0.105000
     32 C57        -8.3230   -9.1960    7.8770 c3        1 0GU     -0.016700
     33 C58        -7.0040   -9.8790    8.2280 c3        1 0GU     -0.090100
     34 C62        -8.3150   -7.7690    8.4190 c3        1 0GU     -0.090100
     35 C66        -9.4520   -9.9600    8.5590 c3        1 0GU     -0.090100
     36 O70        -3.2470   -7.6020    4.6210 oh        1 0GU     -0.606800
     37 C72         1.3200   -2.2000    0.1160 c3        1 0GU     -0.066400
     38 C75         1.7710   -0.9260   -0.5570 c3        1 0GU     -0.122900
     39 F78         2.0190    1.4580   -0.2340 f         1 0GU     -0.240300
     40 H1          2.1700    0.9100    2.3900 hc        1 0GU      0.074950
     41 H2          3.4390    0.0030    1.4640 hc        1 0GU      0.074950
     42 H3          0.8060   -1.1290    2.6510 hc        1 0GU      0.058200
     43 H4          2.4780   -1.4010    3.2960 hc        1 0GU      0.058200
     44 H5          3.7950   -2.7960    0.1460 h1        1 0GU      0.062700
     45 H6          4.1960   -2.1670    1.8120 h1        1 0GU      0.062700
     46 H7          4.5160   -4.4690    2.1500 hn        1 0GU      0.417800
     47 H8         -0.6210   -3.1650    2.4470 ha        1 0GU      0.140000
     48 H9          0.6560   -7.0740    3.8380 ha        1 0GU      0.139000
     49 H10        -1.4460   -5.9040    4.6870 hc        1 0GU      0.063700
     50 H11        -2.0790   -4.4810    3.7680 hc        1 0GU      0.063700
     51 H12        -1.5810   -7.2590    2.4910 hc        1 0GU      0.087700
     52 H13        -4.1860   -6.0460    3.7180 h1        1 0GU      0.095700
     53 H14        -3.5620   -8.7130    2.1810 hx        1 0GU      0.120700
     54 H15        -5.3520   -7.8120    0.5720 h1        1 0GU      0.125700
     55 H16        -5.3330   -6.2570    1.4610 h1        1 0GU      0.125700
     56 H17        -1.6350   -5.2360    1.0370 h1        1 0GU      0.147700
     57 H18        -3.2310   -4.7730    1.6610 h1        1 0GU      0.147700
     58 H19        -5.6990   -9.3810    2.6380 hn        1 0GU      0.459300
     59 H21        -6.2730   -6.7740    3.9660 hx        1 0GU      0.103700
     60 H22        -7.0330   -7.3940    2.4130 hx        1 0GU      0.103700
     61 H23        -6.6660   -8.0070    6.1030 ha        1 0GU      0.140000
     62 H24       -10.3510  -10.2790    6.2980 ha        1 0GU      0.162000
     63 H25       -10.5560  -10.1590    3.8400 ha        1 0GU      0.158000
     64 H26        -8.8360   -8.9770    2.4790 ha        1 0GU      0.139000
     65 H27        -6.9890  -10.9220    7.8330 hc        1 0GU      0.043922
     66 H28        -6.8840   -9.9170    9.3380 hc        1 0GU      0.043922
     67 H29        -6.1400   -9.3180    7.8000 hc        1 0GU      0.043922
     68 H30        -7.4640   -7.1870    7.9940 hc        1 0GU      0.043922
     69 H31        -9.2700   -7.2500    8.1630 hc        1 0GU      0.043922
     70 H32        -8.2080   -7.7900    9.5310 hc        1 0GU      0.043922
     71 H33        -9.2840   -9.9640    9.6640 hc        1 0GU      0.043922
     72 H34       -10.4360   -9.4740    8.3580 hc        1 0GU      0.043922
     73 H35        -9.4830  -11.0190    8.2070 hc        1 0GU      0.043922
     74 H36        -2.3380   -7.9330    4.5970 ho        1 0GU      0.439000
     75 H37         0.2130   -2.1420    0.3030 hc        1 0GU      0.058200
     76 H38         1.5070   -3.0660   -0.5730 hc        1 0GU      0.058200
     77 H39         1.1780   -0.7600   -1.4940 hc        1 0GU      0.074950
     78 H40         2.8540   -0.9810   -0.8360 hc        1 0GU      0.074950
     79 H422       -5.0580   -8.8750    4.0970 hn        1 0GU      0.459300
@<TRIPOS>BOND
     1    1    2 1   
     2    2    3 1   
     3    2   38 1   
     4    2   39 1   
     5    3    4 1   
     6    3   40 1   
     7    3   41 1   
     8    4    5 1   
     9    4   42 1   
    10    4   43 1   
    11    5    6 1   
    12    5    9 1   
    13    5   37 1   
    14    6    7 1   
    15    6   44 1   
    16    6   45 1   
    17    7    8 1   
    18    7   46 1   
    19    8    9 ar  
    20    8   13 ar  
    21    9   10 ar  
    22   10   11 ar  
    23   10   47 1   
    24   11   12 ar  
    25   11   15 1   
    26   12   13 ar  
    27   12   48 1   
    28   13   14 1   
    29   15   16 1   
    30   15   49 1   
    31   15   50 1   
    32   16   17 1   
    33   16   21 1   
    34   16   51 1   
    35   17   18 1   
    36   17   36 1   
    37   17   52 1   
    38   18   19 1   
    39   18   24 1   
    40   18   53 1   
    41   19   20 1   
    42   19   54 1   
    43   19   55 1   
    44   20   21 1   
    45   20   22 2   
    46   20   23 2   
    47   21   56 1   
    48   21   57 1   
    49   24   25 1   
    50   24   58 1   
    51   24   79 1   
    52   25   26 1   
    53   25   59 1   
    54   25   60 1   
    55   26   27 ar  
    56   26   31 ar  
    57   27   28 ar  
    58   27   61 1   
    59   28   29 ar  
    60   28   32 1   
    61   29   30 ar  
    62   29   62 1   
    63   30   31 ar  
    64   30   63 1   
    65   31   64 1   
    66   32   33 1   
    67   32   34 1   
    68   32   35 1   
    69   33   65 1   
    70   33   66 1   
    71   33   67 1   
    72   34   68 1   
    73   34   69 1   
    74   34   70 1   
    75   35   71 1   
    76   35   72 1   
    77   35   73 1   
    78   36   74 1   
    79   37   38 1   
    80   37   75 1   
    81   37   76 1   
    82   38   77 1   
    83   38   78 1   
@<TRIPOS>SUBSTRUCTURE
     1 0GU         1 TEMP              0 ****  ****    0 ROOT
