@<TRIPOS>MOLECULE
0GU
   79    83     1     0     0
SMALL
bcc


@<TRIPOS>ATOM
      1 F1          0.2410    0.5750    0.5810 f         1 0GU     -0.240300
      2 C2          1.5780    0.2910    0.3660 c3        1 0GU      0.406600
      3 C3          2.3380    0.0450    1.6930 c3        1 0GU     -0.122900
      4 C6          1.8800   -1.2340    2.3520 c3        1 0GU     -0.066400
      5 C9          2.0170   -2.4500    1.4450 c3        1 0GU     -0.011700
      6 C10         3.5210   -2.8510    1.2340 c3        1 0GU      0.170800
      7 N13         3.6820   -4.2460    1.6580 nh        1 0GU     -0.696600
      8 C15         2.4830   -4.6510    2.2660 ca        1 0GU      0.107600
      9 C16         1.4480   -3.6790    2.1190 ca        1 0GU     -0.113300
     10 C17         0.1650   -3.9310    2.5580 ca        1 0GU     -0.093000
     11 C19        -0.1220   -5.1630    3.1730 ca        1 0GU     -0.132300
     12 C20         0.8810   -6.1160    3.3470 ca        1 0GU     -0.127000
     13 C22         2.1950   -5.8770    2.9000 ca        1 0GU      0.094900
     14 F23         3.1580   -6.8090    3.0870 f         1 0GU     -0.126900
     15 C24        -1.4980   -5.4430    3.6660 c3        1 0GU     -0.021100
     16 C27        -2.2480   -6.3890    2.7280 c3        1 0GU     -0.054700
     17 C29        -3.5120   -6.9110    3.4230 c3        1 0GU      0.124100
     18 C31        -4.2720   -7.8860    2.4710 c3        1 0GU      0.125500
     19 C33        -4.6960   -7.1670    1.2120 c3        1 0GU     -0.322600
     20 S36        -3.3120   -6.6750    0.2560 s6        1 0GU      1.343000
     21 C37        -2.5940   -5.6890    1.4300 c3        1 0GU     -0.349600
     22 O40        -2.5590   -7.8250    0.0340 o         1 0GU     -0.615300
     23 O41        -3.7840   -5.9190   -0.8050 o         1 0GU     -0.615300
     24 N42        -5.4060   -8.5670    3.1840 n4        1 0GU     -0.757000
     25 C44        -6.6120   -7.7050    3.4150 c3        1 0GU      0.175100
     26 C47        -7.6330   -8.4420    4.2130 ca        1 0GU     -0.191300
     27 C48        -7.5160   -8.4970    5.6050 ca        1 0GU     -0.107000
     28 C50        -8.4820   -9.1550    6.3790 ca        1 0GU     -0.046300
     29 C51        -9.5670   -9.7550    5.7250 ca        1 0GU     -0.081000
     30 C53        -9.6840   -9.6980    4.3350 ca        1 0GU     -0.118000
     31 C55        -8.7200   -9.0450    3.5720 ca        1 0GU     -0.105000
     32 C57        -8.3250   -9.1870    7.8780 c3        1 0GU     -0.016700
     33 C58        -7.0060   -9.8670    8.2350 c3        1 0GU     -0.090100
     34 C62        -8.3200   -7.7570    8.4140 c3        1 0GU     -0.090100
     35 C66        -9.4550   -9.9480    8.5610 c3        1 0GU     -0.090100
     36 O70        -3.2430   -7.6050    4.6250 oh        1 0GU     -0.606800
     37 C72         1.3190   -2.2060    0.1120 c3        1 0GU     -0.066400
     38 C75         1.7680   -0.9330   -0.5640 c3        1 0GU     -0.122900
     39 F78         2.0100    1.4530   -0.2460 f         1 0GU     -0.240300
     40 H1          3.4320    0.0050    1.4570 hc        1 0GU      0.074950
     41 H2          2.1590    0.9120    2.3790 hc        1 0GU      0.074950
     42 H3          0.8000   -1.1300    2.6440 hc        1 0GU      0.058200
     43 H4          2.4710   -1.3960    3.2920 hc        1 0GU      0.058200
     44 H5          3.7960   -2.7960    0.1460 h1        1 0GU      0.062700
     45 H6          4.1930   -2.1620    1.8120 h1        1 0GU      0.062700
     46 H7          4.5190   -4.4620    2.1550 hn        1 0GU      0.417800
     47 H8         -0.6220   -3.1700    2.4430 ha        1 0GU      0.140000
     48 H9          0.6640   -7.0720    3.8450 ha        1 0GU      0.139000
     49 H10        -2.0770   -4.4860    3.7670 hc        1 0GU      0.063700
     50 H11        -1.4420   -5.9060    4.6890 hc        1 0GU      0.063700
     51 H12        -1.5730   -7.2670    2.4970 hc        1 0GU      0.087700
     52 H13        -4.1810   -6.0530    3.7160 h1        1 0GU      0.095700
     53 H14        -3.5540   -8.7230    2.1880 hx        1 0GU      0.120700
     54 H15        -5.3410   -7.8290    0.5730 h1        1 0GU      0.125700
     55 H16        -5.3250   -6.2710    1.4580 h1        1 0GU      0.125700
     56 H17        -3.2240   -4.7850    1.6570 h1        1 0GU      0.147700
     57 H18        -1.6260   -5.2480    1.0370 h1        1 0GU      0.147700
     58 H19        -5.6900   -9.3910    2.6440 hn        1 0GU      0.459300
     59 H21        -6.2690   -6.7800    3.9610 hx        1 0GU      0.103700
     60 H22        -7.0260   -7.4060    2.4090 hx        1 0GU      0.103700
     61 H23        -6.6650   -8.0040    6.1020 ha        1 0GU      0.140000
     62 H24       -10.3490  -10.2790    6.2990 ha        1 0GU      0.162000
     63 H25       -10.5480  -10.1700    3.8400 ha        1 0GU      0.158000
     64 H26        -8.8270   -8.9920    2.4780 ha        1 0GU      0.139000
     65 H27        -6.8890   -9.8990    9.3450 hc        1 0GU      0.043922
     66 H28        -6.9890  -10.9120    7.8450 hc        1 0GU      0.043922
     67 H29        -6.1420   -9.3060    7.8070 hc        1 0GU      0.043922
     68 H30        -7.4680   -7.1760    7.9880 hc        1 0GU      0.043922
     69 H31        -8.2160   -7.7730    9.5260 hc        1 0GU      0.043922
     70 H32        -9.2740   -7.2410    8.1530 hc        1 0GU      0.043922
     71 H33        -9.4840  -11.0090    8.2130 hc        1 0GU      0.043922
     72 H34       -10.4390   -9.4640    8.3560 hc        1 0GU      0.043922
     73 H35        -9.2890   -9.9470    9.6660 hc        1 0GU      0.043922
     74 H36        -2.3340   -7.9360    4.6040 ho        1 0GU      0.439000
     75 H37         1.5100   -3.0730   -0.5740 hc        1 0GU      0.058200
     76 H38         0.2120   -2.1500    0.2970 hc        1 0GU      0.058200
     77 H39         2.8510   -0.9850   -0.8410 hc        1 0GU      0.074950
     78 H40         1.1760   -0.7700   -1.5010 hc        1 0GU      0.074950
     79 H422       -5.0520   -8.8800    4.1020 hn        1 0GU      0.459300
@<TRIPOS>BOND
     1    1    2 1   
     2    2    3 1   
     3    2   38 1   
     4    2   39 1   
     5    3    4 1   
     6    3   40 1   
     7    3   41 1   
     8    4    5 1   
     9    4   42 1   
    10    4   43 1   
    11    5    6 1   
    12    5    9 1   
    13    5   37 1   
    14    6    7 1   
    15    6   44 1   
    16    6   45 1   
    17    7    8 1   
    18    7   46 1   
    19    8    9 ar  
    20    8   13 ar  
    21    9   10 ar  
    22   10   11 ar  
    23   10   47 1   
    24   11   12 ar  
    25   11   15 1   
    26   12   13 ar  
    27   12   48 1   
    28   13   14 1   
    29   15   16 1   
    30   15   49 1   
    31   15   50 1   
    32   16   17 1   
    33   16   21 1   
    34   16   51 1   
    35   17   18 1   
    36   17   36 1   
    37   17   52 1   
    38   18   19 1   
    39   18   24 1   
    40   18   53 1   
    41   19   20 1   
    42   19   54 1   
    43   19   55 1   
    44   20   21 1   
    45   20   22 2   
    46   20   23 2   
    47   21   56 1   
    48   21   57 1   
    49   24   25 1   
    50   24   58 1   
    51   24   79 1   
    52   25   26 1   
    53   25   59 1   
    54   25   60 1   
    55   26   27 ar  
    56   26   31 ar  
    57   27   28 ar  
    58   27   61 1   
    59   28   29 ar  
    60   28   32 1   
    61   29   30 ar  
    62   29   62 1   
    63   30   31 ar  
    64   30   63 1   
    65   31   64 1   
    66   32   33 1   
    67   32   34 1   
    68   32   35 1   
    69   33   65 1   
    70   33   66 1   
    71   33   67 1   
    72   34   68 1   
    73   34   69 1   
    74   34   70 1   
    75   35   71 1   
    76   35   72 1   
    77   35   73 1   
    78   36   74 1   
    79   37   38 1   
    80   37   75 1   
    81   37   76 1   
    82   38   77 1   
    83   38   78 1   
@<TRIPOS>SUBSTRUCTURE
     1 0GU         1 TEMP              0 ****  ****    0 ROOT
