@<TRIPOS>MOLECULE
0GU
   78    82     1     0     0
SMALL
bcc


@<TRIPOS>ATOM
      1 F1          6.5060   -2.9740   -1.7720 f         1 0GU     -0.244300
      2 C2          7.3930   -2.0820   -1.1980 c3        1 0GU      0.404600
      3 C3          7.4700   -0.7500   -1.9840 c3        1 0GU     -0.119900
      4 C6          6.1960    0.0480   -1.8420 c3        1 0GU     -0.067900
      5 C9          5.8240    0.3210   -0.3900 c3        1 0GU     -0.010700
      6 C10         6.8070    1.3550    0.2650 c3        1 0GU      0.163800
      7 N13         6.0590    2.5860    0.5530 nh        1 0GU     -0.684600
      8 C15         4.6960    2.3190    0.2870 ca        1 0GU      0.069600
      9 C16         4.4990    1.0420   -0.3130 ca        1 0GU     -0.113300
     10 C17         3.2480    0.6350   -0.7310 ca        1 0GU     -0.102000
     11 C19         2.1490    1.4940   -0.5500 ca        1 0GU     -0.091300
     12 C20         2.3210    2.7420    0.0470 ca        1 0GU     -0.130000
     13 C22         3.5930    3.1710    0.4770 ca        1 0GU      0.102900
     14 F23         3.7400    4.3800    1.0670 f         1 0GU     -0.134900
     15 C24         0.7940    1.0800   -1.0110 c3        1 0GU     -0.026100
     16 C27        -0.0950    0.6370    0.1470 c3        1 0GU     -0.026700
     17 C29        -1.5530    0.5120   -0.3320 c3        1 0GU      0.144100
     18 C31        -2.4900    0.1180    0.8450 c3        1 0GU      0.179500
     19 C33        -2.0230   -1.2140    1.4470 c3        1 0GU     -0.362600
     20 S36        -0.4540   -1.1750    2.1130 s6        1 0GU      1.339000
     21 C37         0.3930   -0.6740    0.7290 c3        1 0GU     -0.331600
     22 O40        -0.3800   -0.2140    3.1270 o         1 0GU     -0.649300
     23 O41        -0.0710   -2.4830    2.4380 o         1 0GU     -0.649300
     24 N42        -3.8920    0.1660    0.4710 n3        1 0GU     -0.826200
     25 C44        -4.2900   -0.7110   -0.6150 c3        1 0GU      0.205100
     26 C47        -5.7690   -0.9580   -0.6720 ca        1 0GU     -0.105300
     27 C48        -6.6640    0.1130   -0.6890 ca        1 0GU     -0.111000
     28 C50        -8.0480   -0.1030   -0.7720 ca        1 0GU     -0.064300
     29 C51        -8.5170   -1.4190   -0.8410 ca        1 0GU     -0.121000
     30 C53        -7.6250   -2.4920   -0.8260 ca        1 0GU     -0.130000
     31 C55        -6.2530   -2.2690   -0.7390 ca        1 0GU     -0.126000
     32 C57        -8.9740    1.0850   -0.7850 c3        1 0GU     -0.010700
     33 C58        -8.7840    1.8900    0.4970 c3        1 0GU     -0.086433
     34 C62        -8.6480    1.9670   -1.9880 c3        1 0GU     -0.086433
     35 C66       -10.4400    0.6770   -0.8780 c3        1 0GU     -0.086433
     36 O70        -1.8900    1.7890   -0.8510 oh        1 0GU     -0.595800
     37 C72         5.7720   -0.9830    0.3970 c3        1 0GU     -0.067900
     38 C75         7.0450   -1.7880    0.2830 c3        1 0GU     -0.119900
     39 F78         8.5830   -2.7830   -1.2950 f         1 0GU     -0.244300
     40 H1          8.3480   -0.1750   -1.5930 hc        1 0GU      0.069200
     41 H2          7.6560   -0.9800   -3.0650 hc        1 0GU      0.069200
     42 H3          6.3080    1.0220   -2.3880 hc        1 0GU      0.060950
     43 H4          5.3520   -0.5180   -2.3230 hc        1 0GU      0.060950
     44 H5          7.2680    0.9210    1.1920 h1        1 0GU      0.053200
     45 H6          7.6280    1.6250   -0.4520 h1        1 0GU      0.053200
     46 H7          6.2250    2.9690    1.4610 hn        1 0GU      0.396800
     47 H8          3.1090   -0.3500   -1.2020 ha        1 0GU      0.139000
     48 H9          1.4580    3.4120    0.1900 ha        1 0GU      0.156000
     49 H10         0.2990    1.9460   -1.5300 hc        1 0GU      0.065700
     50 H11         0.8770    0.2430   -1.7550 hc        1 0GU      0.065700
     51 H12        -0.0560    1.4330    0.9460 hc        1 0GU      0.086700
     52 H13        -1.6260   -0.2570   -1.1510 h1        1 0GU      0.038700
     53 H14        -2.3680    0.9160    1.6450 h1        1 0GU      0.090700
     54 H15        -2.7550   -1.5160    2.2450 h1        1 0GU      0.117200
     55 H16        -2.0960   -2.0150    0.6640 h1        1 0GU      0.117200
     56 H17         0.3640   -1.4610   -0.0720 h1        1 0GU      0.123700
     57 H18         1.4890   -0.5460    0.9630 h1        1 0GU      0.123700
     58 H19        -4.4680    0.0230    1.2790 hn        1 0GU      0.381800
     59 H21        -3.9740   -0.2070   -1.5760 h1        1 0GU      0.038200
     60 H22        -3.7560   -1.7070   -0.5760 h1        1 0GU      0.038200
     61 H23        -6.2740    1.1420   -0.6380 ha        1 0GU      0.143000
     62 H24        -9.5950   -1.6310   -0.9090 ha        1 0GU      0.137000
     63 H25        -8.0090   -3.5210   -0.8810 ha        1 0GU      0.133000
     64 H26        -5.5570   -3.1200   -0.7270 ha        1 0GU      0.131000
     65 H27        -7.7340    2.2580    0.5800 hc        1 0GU      0.037922
     66 H28        -9.4700    2.7710    0.4970 hc        1 0GU      0.037922
     67 H29        -9.0130    1.2580    1.3880 hc        1 0GU      0.037922
     68 H30        -8.7750    1.3920   -2.9350 hc        1 0GU      0.037922
     69 H31        -9.3350    2.8480   -2.0090 hc        1 0GU      0.037922
     70 H32        -7.5970    2.3380   -1.9310 hc        1 0GU      0.037922
     71 H33       -10.7300    0.0490   -0.0020 hc        1 0GU      0.037922
     72 H34       -11.0830    1.5910   -0.8830 hc        1 0GU      0.037922
     73 H35       -10.6320    0.1070   -1.8180 hc        1 0GU      0.037922
     74 H36        -2.8370    1.7940   -1.0360 ho        1 0GU      0.425000
     75 H37         5.5720   -0.7640    1.4780 hc        1 0GU      0.060950
     76 H38         4.9140   -1.5970    0.0100 hc        1 0GU      0.060950
     77 H39         6.9310   -2.7600    0.8270 hc        1 0GU      0.069200
     78 H40         7.9090   -1.2340    0.7310 hc        1 0GU      0.069200
@<TRIPOS>BOND
     1    1    2 1   
     2    2    3 1   
     3    2   38 1   
     4    2   39 1   
     5    3    4 1   
     6    3   40 1   
     7    3   41 1   
     8    4    5 1   
     9    4   42 1   
    10    4   43 1   
    11    5    6 1   
    12    5    9 1   
    13    5   37 1   
    14    6    7 1   
    15    6   44 1   
    16    6   45 1   
    17    7    8 1   
    18    7   46 1   
    19    8    9 ar  
    20    8   13 ar  
    21    9   10 ar  
    22   10   11 ar  
    23   10   47 1   
    24   11   12 ar  
    25   11   15 1   
    26   12   13 ar  
    27   12   48 1   
    28   13   14 1   
    29   15   16 1   
    30   15   49 1   
    31   15   50 1   
    32   16   17 1   
    33   16   21 1   
    34   16   51 1   
    35   17   18 1   
    36   17   36 1   
    37   17   52 1   
    38   18   19 1   
    39   18   24 1   
    40   18   53 1   
    41   19   20 1   
    42   19   54 1   
    43   19   55 1   
    44   20   21 1   
    45   20   22 2   
    46   20   23 2   
    47   21   56 1   
    48   21   57 1   
    49   24   25 1   
    50   24   58 1   
    51   25   26 1   
    52   25   59 1   
    53   25   60 1   
    54   26   27 ar  
    55   26   31 ar  
    56   27   28 ar  
    57   27   61 1   
    58   28   29 ar  
    59   28   32 1   
    60   29   30 ar  
    61   29   62 1   
    62   30   31 ar  
    63   30   63 1   
    64   31   64 1   
    65   32   33 1   
    66   32   34 1   
    67   32   35 1   
    68   33   65 1   
    69   33   66 1   
    70   33   67 1   
    71   34   68 1   
    72   34   69 1   
    73   34   70 1   
    74   35   71 1   
    75   35   72 1   
    76   35   73 1   
    77   36   74 1   
    78   37   38 1   
    79   37   75 1   
    80   37   76 1   
    81   38   77 1   
    82   38   78 1   
@<TRIPOS>SUBSTRUCTURE
     1 0GU         1 TEMP              0 ****  ****    0 ROOT
