@<TRIPOS>MOLECULE
0GV
   73    76     1     0     0
SMALL
bcc


@<TRIPOS>ATOM
      1 C10        -0.1650   -0.0780    0.0890 c3        1 0GV     -0.016800
      2 C11         1.8350    1.2560   -0.7310 c3        1 0GV     -0.075400
      3 C12         3.3330    1.5030   -0.6870 c3        1 0GV     -0.067400
      4 C13         3.8110    1.6430    0.7490 c3        1 0GV     -0.047000
      5 C14         3.4310    0.3220    1.4690 c3        1 0GV     -0.054700
      6 C15         4.2340    0.3700    2.7610 c3        1 0GV     -0.073400
      7 C16         5.5290    1.0890    2.3780 c3        1 0GV     -0.079400
      8 C17         5.3460    1.6550    0.9530 c3        1 0GV     -0.053700
      9 C18         3.1900    2.8630    1.4070 c3        1 0GV     -0.083100
     10 C9          1.3750    0.0690    0.1070 c3        1 0GV     -0.044700
     11 C19        -0.8540    1.2180    0.5080 c3        1 0GV     -0.086100
     12 C1         -0.5850   -0.4380   -1.3460 c3        1 0GV     -0.068400
     13 C2         -2.0350   -0.8450   -1.4610 c3        1 0GV     -0.116400
     14 C3         -2.3320   -2.0310   -0.5550 c3        1 0GV      0.146100
     15 O1         -3.7180   -2.3520   -0.5630 oh        1 0GV     -0.599800
     16 C4         -1.9830   -1.7000    0.8930 c3        1 0GV     -0.054200
     17 C5         -0.5930   -1.1770    1.0300 c2        1 0GV     -0.033400
     18 C6          0.2030   -1.6560    2.0000 ce        1 0GV     -0.260200
     19 C7          1.5610   -1.1610    2.2610 c         1 0GV      0.571300
     20 O7          2.3170   -1.7460    3.0450 o         1 0GV     -0.532100
     21 C8          1.9320    0.1140    1.5390 c3        1 0GV     -0.143700
     22 C20         6.0570    2.9920    0.7730 c3        1 0GV     -0.055700
     23 C21         5.8470    3.5570   -0.6180 c3        1 0GV     -0.091100
     24 C22         7.5550    2.8300    1.0330 c3        1 0GV     -0.080400
     25 C23         8.2080    4.1410    1.4200 c3        1 0GV     -0.079400
     26 C24         9.6940    3.9590    1.6470 c3        1 0GV     -0.076400
     27 C25        10.3780    5.2510    2.0720 c3        1 0GV     -0.067700
     28 C26        11.7260    4.9460    2.6940 c3        1 0GV     -0.089600
     29 C27        10.5470    6.1980    0.9030 c3        1 0GV     -0.089600
     30 H1          1.3080    2.1860   -0.3940 hc        1 0GV      0.042700
     31 H2          1.5430    1.0750   -1.8000 hc        1 0GV      0.042700
     32 H3          3.5630    2.4320   -1.2710 hc        1 0GV      0.043700
     33 H4          3.8750    0.6530   -1.1810 hc        1 0GV      0.043700
     34 H5          3.8480   -0.5300    0.8550 hc        1 0GV      0.051700
     35 H6          4.4290   -0.6580    3.1520 hc        1 0GV      0.055200
     36 H7          3.6820    0.9340    3.5530 hc        1 0GV      0.055200
     37 H8          6.3910    0.3790    2.4000 hc        1 0GV      0.042200
     38 H9          5.7440    1.9130    3.1030 hc        1 0GV      0.042200
     39 H10         5.7920    0.9300    0.2170 hc        1 0GV      0.046700
     40 H11         3.5780    2.9790    2.4490 hc        1 0GV      0.035700
     41 H12         3.4410    3.7840    0.8280 hc        1 0GV      0.035700
     42 H13         2.0770    2.7810    1.4560 hc        1 0GV      0.035700
     43 H14         1.7990   -0.8630   -0.3720 hc        1 0GV      0.053700
     44 H15        -0.7770    1.9800   -0.3050 hc        1 0GV      0.041367
     45 H16        -0.3870    1.6340    1.4320 hc        1 0GV      0.041367
     46 H17        -1.9380    1.0360    0.7090 hc        1 0GV      0.041367
     47 H18         0.0630   -1.2770   -1.7150 hc        1 0GV      0.048700
     48 H19        -0.4050    0.4470   -2.0100 hc        1 0GV      0.048700
     49 H20        -2.7040    0.0110   -1.1820 hc        1 0GV      0.050700
     50 H21        -2.2640   -1.1180   -2.5250 hc        1 0GV      0.050700
     51 H22        -1.7430   -2.9300   -0.8960 h1        1 0GV      0.039700
     52 H23        -3.9570   -2.5220   -1.4810 ho        1 0GV      0.402000
     53 H24        -2.7060   -0.9270    1.2740 hc        1 0GV      0.070700
     54 H25        -2.1270   -2.6210    1.5180 hc        1 0GV      0.070700
     55 H26        -0.1320   -2.4680    2.6680 ha        1 0GV      0.150000
     56 H27         1.4560    0.9560    2.1160 hc        1 0GV      0.080700
     57 H28         5.6450    3.7220    1.5260 hc        1 0GV      0.050700
     58 H29         4.8220    3.9880   -0.7220 hc        1 0GV      0.033367
     59 H30         5.9780    2.7610   -1.3910 hc        1 0GV      0.033367
     60 H31         6.5830    4.3720   -0.8250 hc        1 0GV      0.033367
     61 H32         8.0470    2.4190    0.1130 hc        1 0GV      0.042200
     62 H33         7.7270    2.0890    1.8570 hc        1 0GV      0.042200
     63 H34         7.7310    4.5360    2.3560 hc        1 0GV      0.039700
     64 H35         8.0400    4.9050    0.6160 hc        1 0GV      0.039700
     65 H36        10.1750    3.5730    0.7100 hc        1 0GV      0.040200
     66 H37         9.8500    3.1820    2.4430 hc        1 0GV      0.040200
     67 H38         9.7350    5.7550    2.8490 hc        1 0GV      0.045700
     68 H39        12.3800    4.4080    1.9670 hc        1 0GV      0.032700
     69 H40        12.2360    5.8930    2.9960 hc        1 0GV      0.032700
     70 H41        11.6030    4.3060    3.6000 hc        1 0GV      0.032700
     71 H42         9.5550    6.4570    0.4600 hc        1 0GV      0.032700
     72 H43        11.0410    7.1420    1.2390 hc        1 0GV      0.032700
     73 H44        11.1780    5.7330    0.1080 hc        1 0GV      0.032700
@<TRIPOS>BOND
     1    1   10 1   
     2    1   11 1   
     3    1   12 1   
     4    1   17 1   
     5    2    3 1   
     6    2   10 1   
     7    2   30 1   
     8    2   31 1   
     9    3    4 1   
    10    3   32 1   
    11    3   33 1   
    12    4    5 1   
    13    4    8 1   
    14    4    9 1   
    15    5    6 1   
    16    5   21 1   
    17    5   34 1   
    18    6    7 1   
    19    6   35 1   
    20    6   36 1   
    21    7    8 1   
    22    7   37 1   
    23    7   38 1   
    24    8   22 1   
    25    8   39 1   
    26    9   40 1   
    27    9   41 1   
    28    9   42 1   
    29   10   21 1   
    30   10   43 1   
    31   11   44 1   
    32   11   45 1   
    33   11   46 1   
    34   12   13 1   
    35   12   47 1   
    36   12   48 1   
    37   13   14 1   
    38   13   49 1   
    39   13   50 1   
    40   14   15 1   
    41   14   16 1   
    42   14   51 1   
    43   15   52 1   
    44   16   17 1   
    45   16   53 1   
    46   16   54 1   
    47   17   18 2   
    48   18   19 1   
    49   18   55 1   
    50   19   20 2   
    51   19   21 1   
    52   21   56 1   
    53   22   23 1   
    54   22   24 1   
    55   22   57 1   
    56   23   58 1   
    57   23   59 1   
    58   23   60 1   
    59   24   25 1   
    60   24   61 1   
    61   24   62 1   
    62   25   26 1   
    63   25   63 1   
    64   25   64 1   
    65   26   27 1   
    66   26   65 1   
    67   26   66 1   
    68   27   28 1   
    69   27   29 1   
    70   27   67 1   
    71   28   68 1   
    72   28   69 1   
    73   28   70 1   
    74   29   71 1   
    75   29   72 1   
    76   29   73 1   
@<TRIPOS>SUBSTRUCTURE
     1 0GV         1 TEMP              0 ****  ****    0 ROOT
