@<TRIPOS>MOLECULE
0GV
   73    74     1     0     0
SMALL
bcc


@<TRIPOS>ATOM
      1 C10        -3.8950   -1.5880   -0.1910 c3        1 0GV     -0.021000
      2 C11        -1.7840   -0.4070   -1.0070 c3        1 0GV     -0.154000
      3 C12        -0.0940   -0.3680   -1.0710 c3        1 0GV     -0.146000
      4 C13         0.3970   -0.4210   -0.0210 c3        1 0GV     -0.047000
      5 C14        -0.0880   -1.5670    0.8480 c3        1 0GV     -0.094000
      6 C15         0.5210   -1.3040    1.9980 c3        1 0GV     -0.152000
      7 C16         1.5410   -0.9660    1.6410 c3        1 0GV     -0.158000
      8 C17         1.1700   -0.5280   -0.0380 c3        1 0GV     -0.093000
      9 C18         0.1010    0.9280    0.7350 c3        1 0GV     -0.201000
     10 C9         -2.2840   -1.5720   -0.1960 c3        1 0GV     -0.084000
     11 C19        -4.3590   -0.2870    0.5080 c3        1 0GV     -0.204000
     12 C1         -4.3840   -1.5150   -1.6310 c3        1 0GV     -0.147000
     13 C2         -5.8950   -1.5220   -1.7440 c3        1 0GV     -0.195000
     14 C3         -6.5400   -2.6850   -0.9800 c3        1 0GV      0.035000
     15 O1         -7.9160   -2.5320   -1.0140 oh        1 0GV     -0.327000
     16 C4         -6.0760   -2.7710    0.5370 c3        1 0GV     -0.137000
     17 C5         -4.5290   -2.7420    0.5740 c2        1 0GV     -0.025000
     18 C6         -3.6660   -3.3970    1.8030 c1        1 0GV     -0.241000
     19 C7         -2.1300   -2.8370    1.9690 c1        1 0GV      0.263000
     20 O7         -1.4980   -3.0580    3.0080 o         1 0GV     -0.293000
     21 C8         -1.6950   -1.6080    0.9950 c2        1 0GV     -0.133000
     22 C20         2.0040    1.0120   -0.4850 c3        1 0GV     -0.095000
     23 C21         1.9580    1.1810   -1.8720 c3        1 0GV     -0.209000
     24 C22         3.3810    0.9690   -0.0480 c3        1 0GV     -0.159000
     25 C23         4.0010    2.3740   -0.1760 c3        1 0GV     -0.158000
     26 C24         5.5570    2.2610   -0.1530 c3        1 0GV     -0.155000
     27 C25         6.1830    3.6760    0.1240 c3        1 0GV     -0.107000
     28 C26         7.1530    3.5820    1.3110 c3        1 0GV     -0.207500
     29 C27         6.9590    4.1640   -1.1420 c3        1 0GV     -0.207500
     30 H1         -2.1040    0.4170   -0.6060 hc        1 0GV      0.082000
     31 H2         -2.1370   -0.4770   -1.9200 hc        1 0GV      0.082000
     32 H3          0.2200   -1.1390   -1.6070 hc        1 0GV      0.083000
     33 H4          0.1860    0.4540   -1.5090 hc        1 0GV      0.083000
     34 H5          0.2390   -2.4260    0.4840 hc        1 0GV      0.091000
     35 H6          0.5930   -2.1320    2.5670 hc        1 0GV      0.094500
     36 H7          0.0620   -0.5840    2.4800 hc        1 0GV      0.094500
     37 H8          1.8540   -0.1830    2.1510 hc        1 0GV      0.081500
     38 H9          2.1990   -1.7110    1.6800 hc        1 0GV      0.081500
     39 H10         1.4110   -1.2540   -0.6540 hc        1 0GV      0.086000
     40 H11         0.9100    1.2070    1.2490 hc        1 0GV      0.075000
     41 H12        -0.1310    1.6340    0.0760 hc        1 0GV      0.075000
     42 H13        -0.6500    0.7980    1.3530 hc        1 0GV      0.075000
     43 H14        -1.9870   -2.4210   -0.6890 hc        1 0GV      0.093000
     44 H15        -5.3450   -0.3080    0.6210 hc        1 0GV      0.080667
     45 H16        -3.9390   -0.2190    1.3690 hc        1 0GV      0.080667
     46 H17        -4.1100    0.4830   -0.0360 hc        1 0GV      0.080667
     47 H18        -4.0350   -2.2680   -2.1140 hc        1 0GV      0.088000
     48 H19        -4.0400   -0.6870   -2.0400 hc        1 0GV      0.088000
     49 H20        -6.1410   -1.5920   -2.6980 hc        1 0GV      0.090000
     50 H21        -6.2450   -0.6720   -1.3870 hc        1 0GV      0.090000
     51 H22        -6.3120   -3.5000   -1.4150 h1        1 0GV      0.079000
     52 H23        -8.2930   -3.2960   -1.2730 ho        1 0GV      0.201000
     53 H24        -6.5210   -3.5220    1.0400 hc        1 0GV      0.110000
     54 H25        -6.4030   -2.0090    1.0300 hc        1 0GV      0.110000
     55 H26        -4.1270   -3.7990    2.5650 ha        1 0GV      0.150000
     56 H27        -1.9530   -0.7950    1.4490 ha        1 0GV      0.120000
     57 H28         1.5340    1.7910   -0.0360 hc        1 0GV      0.090000
     58 H29         2.7900    1.5910   -2.1790 hc        1 0GV      0.072667
     59 H30         1.1950    1.7670   -2.1070 hc        1 0GV      0.072667
     60 H31         1.8440    0.2950   -2.3100 hc        1 0GV      0.072667
     61 H32         3.8830    0.3370   -0.6070 hc        1 0GV      0.081500
     62 H33         3.4190    0.6780    0.8910 hc        1 0GV      0.081500
     63 H34         3.7150    2.7810   -1.0190 hc        1 0GV      0.079000
     64 H35         3.7040    2.9290    0.5690 hc        1 0GV      0.079000
     65 H36         5.8350    1.6250    0.5740 hc        1 0GV      0.079500
     66 H37         5.8770    1.9230   -1.0300 hc        1 0GV      0.079500
     67 H38         5.4820    4.3010    0.3310 hc        1 0GV      0.085000
     68 H39         7.7780    2.8600    1.1590 hc        1 0GV      0.072000
     69 H40         7.6440    4.4230    1.3990 hc        1 0GV      0.072000
     70 H41         6.6440    3.4090    2.1390 hc        1 0GV      0.072000
     71 H42         7.6560    3.5190   -1.3660 hc        1 0GV      0.072000
     72 H43         6.3320    4.2510   -1.9040 hc        1 0GV      0.072000
     73 H44         7.3760    5.0500   -0.9530 hc        1 0GV      0.072000
@<TRIPOS>BOND
     1    1   10 1   
     2    1   11 1   
     3    1   12 1   
     4    1   17 1   
     5    2    3 1   
     6    2   10 1   
     7    2   30 1   
     8    2   31 1   
     9    3    4 1   
    10    3   32 1   
    11    3   33 1   
    12    4    5 1   
    13    4    8 1   
    14    4    9 1   
    15    5    6 1   
    16    5   21 1   
    17    5   34 1   
    18    6    7 1   
    19    6   35 1   
    20    6   36 1   
    21    7    8 1   
    22    7   37 1   
    23    7   38 1   
    24    8   22 1   
    25    8   39 1   
    26    9   40 1   
    27    9   41 1   
    28    9   42 1   
    29   10   21 1   
    30   10   43 1   
    31   11   44 1   
    32   11   45 1   
    33   11   46 1   
    34   12   13 1   
    35   12   47 1   
    36   12   48 1   
    37   13   14 1   
    38   13   49 1   
    39   13   50 1   
    40   14   15 1   
    41   14   16 1   
    42   14   51 1   
    43   15   52 1   
    44   16   17 1   
    45   16   53 1   
    46   16   54 1   
    47   17   18 1   
    48   18   55 1   
    49   19   20 1   
    50   21   56 1   
    51   22   23 1   
    52   22   24 1   
    53   22   57 1   
    54   23   58 1   
    55   23   59 1   
    56   23   60 1   
    57   24   25 1   
    58   24   61 1   
    59   24   62 1   
    60   25   26 1   
    61   25   63 1   
    62   25   64 1   
    63   26   27 1   
    64   26   65 1   
    65   26   66 1   
    66   27   28 1   
    67   27   29 1   
    68   27   67 1   
    69   28   68 1   
    70   28   69 1   
    71   28   70 1   
    72   29   71 1   
    73   29   72 1   
    74   29   73 1   
@<TRIPOS>SUBSTRUCTURE
     1 0GV         1 TEMP              0 ****  ****    0 ROOT
