@<TRIPOS>MOLECULE
0GV
   73    76     1     0     0
SMALL
bcc


@<TRIPOS>ATOM
      1 C10        -0.1620   -0.0850    0.0910 c3        1 0GV     -0.016800
      2 C11         1.8400    1.2420   -0.7360 c3        1 0GV     -0.075400
      3 C12         3.3380    1.4900   -0.6910 c3        1 0GV     -0.067400
      4 C13         3.8120    1.6420    0.7450 c3        1 0GV     -0.047000
      5 C14         3.4310    0.3280    1.4760 c3        1 0GV     -0.054700
      6 C15         4.2320    0.3870    2.7690 c3        1 0GV     -0.073400
      7 C16         5.5270    1.1030    2.3820 c3        1 0GV     -0.079400
      8 C17         5.3470    1.6570    0.9530 c3        1 0GV     -0.053700
      9 C18         3.1890    2.8680    1.3920 c3        1 0GV     -0.083100
     10 C9          1.3780    0.0620    0.1110 c3        1 0GV     -0.044700
     11 C19        -0.8520    1.2140    0.4970 c3        1 0GV     -0.086100
     12 C1         -0.5780   -0.4580   -1.3420 c3        1 0GV     -0.068400
     13 C2         -2.0280   -0.8650   -1.4570 c3        1 0GV     -0.116400
     14 C3         -2.3260   -2.0450   -0.5410 c3        1 0GV      0.146100
     15 O1         -3.7120   -2.3650   -0.5500 oh        1 0GV     -0.599800
     16 C4         -1.9810   -1.7010    0.9040 c3        1 0GV     -0.054200
     17 C5         -0.5920   -1.1760    1.0400 c2        1 0GV     -0.033400
     18 C6          0.2020   -1.6470    2.0160 ce        1 0GV     -0.260200
     19 C7          1.5600   -1.1490    2.2750 c         1 0GV      0.571300
     20 O7          2.3150   -1.7280    3.0660 o         1 0GV     -0.532100
     21 C8          1.9320    0.1200    1.5440 c3        1 0GV     -0.143700
     22 C20         6.0580    2.9920    0.7640 c3        1 0GV     -0.055700
     23 C21         5.8510    3.5460   -0.6330 c3        1 0GV     -0.091100
     24 C22         7.5550    2.8340    1.0280 c3        1 0GV     -0.080400
     25 C23         8.2070    4.1480    1.4070 c3        1 0GV     -0.079400
     26 C24         9.6930    3.9690    1.6370 c3        1 0GV     -0.076400
     27 C25        10.3740    5.2640    2.0570 c3        1 0GV     -0.067700
     28 C26        11.7230    4.9640    2.6790 c3        1 0GV     -0.089600
     29 C27        10.5400    6.2070    0.8840 c3        1 0GV     -0.089600
     30 H1          1.5500    1.0520   -1.8040 hc        1 0GV      0.042700
     31 H2          1.3110    2.1750   -0.4080 hc        1 0GV      0.042700
     32 H3          3.5690    2.4140   -1.2810 hc        1 0GV      0.043700
     33 H4          3.8810    0.6370   -1.1760 hc        1 0GV      0.043700
     34 H5          3.8500   -0.5300    0.8700 hc        1 0GV      0.051700
     35 H6          3.6770    0.9560    3.5550 hc        1 0GV      0.055200
     36 H7          4.4260   -0.6390    3.1690 hc        1 0GV      0.055200
     37 H8          5.7400    1.9320    3.1010 hc        1 0GV      0.042200
     38 H9          6.3900    0.3930    2.4120 hc        1 0GV      0.042200
     39 H10         5.7950    0.9260    0.2240 hc        1 0GV      0.046700
     40 H11         2.0770    2.7860    1.4400 hc        1 0GV      0.035700
     41 H12         3.4410    3.7840    0.8060 hc        1 0GV      0.035700
     42 H13         3.5750    2.9920    2.4340 hc        1 0GV      0.035700
     43 H14         1.8040   -0.8730   -0.3590 hc        1 0GV      0.053700
     44 H15        -0.7740    1.9690   -0.3220 hc        1 0GV      0.041367
     45 H16        -1.9360    1.0340    0.6980 hc        1 0GV      0.041367
     46 H17        -0.3870    1.6370    1.4190 hc        1 0GV      0.041367
     47 H18         0.0710   -1.3000   -1.7020 hc        1 0GV      0.048700
     48 H19        -0.3970    0.4220   -2.0140 hc        1 0GV      0.048700
     49 H20        -2.2540   -1.1480   -2.5180 hc        1 0GV      0.050700
     50 H21        -2.6980   -0.0080   -1.1860 hc        1 0GV      0.050700
     51 H22        -1.7360   -2.9460   -0.8730 h1        1 0GV      0.039700
     52 H23        -3.9490   -2.5430   -1.4670 ho        1 0GV      0.402000
     53 H24        -2.7050   -0.9250    1.2770 hc        1 0GV      0.070700
     54 H25        -2.1260   -2.6160    1.5370 hc        1 0GV      0.070700
     55 H26        -0.1340   -2.4540    2.6900 ha        1 0GV      0.150000
     56 H27         1.4550    0.9660    2.1130 hc        1 0GV      0.080700
     57 H28         5.6430    3.7280    1.5100 hc        1 0GV      0.050700
     58 H29         5.9840    2.7440   -1.3980 hc        1 0GV      0.033367
     59 H30         4.8260    3.9750   -0.7420 hc        1 0GV      0.033367
     60 H31         6.5870    4.3600   -0.8440 hc        1 0GV      0.033367
     61 H32         7.7260    2.0980    1.8580 hc        1 0GV      0.042200
     62 H33         8.0500    2.4160    0.1130 hc        1 0GV      0.042200
     63 H34         7.7280    4.5480    2.3400 hc        1 0GV      0.039700
     64 H35         8.0390    4.9070    0.5990 hc        1 0GV      0.039700
     65 H36         9.8490    3.1960    2.4370 hc        1 0GV      0.040200
     66 H37        10.1750    3.5800    0.7020 hc        1 0GV      0.040200
     67 H38         9.7310    5.7690    2.8320 hc        1 0GV      0.045700
     68 H39        11.6020    4.3270    3.5870 hc        1 0GV      0.032700
     69 H40        12.2310    5.9130    2.9770 hc        1 0GV      0.032700
     70 H41        12.3780    4.4250    1.9530 hc        1 0GV      0.032700
     71 H42        11.1710    5.7400    0.0900 hc        1 0GV      0.032700
     72 H43        11.0340    7.1520    1.2160 hc        1 0GV      0.032700
     73 H44         9.5470    6.4630    0.4420 hc        1 0GV      0.032700
@<TRIPOS>BOND
     1    1   10 1   
     2    1   11 1   
     3    1   12 1   
     4    1   17 1   
     5    2    3 1   
     6    2   10 1   
     7    2   30 1   
     8    2   31 1   
     9    3    4 1   
    10    3   32 1   
    11    3   33 1   
    12    4    5 1   
    13    4    8 1   
    14    4    9 1   
    15    5    6 1   
    16    5   21 1   
    17    5   34 1   
    18    6    7 1   
    19    6   35 1   
    20    6   36 1   
    21    7    8 1   
    22    7   37 1   
    23    7   38 1   
    24    8   22 1   
    25    8   39 1   
    26    9   40 1   
    27    9   41 1   
    28    9   42 1   
    29   10   21 1   
    30   10   43 1   
    31   11   44 1   
    32   11   45 1   
    33   11   46 1   
    34   12   13 1   
    35   12   47 1   
    36   12   48 1   
    37   13   14 1   
    38   13   49 1   
    39   13   50 1   
    40   14   15 1   
    41   14   16 1   
    42   14   51 1   
    43   15   52 1   
    44   16   17 1   
    45   16   53 1   
    46   16   54 1   
    47   17   18 2   
    48   18   19 1   
    49   18   55 1   
    50   19   20 2   
    51   19   21 1   
    52   21   56 1   
    53   22   23 1   
    54   22   24 1   
    55   22   57 1   
    56   23   58 1   
    57   23   59 1   
    58   23   60 1   
    59   24   25 1   
    60   24   61 1   
    61   24   62 1   
    62   25   26 1   
    63   25   63 1   
    64   25   64 1   
    65   26   27 1   
    66   26   65 1   
    67   26   66 1   
    68   27   28 1   
    69   27   29 1   
    70   27   67 1   
    71   28   68 1   
    72   28   69 1   
    73   28   70 1   
    74   29   71 1   
    75   29   72 1   
    76   29   73 1   
@<TRIPOS>SUBSTRUCTURE
     1 0GV         1 TEMP              0 ****  ****    0 ROOT
