@<TRIPOS>MOLECULE
0GV
   73    76     1     0     0
SMALL
bcc


@<TRIPOS>ATOM
      1 C10         3.7380    0.6120   -0.1610 c3        1 0GV     -0.016800
      2 C11         1.4620    1.5900    0.3990 c3        1 0GV     -0.075400
      3 C12         0.0240    1.3590    0.8320 c3        1 0GV     -0.067400
      4 C13        -0.6310    0.2930   -0.0290 c3        1 0GV     -0.047000
      5 C14         0.2250   -0.9910    0.1330 c3        1 0GV     -0.054700
      6 C15        -0.6580   -2.0900   -0.4410 c3        1 0GV     -0.073400
      7 C16        -2.0820   -1.6570   -0.0890 c3        1 0GV     -0.079400
      8 C17        -2.0120   -0.2150    0.4550 c3        1 0GV     -0.053700
      9 C18        -0.7240    0.7490   -1.4760 c3        1 0GV     -0.083100
     10 C9          2.3130    0.3250    0.3670 c3        1 0GV     -0.044700
     11 C19         3.7010    1.3040   -1.5200 c3        1 0GV     -0.085100
     12 C1          4.4410    1.5250    0.8570 c3        1 0GV     -0.072400
     13 C2          5.9200    1.6960    0.5950 c3        1 0GV     -0.078400
     14 C3          6.6140    0.3410    0.5990 c3        1 0GV      0.146100
     15 O1          7.9820    0.5800    0.2970 oh        1 0GV     -0.596800
     16 C4          5.9880   -0.5810   -0.4440 c3        1 0GV     -0.091200
     17 C5          4.5080   -0.6780   -0.2990 c2        1 0GV     -0.028400
     18 C6          3.9130   -1.8810   -0.3400 ce        1 0GV     -0.263200
     19 C7          2.4580   -2.0750   -0.2670 c         1 0GV      0.571300
     20 O7          1.9680   -3.2040   -0.1390 o         1 0GV     -0.533100
     21 C8          1.6310   -0.8170   -0.4020 c3        1 0GV     -0.143700
     22 C20        -3.2310    0.6080    0.0520 c3        1 0GV     -0.055700
     23 C21        -3.1410    2.0330    0.5630 c3        1 0GV     -0.091100
     24 C22        -4.5050   -0.0420    0.5900 c3        1 0GV     -0.080400
     25 C23        -5.7300    0.3650   -0.2040 c3        1 0GV     -0.079400
     26 C24        -6.9800   -0.2720    0.3630 c3        1 0GV     -0.076400
     27 C25        -8.2260    0.0880   -0.4330 c3        1 0GV     -0.067700
     28 C26        -9.3470   -0.8810   -0.1150 c3        1 0GV     -0.089600
     29 C27        -8.6720    1.5080   -0.1520 c3        1 0GV     -0.089600
     30 H1          1.4580    2.0710   -0.6140 hc        1 0GV      0.043200
     31 H2          1.9290    2.3190    1.1130 hc        1 0GV      0.043200
     32 H3         -0.0040    1.0410    1.9070 hc        1 0GV      0.043700
     33 H4         -0.5360    2.3270    0.7550 hc        1 0GV      0.043700
     34 H5          0.3230   -1.1940    1.2410 hc        1 0GV      0.051700
     35 H6         -0.5240   -2.1700   -1.5480 hc        1 0GV      0.055200
     36 H7         -0.4030   -3.0840    0.0020 hc        1 0GV      0.055200
     37 H8         -2.7360   -1.7040   -0.9950 hc        1 0GV      0.042200
     38 H9         -2.5170   -2.3380    0.6830 hc        1 0GV      0.042200
     39 H10        -1.9840   -0.2540    1.5790 hc        1 0GV      0.046700
     40 H11        -1.2420   -0.0250   -2.0920 hc        1 0GV      0.035700
     41 H12        -1.3000    1.7040   -1.5430 hc        1 0GV      0.035700
     42 H13         0.2870    0.9280   -1.9150 hc        1 0GV      0.035700
     43 H14         2.4230   -0.0290    1.4340 hc        1 0GV      0.053700
     44 H15         2.9960    0.7830   -2.2110 hc        1 0GV      0.042033
     45 H16         3.3730    2.3660   -1.4080 hc        1 0GV      0.042033
     46 H17         4.7170    1.3060   -1.9850 hc        1 0GV      0.042033
     47 H18         3.9570    2.5370    0.8340 hc        1 0GV      0.049200
     48 H19         4.2960    1.1030    1.8870 hc        1 0GV      0.049200
     49 H20         6.0910    2.1970   -0.3930 hc        1 0GV      0.059200
     50 H21         6.3750    2.3460    1.3860 hc        1 0GV      0.059200
     51 H22         6.5350   -0.1310    1.6190 h1        1 0GV      0.039700
     52 H23         8.4220   -0.2780    0.2990 ho        1 0GV      0.401000
     53 H24         6.2280   -0.1830   -1.4690 hc        1 0GV      0.061700
     54 H25         6.4590   -1.5970   -0.3660 hc        1 0GV      0.061700
     55 H26         4.5000   -2.8110   -0.4310 ha        1 0GV      0.147000
     56 H27         1.5940   -0.5790   -1.5020 hc        1 0GV      0.080700
     57 H28        -3.2930    0.6300   -1.0720 hc        1 0GV      0.050700
     58 H29        -2.7980    2.0490    1.6260 hc        1 0GV      0.033700
     59 H30        -2.4240    2.6310   -0.0500 hc        1 0GV      0.033700
     60 H31        -4.1380    2.5320    0.5080 hc        1 0GV      0.033700
     61 H32        -4.4140   -1.1600    0.5560 hc        1 0GV      0.042200
     62 H33        -4.6410    0.2430    1.6660 hc        1 0GV      0.042200
     63 H34        -5.8380    1.4820   -0.1960 hc        1 0GV      0.039700
     64 H35        -5.6020    0.0540   -1.2750 hc        1 0GV      0.039700
     65 H36        -6.8550   -1.3880    0.3630 hc        1 0GV      0.040200
     66 H37        -7.1150    0.0450    1.4310 hc        1 0GV      0.040200
     67 H38        -7.9850    0.0020   -1.5310 hc        1 0GV      0.045700
     68 H39        -9.5880   -0.8560    0.9750 hc        1 0GV      0.032700
     69 H40       -10.2670   -0.6120   -0.6870 hc        1 0GV      0.032700
     70 H41        -9.0510   -1.9230   -0.3870 hc        1 0GV      0.032700
     71 H42        -8.9190    1.6350    0.9300 hc        1 0GV      0.032700
     72 H43        -7.8650    2.2330   -0.4170 hc        1 0GV      0.032700
     73 H44        -9.5800    1.7540   -0.7530 hc        1 0GV      0.032700
@<TRIPOS>BOND
     1    1   10 1   
     2    1   11 1   
     3    1   12 1   
     4    1   17 1   
     5    2    3 1   
     6    2   10 1   
     7    2   30 1   
     8    2   31 1   
     9    3    4 1   
    10    3   32 1   
    11    3   33 1   
    12    4    5 1   
    13    4    8 1   
    14    4    9 1   
    15    5    6 1   
    16    5   21 1   
    17    5   34 1   
    18    6    7 1   
    19    6   35 1   
    20    6   36 1   
    21    7    8 1   
    22    7   37 1   
    23    7   38 1   
    24    8   22 1   
    25    8   39 1   
    26    9   40 1   
    27    9   41 1   
    28    9   42 1   
    29   10   21 1   
    30   10   43 1   
    31   11   44 1   
    32   11   45 1   
    33   11   46 1   
    34   12   13 1   
    35   12   47 1   
    36   12   48 1   
    37   13   14 1   
    38   13   49 1   
    39   13   50 1   
    40   14   15 1   
    41   14   16 1   
    42   14   51 1   
    43   15   52 1   
    44   16   17 1   
    45   16   53 1   
    46   16   54 1   
    47   17   18 2   
    48   18   19 1   
    49   18   55 1   
    50   19   20 2   
    51   19   21 1   
    52   21   56 1   
    53   22   23 1   
    54   22   24 1   
    55   22   57 1   
    56   23   58 1   
    57   23   59 1   
    58   23   60 1   
    59   24   25 1   
    60   24   61 1   
    61   24   62 1   
    62   25   26 1   
    63   25   63 1   
    64   25   64 1   
    65   26   27 1   
    66   26   65 1   
    67   26   66 1   
    68   27   28 1   
    69   27   29 1   
    70   27   67 1   
    71   28   68 1   
    72   28   69 1   
    73   28   70 1   
    74   29   71 1   
    75   29   72 1   
    76   29   73 1   
@<TRIPOS>SUBSTRUCTURE
     1 0GV         1 TEMP              0 ****  ****    0 ROOT
