@<TRIPOS>MOLECULE
0GV
   73    76     1     0     0
SMALL
bcc


@<TRIPOS>ATOM
      1 C10        -0.1600   -0.0860    0.0790 c3        1 0GV     -0.016800
      2 C11         1.8370    1.2570   -0.7340 c3        1 0GV     -0.075400
      3 C12         3.3340    1.5080   -0.6890 c3        1 0GV     -0.067400
      4 C13         3.8110    1.6430    0.7470 c3        1 0GV     -0.047000
      5 C14         3.4360    0.3180    1.4610 c3        1 0GV     -0.054700
      6 C15         4.2390    0.3610    2.7540 c3        1 0GV     -0.073400
      7 C16         5.5310    1.0850    2.3730 c3        1 0GV     -0.079400
      8 C17         5.3470    1.6580    0.9520 c3        1 0GV     -0.053700
      9 C18         3.1870    2.8580    1.4120 c3        1 0GV     -0.083100
     10 C9          1.3800    0.0650    0.0980 c3        1 0GV     -0.044700
     11 C19        -0.8520    1.2060    0.5040 c3        1 0GV     -0.086100
     12 C1         -0.5780   -0.4400   -1.3570 c3        1 0GV     -0.068400
     13 C2         -2.0270   -0.8500   -1.4750 c3        1 0GV     -0.116400
     14 C3         -2.3200   -2.0420   -0.5740 c3        1 0GV      0.146100
     15 O1         -3.7060   -2.3660   -0.5840 oh        1 0GV     -0.599800
     16 C4         -1.9720   -1.7170    0.8750 c3        1 0GV     -0.054200
     17 C5         -0.5850   -1.1900    1.0150 c2        1 0GV     -0.033400
     18 C6          0.2120   -1.6720    1.9830 ce        1 0GV     -0.260200
     19 C7          1.5700   -1.1750    2.2460 c         1 0GV      0.571300
     20 O7          2.3270   -1.7610    3.0270 o         1 0GV     -0.532100
     21 C8          1.9370    0.1050    1.5300 c3        1 0GV     -0.143700
     22 C20         6.0550    2.9980    0.7790 c3        1 0GV     -0.055700
     23 C21         5.8420    3.5690   -0.6100 c3        1 0GV     -0.091100
     24 C22         7.5520    2.8390    1.0370 c3        1 0GV     -0.080400
     25 C23         8.2020    4.1500    1.4310 c3        1 0GV     -0.079400
     26 C24         9.6890    3.9700    1.6570 c3        1 0GV     -0.076400
     27 C25        10.3690    5.2620    2.0900 c3        1 0GV     -0.067700
     28 C26        11.7180    4.9580    2.7090 c3        1 0GV     -0.089600
     29 C27        10.5340    6.2170    0.9260 c3        1 0GV     -0.089600
     30 H1          1.3070    2.1850   -0.3930 hc        1 0GV      0.042700
     31 H2          1.5450    1.0810   -1.8040 hc        1 0GV      0.042700
     32 H3          3.8780    0.6630   -1.1870 hc        1 0GV      0.043700
     33 H4          3.5620    2.4410   -1.2680 hc        1 0GV      0.043700
     34 H5          3.8550   -0.5310    0.8430 hc        1 0GV      0.051700
     35 H6          3.6840    0.9190    3.5480 hc        1 0GV      0.055200
     36 H7          4.4370   -0.6690    3.1400 hc        1 0GV      0.055200
     37 H8          6.3960    0.3770    2.3920 hc        1 0GV      0.042200
     38 H9          5.7440    1.9060    3.1030 hc        1 0GV      0.042200
     39 H10         5.7950    0.9380    0.2120 hc        1 0GV      0.046700
     40 H11         3.4360    3.7830    0.8380 hc        1 0GV      0.035700
     41 H12         2.0750    2.7730    1.4610 hc        1 0GV      0.035700
     42 H13         3.5750    2.9690    2.4540 hc        1 0GV      0.035700
     43 H14         1.8070   -0.8630   -0.3850 hc        1 0GV      0.053700
     44 H15        -0.7770    1.9720   -0.3050 hc        1 0GV      0.041367
     45 H16        -0.3860    1.6190    1.4310 hc        1 0GV      0.041367
     46 H17        -1.9350    1.0200    0.7050 hc        1 0GV      0.041367
     47 H18         0.0720   -1.2760   -1.7300 hc        1 0GV      0.048700
     48 H19        -0.4010    0.4490   -2.0180 hc        1 0GV      0.048700
     49 H20        -2.2550   -1.1190   -2.5390 hc        1 0GV      0.050700
     50 H21        -2.6990    0.0020   -1.1910 hc        1 0GV      0.050700
     51 H22        -1.7290   -2.9370   -0.9190 h1        1 0GV      0.039700
     52 H23        -3.9440   -2.5330   -1.5030 ho        1 0GV      0.402000
     53 H24        -2.1150   -2.6410    1.4960 hc        1 0GV      0.070700
     54 H25        -2.6980   -0.9480    1.2600 hc        1 0GV      0.070700
     55 H26        -0.1200   -2.4890    2.6470 ha        1 0GV      0.150000
     56 H27         1.4590    0.9420    2.1120 hc        1 0GV      0.080700
     57 H28         5.6400    3.7230    1.5350 hc        1 0GV      0.050700
     58 H29         5.9760    2.7780   -1.3870 hc        1 0GV      0.033367
     59 H30         6.5760    4.3870   -0.8120 hc        1 0GV      0.033367
     60 H31         4.8160    3.9970   -0.7110 hc        1 0GV      0.033367
     61 H32         7.7270    2.0940    1.8570 hc        1 0GV      0.042200
     62 H33         8.0460    2.4340    0.1150 hc        1 0GV      0.042200
     63 H34         8.0320    4.9180    0.6320 hc        1 0GV      0.039700
     64 H35         7.7240    4.5380    2.3690 hc        1 0GV      0.039700
     65 H36        10.1710    3.5920    0.7180 hc        1 0GV      0.040200
     66 H37         9.8470    3.1900    2.4480 hc        1 0GV      0.040200
     67 H38         9.7250    5.7590    2.8700 hc        1 0GV      0.045700
     68 H39        12.3730    4.4260    1.9780 hc        1 0GV      0.032700
     69 H40        12.2250    5.9040    3.0160 hc        1 0GV      0.032700
     70 H41        11.5970    4.3110    3.6110 hc        1 0GV      0.032700
     71 H42        11.1660    5.7590    0.1290 hc        1 0GV      0.032700
     72 H43        11.0250    7.1600    1.2680 hc        1 0GV      0.032700
     73 H44         9.5410    6.4750    0.4860 hc        1 0GV      0.032700
@<TRIPOS>BOND
     1    1   10 1   
     2    1   11 1   
     3    1   12 1   
     4    1   17 1   
     5    2    3 1   
     6    2   10 1   
     7    2   30 1   
     8    2   31 1   
     9    3    4 1   
    10    3   32 1   
    11    3   33 1   
    12    4    5 1   
    13    4    8 1   
    14    4    9 1   
    15    5    6 1   
    16    5   21 1   
    17    5   34 1   
    18    6    7 1   
    19    6   35 1   
    20    6   36 1   
    21    7    8 1   
    22    7   37 1   
    23    7   38 1   
    24    8   22 1   
    25    8   39 1   
    26    9   40 1   
    27    9   41 1   
    28    9   42 1   
    29   10   21 1   
    30   10   43 1   
    31   11   44 1   
    32   11   45 1   
    33   11   46 1   
    34   12   13 1   
    35   12   47 1   
    36   12   48 1   
    37   13   14 1   
    38   13   49 1   
    39   13   50 1   
    40   14   15 1   
    41   14   16 1   
    42   14   51 1   
    43   15   52 1   
    44   16   17 1   
    45   16   53 1   
    46   16   54 1   
    47   17   18 2   
    48   18   19 1   
    49   18   55 1   
    50   19   20 2   
    51   19   21 1   
    52   21   56 1   
    53   22   23 1   
    54   22   24 1   
    55   22   57 1   
    56   23   58 1   
    57   23   59 1   
    58   23   60 1   
    59   24   25 1   
    60   24   61 1   
    61   24   62 1   
    62   25   26 1   
    63   25   63 1   
    64   25   64 1   
    65   26   27 1   
    66   26   65 1   
    67   26   66 1   
    68   27   28 1   
    69   27   29 1   
    70   27   67 1   
    71   28   68 1   
    72   28   69 1   
    73   28   70 1   
    74   29   71 1   
    75   29   72 1   
    76   29   73 1   
@<TRIPOS>SUBSTRUCTURE
     1 0GV         1 TEMP              0 ****  ****    0 ROOT
