@<TRIPOS>MOLECULE
0GX
   58    54     1     0     0
SMALL
bcc


@<TRIPOS>ATOM
      1 CBD        -4.8290    6.6840   -1.9660 c3        1 0GX     -0.211000
      2 CAT        -4.3340    5.2590   -2.1470 c3        1 0GX     -0.165000
      3 CAS        -3.4860    4.8310   -0.8900 c3        1 0GX     -0.026000
      4 OAR        -2.5990    3.7830   -1.2540 os        1 0GX     -0.185000
      5 CAN        -1.4450    3.6600   -0.3970 c2        1 0GX     -0.197000
      6 SAO        -0.7410    2.3080    0.0180 ss        1 0GX      0.637000
      7 CAM        -0.6100    4.7590    0.0750 c1        1 0GX     -0.259000
      8 BR1        -0.9880    6.6310   -0.1340 br        1 0GX      0.098000
      9 CAL         0.6590    4.1450    0.8090 c1        1 0GX      0.008000
     10 CAP         1.7340    4.9210    1.4760 c2        1 0GX     -0.181000
     11 CAK         0.5610    2.6740    0.7630 c1        1 0GX     -0.456000
     12 CAI         1.5720    1.6660    1.4170 c1        1 0GX      0.368000
     13 OAJ         2.5690    2.0870    1.9820 o         1 0GX     -0.335000
     14 NAE         1.3750    0.2330    1.2670 n3        1 0GX     -0.283000
     15 CAD         0.7010   -0.3880    2.1020 c3        1 0GX     -0.005000
     16 CAC        -0.2930   -1.3090    1.2780 c3        1 0GX     -0.144500
     17 CAG         1.7210   -1.2720    2.7910 c3        1 0GX     -0.186000
     18 CAH         2.7870   -1.3610    1.7910 c3        1 0GX     -0.186000
     19 CAA         2.2350   -0.4610    0.6360 c3        1 0GX     -0.005000
     20 CAF         1.7270   -1.3640   -0.4130 c3        1 0GX     -0.144500
     21 CAB         0.2740   -1.9380   -0.2080 c3        1 0GX     -0.055000
     22 CAU         0.3020   -3.2880   -0.1600 c1        1 0GX     -0.105000
     23 CAZ         1.1030   -3.9880   -1.0290 c1        1 0GX     -0.105000
     24 CAV        -0.6180   -3.9740    0.6510 c1        1 0GX      0.093000
     25 FBA        -1.4310   -3.2820    1.4830 f         1 0GX     -0.105000
     26 CAW        -0.7150   -5.3260    0.5750 c1        1 0GX     -0.127000
     27 CAX         0.0980   -6.0340   -0.3080 c1        1 0GX     -0.127000
     28 CAY         1.0020   -5.3620   -1.1050 c1        1 0GX     -0.099000
     29 CBB         1.8980   -6.1540   -2.1090 c2        1 0GX     -0.038000
     30 NBC         1.2440   -7.3180   -2.5010 n3        1 0GX     -0.350000
     31 H1         -4.0680    7.2800   -1.8420 hc        1 0GX      0.077333
     32 H2         -5.3360    6.9600   -2.7680 hc        1 0GX      0.077333
     33 H3         -5.4260    6.7300   -1.1610 hc        1 0GX      0.077333
     34 H4         -5.1060    4.6540   -2.2440 hc        1 0GX      0.097500
     35 H5         -3.7610    5.2050   -2.9710 hc        1 0GX      0.097500
     36 H6         -2.9710    5.5970   -0.5670 h1        1 0GX      0.084000
     37 H7         -4.0860    4.5180   -0.1820 h1        1 0GX      0.084000
     38 H8          1.5310    5.9060    1.4060 ha        1 0GX      0.102667
     39 H9          2.6050    4.7300    1.0360 ha        1 0GX      0.102667
     40 H10         1.7830    4.6650    2.4180 ha        1 0GX      0.102667
     41 H11         0.2150    0.2320    2.7530 h1        1 0GX      0.124500
     42 H12        -0.5340   -2.0530    1.8380 hc        1 0GX      0.088750
     43 H13        -1.0980   -0.7940    1.0960 hc        1 0GX      0.088750
     44 H14         2.0490   -0.8490    3.6140 hc        1 0GX      0.092500
     45 H15         1.3510   -2.1430    2.9760 hc        1 0GX      0.092500
     46 H16         3.6300   -0.9970    2.1460 hc        1 0GX      0.092500
     47 H17         2.9050   -2.2900    1.4840 hc        1 0GX      0.092500
     48 H18         2.9580    0.1250    0.2760 h1        1 0GX      0.124500
     49 H19         2.3520   -2.1320   -0.4880 hc        1 0GX      0.088750
     50 H20         1.7400   -0.8810   -1.2560 hc        1 0GX      0.088750
     51 H21        -0.3120   -1.6400   -0.9440 hc        1 0GX      0.113000
     52 H22         1.7720   -3.4930   -1.6180 ha        1 0GX      0.136000
     53 H23        -1.3680   -5.8120    1.1510 ha        1 0GX      0.152500
     54 H24         0.0280   -7.0110   -0.3640 ha        1 0GX      0.152500
     55 H25         2.0700   -5.6030   -2.8880 h4        1 0GX      0.073000
     56 H26         2.7390   -6.3850   -1.6840 h4        1 0GX      0.073000
     57 H27         1.1070   -7.2980   -3.4250 hn        1 0GX      0.149500
     58 H28         1.7590   -8.0440   -2.2850 hn        1 0GX      0.149500
@<TRIPOS>BOND
     1    1    2 1   
     2    1   31 1   
     3    1   32 1   
     4    1   33 1   
     5    2    3 1   
     6    2   34 1   
     7    2   35 1   
     8    3    4 1   
     9    3   36 1   
    10    3   37 1   
    11    4    5 1   
    12    5    6 1   
    13    5    7 1   
    14    6   11 1   
    15    7    9 1   
    16    9   11 1   
    17   10   38 1   
    18   10   39 1   
    19   10   40 1   
    20   12   13 1   
    21   12   14 1   
    22   14   15 1   
    23   14   19 1   
    24   15   16 1   
    25   15   17 1   
    26   15   41 1   
    27   16   21 1   
    28   16   42 1   
    29   16   43 1   
    30   17   18 1   
    31   17   44 1   
    32   17   45 1   
    33   18   19 1   
    34   18   46 1   
    35   18   47 1   
    36   19   20 1   
    37   19   48 1   
    38   20   21 1   
    39   20   49 1   
    40   20   50 1   
    41   21   22 1   
    42   21   51 1   
    43   22   24 1   
    44   23   28 1   
    45   23   52 1   
    46   24   25 1   
    47   26   27 1   
    48   26   53 1   
    49   27   54 1   
    50   29   30 1   
    51   29   55 1   
    52   29   56 1   
    53   30   57 1   
    54   30   58 1   
@<TRIPOS>SUBSTRUCTURE
     1 0GX         1 TEMP              0 ****  ****    0 ROOT
