@<TRIPOS>MOLECULE
0GX
   59    62     1     0     0
SMALL
bcc


@<TRIPOS>ATOM
      1 CBD         0.9520    0.0840   -1.1970 c3        1 0GX     -0.095100
      2 CAT         1.7310   -0.8320   -0.2900 c3        1 0GX     -0.085400
      3 CAS         2.3270   -0.0470    0.8640 c3        1 0GX      0.123400
      4 OAR         3.0280   -1.0220    1.6710 os        1 0GX     -0.306900
      5 CAN         3.7040   -0.5060    2.7390 cc        1 0GX      0.159000
      6 SAO         3.2720   -0.9910    4.3000 ss        1 0GX      0.008200
      7 CAM         4.8310    0.3050    2.7430 cd        1 0GX     -0.129900
      8 BR1         5.6630    1.0160    1.2560 br        1 0GX     -0.021100
      9 CAL         5.3250    0.5080    4.0820 cd        1 0GX      0.032700
     10 CAP         6.5110    1.3300    4.3690 c3        1 0GX     -0.064800
     11 CAK         4.5510   -0.1640    5.0170 cc        1 0GX     -0.207700
     12 CAI         4.8490   -0.2260    6.4550 c         1 0GX      0.700700
     13 OAJ         6.0190   -0.2280    6.8860 o         1 0GX     -0.577100
     14 NAE         3.7920   -0.4230    7.3580 n         1 0GX     -0.448800
     15 CAD         2.4380    0.1190    7.1730 c3        1 0GX      0.072200
     16 CAC         1.4440   -0.9200    7.7250 c3        1 0GX     -0.065900
     17 CAG         2.3700    1.4050    8.0450 c3        1 0GX     -0.105400
     18 CAH         3.4250    1.1790    9.1300 c3        1 0GX     -0.105400
     19 CAA         4.0220   -0.2180    8.8020 c3        1 0GX      0.072200
     20 CAF         3.2300   -1.2990    9.5550 c3        1 0GX     -0.065900
     21 CAB         1.7420   -1.2890    9.1830 c3        1 0GX     -0.025400
     22 CAU         1.1350   -2.6190    9.5120 ca        1 0GX     -0.092300
     23 CAZ         1.5680   -3.7700    8.8530 ca        1 0GX     -0.084000
     24 CAV         0.1220   -2.7480   10.4940 ca        1 0GX      0.186900
     25 FBA        -0.3360   -1.6650   11.1540 f         1 0GX     -0.104900
     26 CAW        -0.4240   -4.0140   10.7960 ca        1 0GX     -0.159000
     27 CAX         0.0350   -5.1440   10.1340 ca        1 0GX     -0.067000
     28 CAY         1.0340   -5.0270    9.1610 ca        1 0GX     -0.218300
     29 CBB         1.5030   -6.2240    8.4150 c3        1 0GX      0.180100
     30 NBC         2.8730   -6.6380    8.8720 n4        1 0GX     -0.845600
     31 H1          0.1170    0.5770   -0.6430 hc        1 0GX      0.041700
     32 H2          0.5170   -0.4990   -2.0450 hc        1 0GX      0.041700
     33 H3          1.6120    0.8800   -1.6190 hc        1 0GX      0.041700
     34 H4          1.0660   -1.6400    0.1130 hc        1 0GX      0.057200
     35 H5          2.5570   -1.3350   -0.8600 hc        1 0GX      0.057200
     36 H6          1.5310    0.4290    1.4930 h1        1 0GX      0.050700
     37 H7          3.0430    0.7330    0.5010 h1        1 0GX      0.050700
     38 H8          6.3890    2.3540    3.9340 hc        1 0GX      0.071033
     39 H9          7.4190    0.8590    3.9120 hc        1 0GX      0.071033
     40 H10         6.6850    1.4230    5.4710 hc        1 0GX      0.071033
     41 H11         2.2130    0.3330    6.0940 h1        1 0GX      0.095200
     42 H12         0.4100   -0.4940    7.6580 hc        1 0GX      0.047450
     43 H13         1.4750   -1.8350    7.0780 hc        1 0GX      0.047450
     44 H14         2.6100    2.3040    7.4280 hc        1 0GX      0.062450
     45 H15         1.3500    1.5390    8.4760 hc        1 0GX      0.062450
     46 H16         4.2230    1.9590    9.0860 hc        1 0GX      0.062450
     47 H17         2.9790    1.1930   10.1520 hc        1 0GX      0.062450
     48 H18         5.1140   -0.2790    9.0530 h1        1 0GX      0.095200
     49 H19         3.3360   -1.1170   10.6550 hc        1 0GX      0.047450
     50 H20         3.6800   -2.3010    9.3320 hc        1 0GX      0.047450
     51 H21         1.2520   -0.4960    9.8240 hc        1 0GX      0.079700
     52 H22         2.3370   -3.6720    8.0680 ha        1 0GX      0.148000
     53 H23        -1.2180   -4.0900   11.5580 ha        1 0GX      0.178000
     54 H24        -0.4040   -6.1270   10.3720 ha        1 0GX      0.149000
     55 H25         0.8110   -7.1020    8.5710 hx        1 0GX      0.113200
     56 H26         1.5740   -6.0040    7.3090 hx        1 0GX      0.113200
     57 H27         3.2080   -7.4340    8.3220 hn        1 0GX      0.459133
     58 H28         3.5240   -5.8530    8.7630 hn        1 0GX      0.459133
     59 HBC3        2.8480   -6.8990    9.8630 hn        1 0GX      0.459133
@<TRIPOS>BOND
     1    1    2 1   
     2    1   31 1   
     3    1   32 1   
     4    1   33 1   
     5    2    3 1   
     6    2   34 1   
     7    2   35 1   
     8    3    4 1   
     9    3   36 1   
    10    3   37 1   
    11    4    5 1   
    12    5    6 1   
    13    5    7 2   
    14    6   11 1   
    15    7    8 1   
    16    7    9 1   
    17    9   10 1   
    18    9   11 2   
    19   10   38 1   
    20   10   39 1   
    21   10   40 1   
    22   11   12 1   
    23   12   13 2   
    24   12   14 1   
    25   14   15 1   
    26   14   19 1   
    27   15   16 1   
    28   15   17 1   
    29   15   41 1   
    30   16   21 1   
    31   16   42 1   
    32   16   43 1   
    33   17   18 1   
    34   17   44 1   
    35   17   45 1   
    36   18   19 1   
    37   18   46 1   
    38   18   47 1   
    39   19   20 1   
    40   19   48 1   
    41   20   21 1   
    42   20   49 1   
    43   20   50 1   
    44   21   22 1   
    45   21   51 1   
    46   22   23 ar  
    47   22   24 ar  
    48   23   28 ar  
    49   23   52 1   
    50   24   25 1   
    51   24   26 ar  
    52   26   27 ar  
    53   26   53 1   
    54   27   28 ar  
    55   27   54 1   
    56   28   29 1   
    57   29   30 1   
    58   29   55 1   
    59   29   56 1   
    60   30   57 1   
    61   30   58 1   
    62   30   59 1   
@<TRIPOS>SUBSTRUCTURE
     1 0GX         1 TEMP              0 ****  ****    0 ROOT
