@<TRIPOS>MOLECULE
0GX
   59    62     1     0     0
SMALL
bcc


@<TRIPOS>ATOM
      1 CBD         0.9350    0.0870   -1.1960 c3        1 0GX     -0.095100
      2 CAT         1.7030   -0.8410   -0.2920 c3        1 0GX     -0.085400
      3 CAS         2.3140   -0.0650    0.8600 c3        1 0GX      0.123400
      4 OAR         3.0030   -1.0500    1.6650 os        1 0GX     -0.306900
      5 CAN         3.6960   -0.5440    2.7270 cc        1 0GX      0.159000
      6 SAO         3.2660   -1.0140    4.2930 ss        1 0GX      0.008200
      7 CAM         4.8380    0.2450    2.7200 cd        1 0GX     -0.129900
      8 BR1         5.6740    0.9350    1.2240 br        1 0GX     -0.021100
      9 CAL         5.3460    0.4440    4.0540 cd        1 0GX      0.032700
     10 CAP         6.5500    1.2440    4.3300 c3        1 0GX     -0.064800
     11 CAK         4.5650   -0.2090    4.9970 cc        1 0GX     -0.207700
     12 CAI         4.8730   -0.2720    6.4340 c         1 0GX      0.700700
     13 OAJ         6.0450   -0.2950    6.8560 o         1 0GX     -0.577100
     14 NAE         3.8180   -0.4440    7.3450 n         1 0GX     -0.448800
     15 CAD         2.4740    0.1250    7.1670 c3        1 0GX      0.072200
     16 CAC         1.4640   -0.8920    7.7310 c3        1 0GX     -0.065900
     17 CAG         2.4380    1.4160    8.0330 c3        1 0GX     -0.105400
     18 CAH         3.4970    1.1740    9.1120 c3        1 0GX     -0.105400
     19 CAA         4.0630   -0.2360    8.7860 c3        1 0GX      0.072200
     20 CAF         3.2550   -1.2970    9.5500 c3        1 0GX     -0.065900
     21 CAB         1.7650   -1.2590    9.1890 c3        1 0GX     -0.025400
     22 CAU         1.1330   -2.5740    9.5290 ca        1 0GX     -0.092300
     23 CAZ         1.5380   -3.7380    8.8730 ca        1 0GX     -0.084000
     24 CAV         0.1250   -2.6780   10.5190 ca        1 0GX      0.186900
     25 FBA        -0.3060   -1.5830   11.1770 f         1 0GX     -0.104900
     26 CAW        -0.4440   -3.9310   10.8320 ca        1 0GX     -0.159000
     27 CAX        -0.0130   -5.0740   10.1730 ca        1 0GX     -0.067000
     28 CAY         0.9810   -4.9810    9.1910 ca        1 0GX     -0.218300
     29 CBB         1.4190   -6.1910    8.4470 c3        1 0GX      0.180100
     30 NBC         2.7840   -6.6320    8.8960 n4        1 0GX     -0.845600
     31 H1          1.6060    0.8730   -1.6210 hc        1 0GX      0.041700
     32 H2          0.4890   -0.4900   -2.0430 hc        1 0GX      0.041700
     33 H3          0.1090    0.5920   -0.6400 hc        1 0GX      0.041700
     34 H4          1.0270   -1.6390    0.1130 hc        1 0GX      0.057200
     35 H5          2.5190   -1.3560   -0.8640 hc        1 0GX      0.057200
     36 H6          1.5280    0.4240    1.4920 h1        1 0GX      0.050700
     37 H7          3.0410    0.7050    0.4950 h1        1 0GX      0.050700
     38 H8          7.4460    0.7540    3.8680 hc        1 0GX      0.071033
     39 H9          6.4450    2.2690    3.8930 hc        1 0GX      0.071033
     40 H10         6.7340    1.3370    5.4300 hc        1 0GX      0.071033
     41 H11         2.2450    0.3390    6.0890 h1        1 0GX      0.095200
     42 H12         1.4720   -1.8100    7.0890 hc        1 0GX      0.047450
     43 H13         0.4380   -0.4440    7.6700 hc        1 0GX      0.047450
     44 H14         2.6920    2.3070    7.4100 hc        1 0GX      0.062450
     45 H15         1.4250    1.5730    8.4710 hc        1 0GX      0.062450
     46 H16         4.3100    1.9380    9.0590 hc        1 0GX      0.062450
     47 H17         3.0590    1.2020   10.1370 hc        1 0GX      0.062450
     48 H18         5.1550   -0.3180    9.0300 h1        1 0GX      0.095200
     49 H19         3.6830   -2.3090    9.3280 hc        1 0GX      0.047450
     50 H20         3.3720   -1.1120   10.6490 hc        1 0GX      0.047450
     51 H21         1.2960   -0.4540    9.8300 hc        1 0GX      0.079700
     52 H22         2.3020   -3.6590    8.0810 ha        1 0GX      0.148000
     53 H23        -1.2330   -3.9870   11.6000 ha        1 0GX      0.178000
     54 H24        -0.4700   -6.0460   10.4180 ha        1 0GX      0.149000
     55 H25         0.7110   -7.0550    8.6130 hx        1 0GX      0.113200
     56 H26         1.4860   -5.9790    7.3400 hx        1 0GX      0.113200
     57 H27         2.7610   -6.8870    9.8890 hn        1 0GX      0.459133
     58 H28         3.4500   -5.8600    8.7790 hn        1 0GX      0.459133
     59 HBC3        3.0980   -7.4370    8.3480 hn        1 0GX      0.459133
@<TRIPOS>BOND
     1    1    2 1   
     2    1   31 1   
     3    1   32 1   
     4    1   33 1   
     5    2    3 1   
     6    2   34 1   
     7    2   35 1   
     8    3    4 1   
     9    3   36 1   
    10    3   37 1   
    11    4    5 1   
    12    5    6 1   
    13    5    7 2   
    14    6   11 1   
    15    7    8 1   
    16    7    9 1   
    17    9   10 1   
    18    9   11 2   
    19   10   38 1   
    20   10   39 1   
    21   10   40 1   
    22   11   12 1   
    23   12   13 2   
    24   12   14 1   
    25   14   15 1   
    26   14   19 1   
    27   15   16 1   
    28   15   17 1   
    29   15   41 1   
    30   16   21 1   
    31   16   42 1   
    32   16   43 1   
    33   17   18 1   
    34   17   44 1   
    35   17   45 1   
    36   18   19 1   
    37   18   46 1   
    38   18   47 1   
    39   19   20 1   
    40   19   48 1   
    41   20   21 1   
    42   20   49 1   
    43   20   50 1   
    44   21   22 1   
    45   21   51 1   
    46   22   23 ar  
    47   22   24 ar  
    48   23   28 ar  
    49   23   52 1   
    50   24   25 1   
    51   24   26 ar  
    52   26   27 ar  
    53   26   53 1   
    54   27   28 ar  
    55   27   54 1   
    56   28   29 1   
    57   29   30 1   
    58   29   55 1   
    59   29   56 1   
    60   30   57 1   
    61   30   58 1   
    62   30   59 1   
@<TRIPOS>SUBSTRUCTURE
     1 0GX         1 TEMP              0 ****  ****    0 ROOT
