@<TRIPOS>MOLECULE
0GX
   59    62     1     0     0
SMALL
bcc


@<TRIPOS>ATOM
      1 CBD         0.9260    0.1290   -1.1830 c3        1 0GX     -0.095100
      2 CAT         1.7000   -0.8010   -0.2850 c3        1 0GX     -0.085400
      3 CAS         2.3100   -0.0290    0.8700 c3        1 0GX      0.123400
      4 OAR         3.0030   -1.0160    1.6690 os        1 0GX     -0.306900
      5 CAN         3.6940   -0.5130    2.7340 cc        1 0GX      0.159000
      6 SAO         3.2650   -0.9960    4.2960 ss        1 0GX      0.008200
      7 CAM         4.8320    0.2810    2.7330 cd        1 0GX     -0.129900
      8 Br1         5.6650    0.9850    1.2420 br        1 0GX     -0.021100
      9 CAL         5.3380    0.4740    4.0690 cd        1 0GX      0.032700
     10 CAP         6.5380    1.2770    4.3510 c3        1 0GX     -0.064800
     11 CAK         4.5600   -0.1890    5.0070 cc        1 0GX     -0.207700
     12 CAI         4.8670   -0.2610    6.4430 c         1 0GX      0.700700
     13 OAJ         6.0400   -0.2810    6.8660 o         1 0GX     -0.577100
     14 NAE         3.8140   -0.4440    7.3530 n         1 0GX     -0.448800
     15 CAD         2.4660    0.1180    7.1780 c3        1 0GX      0.072200
     16 CAC         1.4610   -0.9070    7.7340 c3        1 0GX     -0.065900
     17 CAG         2.4240    1.4030    8.0530 c3        1 0GX     -0.105400
     18 CAH         3.4830    1.1590    9.1310 c3        1 0GX     -0.105400
     19 CAA         4.0560   -0.2460    8.7960 c3        1 0GX      0.072200
     20 CAF         3.2530   -1.3160    9.5510 c3        1 0GX     -0.065900
     21 CAB         1.7630   -1.2830    9.1890 c3        1 0GX     -0.025400
     22 CAU         1.1380   -2.6050    9.5190 ca        1 0GX     -0.092300
     23 CAZ         1.5490   -3.7610    8.8550 ca        1 0GX     -0.084000
     24 CAV         0.1300   -2.7210   10.5070 ca        1 0GX      0.186900
     25 FBA        -0.3070   -1.6330   11.1730 f         1 0GX     -0.104900
     26 CAW        -0.4330   -3.9790   10.8110 ca        1 0GX     -0.159000
     27 CAX         0.0040   -5.1150   10.1430 ca        1 0GX     -0.067000
     28 CAY         0.9990   -5.0100    9.1630 ca        1 0GX     -0.218300
     29 CBB         1.4440   -6.2120    8.4110 c3        1 0GX      0.180100
     30 NBC         2.8110   -6.6490    8.8590 nz        1 0GX     -0.845600
     31 H1          1.5930    0.9200   -1.6030 hc        1 0GX      0.041700
     32 H2          0.4810   -0.4440   -2.0310 hc        1 0GX      0.041700
     33 H3          0.0990    0.6270   -0.6210 hc        1 0GX      0.041700
     34 H4          2.5170   -1.3090   -0.8620 hc        1 0GX      0.057200
     35 H5          1.0280   -1.6030    0.1160 hc        1 0GX      0.057200
     36 H6          3.0330    0.7450    0.5080 h1        1 0GX      0.050700
     37 H7          1.5220    0.4540    1.5050 h1        1 0GX      0.050700
     38 H8          6.4280    2.3040    3.9200 hc        1 0GX      0.071033
     39 H9          7.4360    0.7940    3.8860 hc        1 0GX      0.071033
     40 H10         6.7210    1.3640    5.4510 hc        1 0GX      0.071033
     41 H11         2.2370    0.3390    6.1010 h1        1 0GX      0.095200
     42 H12         0.4330   -0.4650    7.6750 hc        1 0GX      0.047450
     43 H13         1.4740   -1.8210    7.0850 hc        1 0GX      0.047450
     44 H14         1.4090    1.5520    8.4920 hc        1 0GX      0.062450
     45 H15         2.6730    2.3000    7.4370 hc        1 0GX      0.062450
     46 H16         3.0440    1.1770   10.1560 hc        1 0GX      0.062450
     47 H17         4.2920    1.9270    9.0840 hc        1 0GX      0.062450
     48 H18         5.1490   -0.3240    9.0390 h1        1 0GX      0.095200
     49 H19         3.6860   -2.3250    9.3230 hc        1 0GX      0.047450
     50 H20         3.3690   -1.1390   10.6510 hc        1 0GX      0.047450
     51 H21         1.2890   -0.4850    9.8360 hc        1 0GX      0.079700
     52 H22         2.3140   -3.6720    8.0640 ha        1 0GX      0.148000
     53 H23        -1.2230   -4.0460   11.5770 ha        1 0GX      0.178000
     54 H24        -0.4480   -6.0910   10.3810 ha        1 0GX      0.149000
     55 H25         0.7410   -7.0800    8.5700 hx        1 0GX      0.113200
     56 H26         1.5110   -5.9910    7.3050 hx        1 0GX      0.113200
     57 H27         3.4740   -5.8730    8.7480 hn        1 0GX      0.459133
     58 H28         2.7880   -6.9120    9.8490 hn        1 0GX      0.459133
     59 HBC3        3.1300   -7.4480    8.3050 hn        1 0GX      0.459133
@<TRIPOS>BOND
     1    1    2 1   
     2    1   31 1   
     3    1   32 1   
     4    1   33 1   
     5    2    3 1   
     6    2   34 1   
     7    2   35 1   
     8    3    4 1   
     9    3   36 1   
    10    3   37 1   
    11    4    5 1   
    12    5    6 1   
    13    5    7 2   
    14    6   11 1   
    15    7    8 1   
    16    7    9 1   
    17    9   10 1   
    18    9   11 2   
    19   10   38 1   
    20   10   39 1   
    21   10   40 1   
    22   11   12 1   
    23   12   13 2   
    24   12   14 1   
    25   14   15 1   
    26   14   19 1   
    27   15   16 1   
    28   15   17 1   
    29   15   41 1   
    30   16   21 1   
    31   16   42 1   
    32   16   43 1   
    33   17   18 1   
    34   17   44 1   
    35   17   45 1   
    36   18   19 1   
    37   18   46 1   
    38   18   47 1   
    39   19   20 1   
    40   19   48 1   
    41   20   21 1   
    42   20   49 1   
    43   20   50 1   
    44   21   22 1   
    45   21   51 1   
    46   22   23 ar  
    47   22   24 ar  
    48   23   28 ar  
    49   23   52 1   
    50   24   25 1   
    51   24   26 ar  
    52   26   27 ar  
    53   26   53 1   
    54   27   28 ar  
    55   27   54 1   
    56   28   29 1   
    57   29   30 1   
    58   29   55 1   
    59   29   56 1   
    60   30   57 1   
    61   30   58 1   
    62   30   59 1   
@<TRIPOS>SUBSTRUCTURE
     1 0GX         1 TEMP              0 ****  ****    0 ROOT
