@<TRIPOS>MOLECULE
0GX
   58    61     1     0     0
SMALL
bcc


@<TRIPOS>ATOM
      1 CBD        -3.2520    5.1720    1.4740 c3        1 0GX     -0.095100
      2 CAT        -3.9590    4.0530    0.7550 c3        1 0GX     -0.084400
      3 CAS        -3.0500    2.8440    0.6350 c3        1 0GX      0.111400
      4 OAR        -3.8210    1.8420   -0.0570 os        1 0GX     -0.271900
      5 CAN        -3.1420    0.6740   -0.2690 cc        1 0GX      0.144000
      6 SAO        -1.5140    0.3760    0.0750 ss        1 0GX      0.019200
      7 CAM        -3.7650   -0.4340   -0.8360 cd        1 0GX     -0.131900
      8 BR1        -5.5300   -0.5210   -1.3700 br        1 0GX     -0.036100
      9 CAL        -2.8490   -1.5380   -0.9580 cd        1 0GX      0.023700
     10 CAP        -3.2460   -2.8430   -1.5080 c3        1 0GX     -0.057800
     11 CAK        -1.5850   -1.2050   -0.5010 cc        1 0GX     -0.205700
     12 CAI        -0.4350   -2.1240   -0.4410 c         1 0GX      0.695700
     13 OAJ        -0.5600   -3.3030   -0.0590 o         1 0GX     -0.579100
     14 NAE         0.8380   -1.5940   -0.7110 n         1 0GX     -0.426800
     15 CAD         1.0620   -0.6210   -1.7950 c3        1 0GX      0.068200
     16 CAC         2.2170    0.3030   -1.3680 c3        1 0GX     -0.066900
     17 CAG         1.5080   -1.4650   -3.0240 c3        1 0GX     -0.106900
     18 CAH         2.1220   -2.7280   -2.4110 c3        1 0GX     -0.106900
     19 CAA         1.9810   -2.5160   -0.8760 c3        1 0GX      0.068200
     20 CAF         3.2360   -1.8070   -0.3390 c3        1 0GX     -0.066900
     21 CAB         3.4950   -0.4900   -1.0770 c3        1 0GX     -0.017400
     22 CAU         4.4760    0.3520   -0.3230 ca        1 0GX     -0.110300
     23 CAZ         4.1710    0.8320    0.9550 ca        1 0GX     -0.086000
     24 CAV         5.7290    0.6810   -0.8840 ca        1 0GX      0.124900
     25 FBA         6.0720    0.2430   -2.1200 f         1 0GX     -0.142900
     26 CAW         6.6470    1.4720   -0.1660 ca        1 0GX     -0.166000
     27 CAX         6.3180    1.9310    1.1030 ca        1 0GX     -0.105000
     28 CAY         5.0790    1.6150    1.6710 ca        1 0GX     -0.106300
     29 CBB         4.7250    2.1560    3.0260 c3        1 0GX      0.206100
     30 NBC         4.0950    1.1920    3.8990 n3        1 0GX     -0.917800
     31 H1         -2.9530    4.8570    2.5030 hc        1 0GX      0.039367
     32 H2         -2.3330    5.4820    0.9200 hc        1 0GX      0.039367
     33 H3         -3.9280    6.0570    1.5580 hc        1 0GX      0.039367
     34 H4         -4.8900    3.7610    1.3080 hc        1 0GX      0.061700
     35 H5         -4.2720    4.3830   -0.2700 hc        1 0GX      0.061700
     36 H6         -2.1300    3.0810    0.0370 h1        1 0GX      0.047200
     37 H7         -2.7550    2.4510    1.6440 h1        1 0GX      0.047200
     38 H8         -2.3950   -3.5690   -1.4730 hc        1 0GX      0.064700
     39 H9         -4.0930   -3.2680   -0.9130 hc        1 0GX      0.064700
     40 H10        -3.5840   -2.7300   -2.5700 hc        1 0GX      0.064700
     41 H11         0.1400   -0.0200   -2.0090 h1        1 0GX      0.086200
     42 H12         2.4140    1.0320   -2.1960 hc        1 0GX      0.053950
     43 H13         1.9120    0.8870   -0.4620 hc        1 0GX      0.053950
     44 H14         0.6280   -1.7130   -3.6640 hc        1 0GX      0.055450
     45 H15         2.2440   -0.9020   -3.6450 hc        1 0GX      0.055450
     46 H16         1.5640   -3.6410   -2.7270 hc        1 0GX      0.055450
     47 H17         3.1920   -2.8530   -2.6990 hc        1 0GX      0.055450
     48 H18         1.8040   -3.4800   -0.3320 h1        1 0GX      0.086200
     49 H19         3.1150   -1.6170    0.7590 hc        1 0GX      0.053950
     50 H20         4.1150   -2.4870   -0.4760 hc        1 0GX      0.053950
     51 H21         3.9500   -0.7570   -2.0770 hc        1 0GX      0.061700
     52 H22         3.1940    0.5830    1.4030 ha        1 0GX      0.160000
     53 H23         7.6180    1.7170   -0.6200 ha        1 0GX      0.148000
     54 H24         7.0400    2.5470    1.6600 ha        1 0GX      0.137000
     55 H25         5.6580    2.6050    3.4860 h1        1 0GX      0.034200
     56 H26         3.9910    3.0040    2.8840 h1        1 0GX      0.034200
     57 H27         4.5810    0.3180    3.8880 hn        1 0GX      0.354300
     58 H28         4.0620    1.5440    4.8340 hn        1 0GX      0.354300
@<TRIPOS>BOND
     1    1    2 1   
     2    1   31 1   
     3    1   32 1   
     4    1   33 1   
     5    2    3 1   
     6    2   34 1   
     7    2   35 1   
     8    3    4 1   
     9    3   36 1   
    10    3   37 1   
    11    4    5 1   
    12    5    6 1   
    13    5    7 2   
    14    6   11 1   
    15    7    8 1   
    16    7    9 1   
    17    9   10 1   
    18    9   11 2   
    19   10   38 1   
    20   10   39 1   
    21   10   40 1   
    22   11   12 1   
    23   12   13 2   
    24   12   14 1   
    25   14   15 1   
    26   14   19 1   
    27   15   16 1   
    28   15   17 1   
    29   15   41 1   
    30   16   21 1   
    31   16   42 1   
    32   16   43 1   
    33   17   18 1   
    34   17   44 1   
    35   17   45 1   
    36   18   19 1   
    37   18   46 1   
    38   18   47 1   
    39   19   20 1   
    40   19   48 1   
    41   20   21 1   
    42   20   49 1   
    43   20   50 1   
    44   21   22 1   
    45   21   51 1   
    46   22   23 ar  
    47   22   24 ar  
    48   23   28 ar  
    49   23   52 1   
    50   24   25 1   
    51   24   26 ar  
    52   26   27 ar  
    53   26   53 1   
    54   27   28 ar  
    55   27   54 1   
    56   28   29 1   
    57   29   30 1   
    58   29   55 1   
    59   29   56 1   
    60   30   57 1   
    61   30   58 1   
@<TRIPOS>SUBSTRUCTURE
     1 0GX         1 TEMP              0 ****  ****    0 ROOT
