@<TRIPOS>MOLECULE
0GY
   17    16     1     0     0
SMALL
bcc


@<TRIPOS>ATOM
      1 C2         -0.0170   -0.1640   -0.3600 c         1 0GY      0.906800
      2 C3          1.4330   -0.0840    0.0100 ce        1 0GY     -0.214200
      3 C4          2.0700    0.0500    1.1850 cf        1 0GY     -0.106200
      4 C5          1.4150    0.1850    2.4800 cf        1 0GY     -0.096000
      5 C6          1.4560    1.2090    3.3550 ce        1 0GY     -0.042100
      6 O6B         0.9240    2.2970    5.4060 o         1 0GY     -0.882300
      7 C6A         0.7910    1.2290    4.7130 c         1 0GY      0.893800
      8 O6A         0.1430    0.2390    5.1590 o         1 0GY     -0.882300
      9 O6          2.1490    2.3720    3.0440 oh        1 0GY     -0.534100
     10 C4A         3.5900   -0.0720    1.1660 c         1 0GY      0.912800
     11 O4A         4.1660   -0.9110    1.9290 o         1 0GY     -0.889800
     12 O4B         4.2710    0.6100    0.3350 o         1 0GY     -0.889800
     13 O2         -0.5530    0.7940   -1.0080 o         1 0GY     -0.896800
     14 O1         -0.6730   -1.2350   -0.1510 o         1 0GY     -0.896800
     15 H1          2.0670   -0.1670   -0.8950 ha        1 0GY      0.089000
     16 H2          0.8100   -0.6900    2.7820 ha        1 0GY      0.130000
     17 H4          2.0750    2.9470    3.8230 ho        1 0GY      0.398000
@<TRIPOS>BOND
     1    1    2 1   
     2    1   13 1   
     3    1   14 1   
     4    2    3 2   
     5    2   15 1   
     6    3    4 1   
     7    3   10 1   
     8    4    5 2   
     9    4   16 1   
    10    5    7 1   
    11    5    9 1   
    12    6    7 1   
    13    7    8 1   
    14    9   17 1   
    15   10   11 1   
    16   10   12 1   
@<TRIPOS>SUBSTRUCTURE
     1 0GY         1 TEMP              0 ****  ****    0 ROOT
