@<TRIPOS>MOLECULE
0GY
   17    16     1     0     0
SMALL
bcc


@<TRIPOS>ATOM
      1 C2         -2.3230   -1.7300   -0.1520 c         1 0GY      0.906800
      2 C3         -2.0720   -0.2530   -0.1170 ce        1 0GY     -0.214200
      3 C4         -0.9580    0.4880   -0.2390 cf        1 0GY     -0.106200
      4 C5          0.3850   -0.0460   -0.4250 cf        1 0GY     -0.095000
      5 C6          1.4660    0.0630    0.3730 ce        1 0GY     -0.042100
      6 O6B         3.7510   -0.2910    0.9460 o         1 0GY     -0.882300
      7 C6A         2.8450   -0.4740    0.0600 c         1 0GY      0.893800
      8 O6A         3.1040   -1.0670   -1.0260 o         1 0GY     -0.882300
      9 O6          1.3730    0.7110    1.5980 oh        1 0GY     -0.534100
     10 C4A        -1.1370    2.0000   -0.3090 c         1 0GY      0.912800
     11 O4A        -0.6420    2.6510   -1.2840 o         1 0GY     -0.889800
     12 O4B        -1.8440    2.5970    0.5650 o         1 0GY     -0.889800
     13 O2         -2.6820   -2.3310    0.9140 o         1 0GY     -0.896800
     14 O1         -2.3110   -2.3560   -1.2610 o         1 0GY     -0.896800
     15 H1         -3.0230    0.2960    0.0290 ha        1 0GY      0.089000
     16 H2          0.5290   -0.6110   -1.3650 ha        1 0GY      0.130000
     17 H4          2.2660    0.7010    1.9780 ho        1 0GY      0.398000
@<TRIPOS>BOND
     1    1    2 1   
     2    1   13 1   
     3    1   14 1   
     4    2    3 2   
     5    2   15 1   
     6    3    4 1   
     7    3   10 1   
     8    4    5 2   
     9    4   16 1   
    10    5    7 1   
    11    5    9 1   
    12    6    7 1   
    13    7    8 1   
    14    9   17 1   
    15   10   11 1   
    16   10   12 1   
@<TRIPOS>SUBSTRUCTURE
     1 0GY         1 TEMP              0 ****  ****    0 ROOT
