@<TRIPOS>MOLECULE
0GY
   17    12     1     0     0
SMALL
bcc


@<TRIPOS>ATOM
      1 C2         -2.4510    0.6840   -1.3040 c1        1 0GY      0.361500
      2 C3         -0.9390    0.7010   -1.2400 c1        1 0GY     -0.152000
      3 C4         -0.3150    0.6440   -0.0470 c1        1 0GY     -0.123000
      4 C5          1.1960    0.6600    0.0180 c2        1 0GY     -0.093000
      5 C6          1.8760   -0.4910    0.1920 c1        1 0GY     -0.093000
      6 O6B         0.7590   -2.2040    1.4550 o         1 0GY     -0.615750
      7 C6A         1.1270   -1.7990    0.3210 c1        1 0GY      0.361500
      8 O6A         0.8730   -2.4830   -0.7040 o         1 0GY     -0.615750
      9 O6          3.2810   -0.4750    0.2520 oh        1 0GY     -0.360000
     10 C4A        -1.1260    0.5630    1.2280 c1        1 0GY      0.373000
     11 O4A        -1.1330    1.5320    2.0320 os        1 0GY     -0.634000
     12 O4B        -1.7930   -0.4730    1.4850 o         1 0GY     -0.614000
     13 O2         -3.0600   -0.3980   -1.5130 o         1 0GY     -0.615750
     14 O1         -3.0990    1.7520   -1.1500 o         1 0GY     -0.615750
     15 H1         -0.4160    0.7510   -2.0620 ha        1 0GY      0.132000
     16 H2          1.6790    1.5040   -0.0660 ha        1 0GY      0.098000
     17 H4          3.5420   -0.4680    1.1020 ho        1 0GY      0.207000
@<TRIPOS>BOND
     1    1   13 1   
     2    1   14 1   
     3    2    3 1   
     4    2   15 1   
     5    3    4 1   
     6    4    5 1   
     7    4   16 1   
     8    5    9 1   
     9    6    7 1   
    10    7    8 1   
    11    9   17 1   
    12   10   12 1   
@<TRIPOS>SUBSTRUCTURE
     1 0GY         1 TEMP              0 ****  ****    0 ROOT
