@<TRIPOS>MOLECULE
0GY
   17    16     1     0     0
SMALL
bcc


@<TRIPOS>ATOM
      1 C2         -0.0220   -0.1200   -0.3680 c         1 0GY      0.906800
      2 C3          1.4290   -0.0280   -0.0060 ce        1 0GY     -0.214200
      3 C4          2.0730    0.0810    1.1680 cf        1 0GY     -0.106200
      4 C5          1.4260    0.1650    2.4720 cf        1 0GY     -0.095000
      5 C6          1.4540    1.1640    3.3760 ce        1 0GY     -0.042100
      6 O6B         0.9170    2.1820    5.4620 o         1 0GY     -0.882300
      7 C6A         0.8000    1.1320    4.7390 c         1 0GY      0.893800
      8 O6A         0.1750    0.1170    5.1610 o         1 0GY     -0.882300
      9 O6          2.1220    2.3490    3.0940 oh        1 0GY     -0.534100
     10 C4A         3.5940   -0.0160    1.1350 c         1 0GY      0.912800
     11 O4A         4.1900   -0.8680    1.8680 o         1 0GY     -0.889800
     12 O4B         4.2580    0.7020    0.3200 o         1 0GY     -0.889800
     13 O2         -0.5790    0.8490   -0.9830 o         1 0GY     -0.896800
     14 O1         -0.6600   -1.2070   -0.1870 o         1 0GY     -0.896800
     15 H1          2.0570   -0.0720   -0.9170 ha        1 0GY      0.089000
     16 H2          0.8400   -0.7300    2.7530 ha        1 0GY      0.130000
     17 H4          2.0420    2.9010    3.8890 ho        1 0GY      0.398000
@<TRIPOS>BOND
     1    1    2 1   
     2    1   13 1   
     3    1   14 1   
     4    2    3 2   
     5    2   15 1   
     6    3    4 1   
     7    3   10 1   
     8    4    5 2   
     9    4   16 1   
    10    5    7 1   
    11    5    9 1   
    12    6    7 1   
    13    7    8 1   
    14    9   17 1   
    15   10   11 1   
    16   10   12 1   
@<TRIPOS>SUBSTRUCTURE
     1 0GY         1 TEMP              0 ****  ****    0 ROOT
