@<TRIPOS>MOLECULE
0GY
   17    16     1     0     0
SMALL
bcc


@<TRIPOS>ATOM
      1 C2         -0.0180   -0.1890   -0.3510 c         1 0GY      0.906800
      2 C3          1.4320   -0.1010    0.0150 ce        1 0GY     -0.214200
      3 C4          2.0710    0.0450    1.1880 cf        1 0GY     -0.106200
      4 C5          1.4190    0.1880    2.4840 cf        1 0GY     -0.096000
      5 C6          1.4560    1.2200    3.3490 ce        1 0GY     -0.042100
      6 O6B         0.9220    2.3240    5.3920 o         1 0GY     -0.882300
      7 C6A         0.7940    1.2480    4.7090 c         1 0GY      0.893800
      8 O6A         0.1530    0.2590    5.1650 o         1 0GY     -0.882300
      9 O6          2.1400    2.3840    3.0260 oh        1 0GY     -0.534100
     10 C4A         3.5910   -0.0720    1.1670 c         1 0GY      0.912800
     11 O4A         4.1720   -0.9020    1.9350 o         1 0GY     -0.889800
     12 O4B         4.2680    0.6060    0.3290 o         1 0GY     -0.889800
     13 O2         -0.5600    0.7620   -1.0060 o         1 0GY     -0.896800
     14 O1         -0.6700   -1.2610   -0.1320 o         1 0GY     -0.896800
     15 H1          2.0640   -0.1880   -0.8900 ha        1 0GY      0.089000
     16 H2          0.8190   -0.6880    2.7950 ha        1 0GY      0.130000
     17 H4          2.0640    2.9660    3.7990 ho        1 0GY      0.398000
@<TRIPOS>BOND
     1    1    2 1   
     2    1   13 1   
     3    1   14 1   
     4    2    3 2   
     5    2   15 1   
     6    3    4 1   
     7    3   10 1   
     8    4    5 2   
     9    4   16 1   
    10    5    7 1   
    11    5    9 1   
    12    6    7 1   
    13    7    8 1   
    14    9   17 1   
    15   10   11 1   
    16   10   12 1   
@<TRIPOS>SUBSTRUCTURE
     1 0GY         1 TEMP              0 ****  ****    0 ROOT
