@<TRIPOS>MOLECULE
0GZ
   15    15     1     0     0
SMALL
bcc


@<TRIPOS>ATOM
      1 C8          0.3010    0.5350   -0.4460 c2        1 0GZ      0.409000
      2 C6          3.8330   -0.2450    0.1150 c2        1 0GZ      0.003000
      3 C4          1.4290   -0.6320   -0.3470 c3        1 0GZ     -0.240000
      4 C2          3.1500   -0.6500   -2.1210 c2        1 0GZ      0.261000
      5 C5          2.5500   -0.2240    0.5300 c2        1 0GZ     -0.268000
      6 C3          1.8180   -1.0600   -1.6510 c1        1 0GZ     -0.073000
      7 O10         0.5670    1.5520   -1.1160 o         1 0GZ     -0.523000
      8 O9         -0.7550    0.2850    0.1820 o         1 0GZ     -0.523000
      9 O7          3.5610   -0.5450   -3.2850 o         1 0GZ     -0.363000
     10 O1          4.1880   -0.4870   -1.2070 os        1 0GZ     -0.210000
     11 O13         5.3540    1.0770    1.4200 o         1 0GZ     -0.567000
     12 O12         5.6880   -1.1250    1.3370 o         1 0GZ     -0.567000
     13 H1          2.3040    0.0670    1.5580 ha        1 0GZ      0.136000
     14 H2          0.8460   -1.4670    0.1430 hc        1 0GZ      0.142000
     15 C11         5.0580   -0.0790    1.0150 c2        1 0GZ      0.383000
@<TRIPOS>BOND
     1    1    3 1   
     2    1    7 1   
     3    1    8 1   
     4    2    5 1   
     5    2   10 1   
     6    2   15 1   
     7    3    5 1   
     8    3    6 1   
     9    3   14 1   
    10    4    6 1   
    11    4    9 1   
    12    4   10 1   
    13    5   13 1   
    14   11   15 1   
    15   12   15 1   
@<TRIPOS>SUBSTRUCTURE
     1 0GZ         1 TEMP              0 ****  ****    0 ROOT
