@<TRIPOS>MOLECULE
0GZ
   15    15     1     0     0
SMALL
bcc


@<TRIPOS>ATOM
      1 C8          0.2460    0.3520   -0.3720 c2        1 0GZ      0.409000
      2 C6          3.8420   -0.1600    0.0840 c2        1 0GZ      0.003000
      3 C4          1.4650   -0.7250   -0.3240 c3        1 0GZ     -0.240000
      4 C2          3.1330   -0.5790   -2.1410 c2        1 0GZ      0.261000
      5 C5          2.5740   -0.2450    0.5320 c2        1 0GZ     -0.268000
      6 C3          1.8500   -1.0990   -1.6450 c1        1 0GZ     -0.073000
      7 O10         0.4150    1.3970   -1.0300 o         1 0GZ     -0.523000
      8 O9         -0.7690    0.0090    0.2780 o         1 0GZ     -0.523000
      9 O7          3.5030   -0.4230   -3.3130 o         1 0GZ     -0.363000
     10 O1          4.1790   -0.3510   -1.2510 os        1 0GZ     -0.210000
     11 O13         5.2900    1.2560    1.3760 o         1 0GZ     -0.567000
     12 O12         5.7940   -0.9120    1.2400 o         1 0GZ     -0.567000
     13 H1          2.3330    0.0090    1.5710 ha        1 0GZ      0.136000
     14 H2          0.9610   -1.6110    0.1660 hc        1 0GZ      0.142000
     15 C11         5.0750    0.0870    0.9550 c2        1 0GZ      0.383000
@<TRIPOS>BOND
     1    1    3 1   
     2    1    7 1   
     3    1    8 1   
     4    2    5 1   
     5    2   10 1   
     6    2   15 1   
     7    3    5 1   
     8    3    6 1   
     9    3   14 1   
    10    4    6 1   
    11    4    9 1   
    12    4   10 1   
    13    5   13 1   
    14   11   15 1   
    15   12   15 1   
@<TRIPOS>SUBSTRUCTURE
     1 0GZ         1 TEMP              0 ****  ****    0 ROOT
