@<TRIPOS>MOLECULE
0GZ
   15    11     1     0     0
SMALL
bcc


@<TRIPOS>ATOM
      1 C8         -2.5910    0.0400    0.4120 c1        1 0GZ      0.357000
      2 C11         2.5050    0.2930    1.3820 c1        1 0GZ      0.381000
      3 C6          1.3720    0.0400    0.4120 c2        1 0GZ      0.057000
      4 C4         -1.1590   -0.0990   -0.0550 c1        1 0GZ      0.048000
      5 C2          0.5730   -0.2350   -1.9590 c1        1 0GZ      0.325000
      6 C5         -0.0590    0.0400    0.9040 c1        1 0GZ     -0.267000
      7 C3         -0.8640   -0.2370   -1.4840 c2        1 0GZ     -0.327000
      8 O10        -3.2450   -0.9820    0.7500 os        1 0GZ     -0.563500
      9 O9         -3.1300    1.1770    0.4620 o         1 0GZ     -0.574000
     10 O7          0.8200   -0.2940   -3.1470 o         1 0GZ     -0.431000
     11 O1          1.6570   -0.1950   -0.9930 o         1 0GZ     -0.176000
     12 O13         3.0740   -0.6750    1.9510 os        1 0GZ     -0.563500
     13 O12         2.8780    1.4720    1.6200 o         1 0GZ     -0.553000
     14 H1         -0.2460    0.0580    1.8620 ha        1 0GZ      0.150000
     15 H2         -1.5870   -0.4020   -2.1180 ha        1 0GZ      0.138000
@<TRIPOS>BOND
     1    1    4 1   
     2    1    9 1   
     3    2    3 1   
     4    2   13 1   
     5    3    6 1   
     6    3   11 1   
     7    4    7 1   
     8    5    7 1   
     9    5   10 1   
    10    6   14 1   
    11    7   15 1   
@<TRIPOS>SUBSTRUCTURE
     1 0GZ         1 TEMP              0 ****  ****    0 ROOT
