@<TRIPOS>MOLECULE
0GZ
   15    15     1     0     0
SMALL
bcc


@<TRIPOS>ATOM
      1 C8         -2.6670   -0.6330    0.2000 c         1 0GZ      0.899800
      2 C6          1.1230   -0.2450   -0.0490 cc        1 0GZ      0.068900
      3 C4         -1.2890   -0.0030    0.0580 cd        1 0GZ     -0.003200
      4 C2          0.1660    1.9280   -0.2270 c         1 0GZ      0.703800
      5 C5         -0.1110   -0.8150    0.0800 cd        1 0GZ     -0.261000
      6 C3         -1.1430    1.3460   -0.0930 cc        1 0GZ     -0.325200
      7 O10        -2.7550   -1.8870    0.3380 o         1 0GZ     -0.839800
      8 O9         -3.6800    0.1280    0.1750 o         1 0GZ     -0.839800
      9 O7          0.4920    3.1220   -0.3710 o         1 0GZ     -0.705500
     10 O1          1.2900    1.1090   -0.2010 os        1 0GZ     -0.310200
     11 O13         3.0250   -1.1710    1.0710 o         1 0GZ     -0.821300
     12 O12         2.9030   -1.4070   -1.1480 o         1 0GZ     -0.821300
     13 H1         -0.2290   -1.9000    0.2010 ha        1 0GZ      0.167000
     14 H2         -2.0110    2.0180   -0.1170 ha        1 0GZ      0.155000
     15 C11         2.4610   -0.9960   -0.0420 c         1 0GZ      0.932800
@<TRIPOS>BOND
     1    1    3 1   
     2    1    7 1   
     3    1    8 1   
     4    2    5 2   
     5    2   10 1   
     6    2   15 1   
     7    3    5 1   
     8    3    6 2   
     9    4    6 1   
    10    4    9 2   
    11    4   10 1   
    12    5   13 1   
    13    6   14 1   
    14   11   15 1   
    15   12   15 1   
@<TRIPOS>SUBSTRUCTURE
     1 0GZ         1 TEMP              0 ****  ****    0 ROOT
