@<TRIPOS>MOLECULE
0GZ
   15    15     1     0     0
SMALL
bcc


@<TRIPOS>ATOM
      1 C8          0.2830    0.4720   -0.4650 c2        1 0GZ      0.409000
      2 C6          3.8330   -0.2080    0.1170 c2        1 0GZ      0.003000
      3 C4          1.4410   -0.6640   -0.3400 c3        1 0GZ     -0.240000
      4 C2          3.1640   -0.6770   -2.1100 c2        1 0GZ      0.261000
      5 C5          2.5490   -0.2100    0.5310 c2        1 0GZ     -0.268000
      6 C3          1.8420   -1.1100   -1.6340 c1        1 0GZ     -0.073000
      7 O10         0.5250    1.4810   -1.1560 o         1 0GZ     -0.523000
      8 O9         -0.7670    0.2090    0.1680 o         1 0GZ     -0.523000
      9 O7          3.5750   -0.5880   -3.2760 o         1 0GZ     -0.363000
     10 O1          4.1960   -0.4700   -1.1990 os        1 0GZ     -0.210000
     11 O13         5.3240    1.1820    1.3880 o         1 0GZ     -0.567000
     12 O12         5.7020   -1.0150    1.3680 o         1 0GZ     -0.567000
     13 H1          2.2940    0.0970    1.5510 ha        1 0GZ      0.136000
     14 H2          0.8770   -1.5030    0.1680 hc        1 0GZ      0.142000
     15 C11         5.0520    0.0090    1.0150 c2        1 0GZ      0.383000
@<TRIPOS>BOND
     1    1    3 1   
     2    1    7 1   
     3    1    8 1   
     4    2    5 1   
     5    2   10 1   
     6    2   15 1   
     7    3    5 1   
     8    3    6 1   
     9    3   14 1   
    10    4    6 1   
    11    4    9 1   
    12    4   10 1   
    13    5   13 1   
    14   11   15 1   
    15   12   15 1   
@<TRIPOS>SUBSTRUCTURE
     1 0GZ         1 TEMP              0 ****  ****    0 ROOT
