@<TRIPOS>MOLECULE
0H3
   63    65     1     0     0
SMALL
bcc


@<TRIPOS>ATOM
      1 N3          0.2690    1.8070   -1.3970 n         1 0H3     -0.371000
      2 C4          7.7130   -3.5220   -0.0510 c3        1 0H3     -0.109600
      3 N2         -0.6370   -1.8740    0.4810 nb        1 0H3     -0.700000
      4 C7         -1.6380   -1.0570    0.0300 cp        1 0H3      0.529800
      5 C6          0.6190   -1.4690    0.3000 ca        1 0H3      0.475200
      6 C9          0.9960   -0.2580   -0.3220 ca        1 0H3     -0.398200
      7 C13        -0.7610    2.7560   -1.7520 c3        1 0H3      0.081000
      8 C20        -3.9970   -1.2070   -0.7800 ca        1 0H3      0.451200
      9 C21        -4.7670   -2.5900    1.4720 ca        1 0H3     -0.270300
     10 C8         -1.3850    0.1740   -0.5870 ca        1 0H3     -0.315300
     11 N5         -5.2900   -1.5600   -0.6920 nb        1 0H3     -0.733000
     12 C18        -3.0290   -1.4940    0.2060 cp        1 0H3     -0.313800
     13 C16        -0.1580    6.1350    1.4940 c3        1 0H3     -0.085400
     14 C19        -3.4380   -2.2100    1.3440 ca        1 0H3     -0.024000
     15 O1          5.4880   -2.5530    0.0320 os        1 0H3     -0.439600
     16 C1          6.3500   -3.5400    0.6150 c3        1 0H3      0.142100
     17 C2          5.7560   -1.2300    0.4860 c3        1 0H3      0.114400
     18 C3          5.6500   -4.8710    0.4030 c3        1 0H3     -0.109600
     19 C5          4.7940   -0.2930   -0.2560 c3        1 0H3      0.199800
     20 C10        -0.0430    0.6100   -0.7790 ca        1 0H3      0.165600
     21 C11         1.6540    2.1460   -1.6330 c         1 0H3      0.850900
     22 N4          2.6830    1.3100   -1.1720 nc        1 0H3     -0.713100
     23 C12         2.3910    0.1820   -0.5240 cd        1 0H3      0.753800
     24 O2          1.9000    3.1830   -2.2750 o         1 0H3     -0.593500
     25 C14        -1.4870    3.4150   -0.5700 c3        1 0H3      0.107400
     26 O3         -0.6190    4.4180   -0.0590 os        1 0H3     -0.411600
     27 C15        -1.1790    5.0970    1.0650 c3        1 0H3      0.130400
     28 C17        -0.6570    6.9110    2.6840 c3        1 0H3     -0.093100
     29 C22        -5.6630   -2.2400    0.4260 ca        1 0H3      0.637600
     30 O4         -6.9640   -2.6470    0.6250 os        1 0H3     -0.444100
     31 C23        -7.9180   -2.3430   -0.3930 c3        1 0H3      0.124700
     32 H8          8.3200   -4.3850    0.3110 hc        1 0H3      0.045367
     33 H9          7.6020   -3.5960   -1.1590 hc        1 0H3      0.045367
     34 H7          8.2560   -2.5770    0.1880 hc        1 0H3      0.045367
     35 H12         1.3750   -2.1780    0.6900 h4        1 0H3      0.024100
     36 H15        -0.2820    3.5750   -2.3680 h1        1 0H3      0.084200
     37 H16        -1.5330    2.2340   -2.3860 h1        1 0H3      0.084200
     38 H27        -3.7230   -0.6710   -1.7080 h4        1 0H3      0.026100
     39 H28        -5.1370   -3.1470    2.3420 ha        1 0H3      0.163000
     40 H14        -2.2280    0.8000   -0.9110 ha        1 0H3      0.153000
     41 H22         0.8080    5.6210    1.7400 hc        1 0H3      0.058200
     42 H21         0.0460    6.8270    0.6350 hc        1 0H3      0.058200
     43 H26        -2.7120   -2.4690    2.1310 ha        1 0H3      0.160000
     44 H1          6.4580   -3.3340    1.7180 h1        1 0H3      0.036700
     45 H3          5.6140   -1.1740    1.5980 h1        1 0H3      0.041200
     46 H2          6.8080   -0.9380    0.2290 h1        1 0H3      0.041200
     47 H5          6.2630   -5.6870    0.8530 hc        1 0H3      0.045367
     48 H6          4.6440   -4.8580    0.8840 hc        1 0H3      0.045367
     49 H4          5.5190   -5.0700   -0.6870 hc        1 0H3      0.045367
     50 H11         5.0230    0.7630    0.0650 h1        1 0H3      0.071200
     51 H10         4.9920   -0.3760   -1.3640 h1        1 0H3      0.071200
     52 H13         3.2080   -1.5480    0.1720 hn        1 0H3      0.433800
     53 H18        -2.4330    3.8890   -0.9490 h1        1 0H3      0.034700
     54 H17        -1.7420    2.6790    0.2380 h1        1 0H3      0.034700
     55 H19        -1.3780    4.3610    1.8890 h1        1 0H3      0.024700
     56 H20        -2.1480    5.5810    0.7680 h1        1 0H3      0.024700
     57 H25         0.1010    7.6710    2.9910 hc        1 0H3      0.034700
     58 H24        -1.6100    7.4410    2.4410 hc        1 0H3      0.034700
     59 H23        -0.8460    6.2310    3.5500 hc        1 0H3      0.034700
     60 H31        -8.0140   -1.2390   -0.5240 h1        1 0H3      0.052033
     61 H29        -7.6340   -2.8300   -1.3560 h1        1 0H3      0.052033
     62 H30        -8.8650   -2.7810    0.0130 h1        1 0H3      0.052033
     63 N1          3.4080   -0.5790    0.0380 nh        1 0H3     -0.797200
@<TRIPOS>BOND
     1    1    7 1   
     2    1   20 1   
     3    1   21 1   
     4    2   16 1   
     5    2   32 1   
     6    2   33 1   
     7    2   34 1   
     8    3    4 ar  
     9    3    5 ar  
    10    4   10 ar  
    11    4   12 1   
    12    5    6 ar  
    13    5   35 1   
    14    6   20 ar  
    15    6   23 1   
    16    7   25 1   
    17    7   36 1   
    18    7   37 1   
    19    8   11 ar  
    20    8   12 ar  
    21    8   38 1   
    22    9   14 ar  
    23    9   29 ar  
    24    9   39 1   
    25   10   20 ar  
    26   10   40 1   
    27   11   29 ar  
    28   12   14 ar  
    29   13   27 1   
    30   13   28 1   
    31   13   41 1   
    32   13   42 1   
    33   14   43 1   
    34   15   16 1   
    35   15   17 1   
    36   16   18 1   
    37   16   44 1   
    38   17   19 1   
    39   17   45 1   
    40   17   46 1   
    41   18   47 1   
    42   18   48 1   
    43   18   49 1   
    44   19   50 1   
    45   19   51 1   
    46   19   63 1   
    47   21   22 1   
    48   21   24 2   
    49   22   23 2   
    50   23   63 1   
    51   25   26 1   
    52   25   53 1   
    53   25   54 1   
    54   26   27 1   
    55   27   55 1   
    56   27   56 1   
    57   28   57 1   
    58   28   58 1   
    59   28   59 1   
    60   29   30 1   
    61   30   31 1   
    62   31   60 1   
    63   31   61 1   
    64   31   62 1   
    65   52   63 1   
@<TRIPOS>SUBSTRUCTURE
     1 0H3         1 TEMP              0 ****  ****    0 ROOT
