@<TRIPOS>MOLECULE
0H3
   64    64     1     0     0
SMALL
bcc


@<TRIPOS>ATOM
      1 N3          0.5970    0.5770    0.4230 n         1 0H3     -0.220000
      2 C4          0.0450    2.8120    7.7530 c2        1 0H3     -0.222000
      3 N2          4.7070    0.3520   -0.5510 n2        1 0H3     -0.161000
      4 C7          3.7680    0.6060   -1.5150 c2        1 0H3      0.109000
      5 C6          4.2850    0.1450    0.6900 c2        1 0H3      0.024000
      6 C9          2.9200    0.1680    1.0920 c2        1 0H3     -0.278000
      7 C13        -0.4400    0.6210   -0.6030 c3        1 0H3     -0.038000
      8 C20         5.5300    0.2400   -3.2930 c2        1 0H3      0.034000
      9 C21         3.3870   -0.1270   -5.0440 c2        1 0H3     -0.302000
     10 C8          2.3980    0.6740   -1.2360 c2        1 0H3     -0.200000
     11 N5          5.7640   -0.4070   -4.3930 n2        1 0H3     -0.220000
     12 C18         4.2040    0.8560   -2.9340 c3        1 0H3     -0.144000
     13 C16        -2.4350   -5.3520    0.8600 c1        1 0H3     -0.081000
     14 C19         3.0960    0.5300   -3.8660 c1        1 0H3     -0.165000
     15 O1          1.6870    0.8970    5.4360 oh        1 0H3     -0.375000
     16 C1          1.1630    2.4890    8.4000 c2        1 0H3     -0.188000
     17 C2          2.9030    0.2400    5.7400 c3        1 0H3     -0.041000
     18 C3          2.5000    3.0190    8.0610 c3        1 0H3     -0.197000
     19 C5          3.0440   -0.9280    4.7540 c3        1 0H3     -0.059000
     20 C10         1.9410    0.4650    0.0910 c2        1 0H3      0.189000
     21 C11         0.1820    0.4180    1.7620 c2        1 0H3      0.408000
     22 N4          1.1580    0.0730    2.7520 ns        1 0H3     -0.285000
     23 C12         2.4840   -0.1050    2.4610 c2        1 0H3      0.358000
     24 O2         -0.9800    0.5950    2.1550 o         1 0H3     -0.264000
     25 C14        -0.6040   -0.6710   -1.4120 c3        1 0H3     -0.052000
     26 O3         -0.9520   -1.7040   -0.4990 os        1 0H3     -0.291000
     27 C15        -1.3380   -2.9060   -1.1530 c3        1 0H3     -0.100000
     28 C17        -3.6130   -6.0620    0.4400 c3        1 0H3     -0.307000
     29 C22         4.6930   -0.5940   -5.2950 c2        1 0H3      0.240000
     30 O4          4.8970   -1.2650   -6.4490 os        1 0H3     -0.160000
     31 C23         6.1980   -1.7990   -6.7410 c3        1 0H3     -0.075000
     32 H8          1.1410    1.7990    9.2620 ha        1 0H3      0.129000
     33 H9         -0.9360    2.4120    8.0420 ha        1 0H3      0.120000
     34 H7          0.0270    3.5140    6.9080 ha        1 0H3      0.120000
     35 H12         5.1040   -0.0410    1.4120 h4        1 0H3      0.165000
     36 H15        -0.1910    1.4630   -1.3100 h1        1 0H3      0.140500
     37 H16        -1.4210    0.8530   -0.0910 h1        1 0H3      0.140500
     38 H27         6.3900    0.3780   -2.6040 h4        1 0H3      0.187000
     39 H28         2.5980   -0.3200   -5.7850 ha        1 0H3      0.178000
     40 H14         1.7040    0.8760   -2.0780 ha        1 0H3      0.227000
     41 H22        -1.6020   -3.6120   -0.3150 h1        1 0H3      0.095000
     42 H21        -2.0300   -5.5950    1.8540 ha        1 0H3      0.041000
     43 H26         4.3440    1.9860   -3.0450 hc        1 0H3      0.195000
     44 H1          1.4540    1.4600    6.1920 ho        1 0H3      0.252000
     45 H3          3.7570    0.9650    5.6540 h1        1 0H3      0.099500
     46 H2          2.8790   -0.1830    6.7810 h1        1 0H3      0.099500
     47 H5          3.1710    2.1860    7.7260 hc        1 0H3      0.081667
     48 H6          2.9630    3.4970    8.9600 hc        1 0H3      0.081667
     49 H4          2.4520    3.7820    7.2450 hc        1 0H3      0.081667
     50 H11         0.8080    0.0180    3.6990 hn        1 0H3      0.312000
     51 H10         3.8860   -1.5880    5.1180 h1        1 0H3      0.132000
     52 H13         2.0920   -1.5340    4.7690 h1        1 0H3      0.132000
     53 H18         0.3410   -0.9470   -1.9520 h1        1 0H3      0.094500
     54 H17        -1.4260   -0.5110   -2.1600 h1        1 0H3      0.094500
     55 H19        -0.4890   -3.3050   -1.7600 h1        1 0H3      0.095000
     56 H20        -2.2230   -2.7250   -1.8100 h1        1 0H3      0.095000
     57 H25        -4.4090   -5.3000    0.2050 hc        1 0H3      0.119333
     58 H24        -4.0390   -6.8160    1.1490 hc        1 0H3      0.119333
     59 H23        -3.3740   -6.5800   -0.5310 hc        1 0H3      0.119333
     60 H31         6.9480   -0.9770   -6.8070 h1        1 0H3      0.108333
     61 H29         6.4900   -2.5500   -5.9710 h1        1 0H3      0.108333
     62 H30         6.0390   -2.2830   -7.7390 h1        1 0H3      0.108333
     63 N1          3.3640   -0.5620    3.3930 nu        1 0H3     -0.272000
     64 H121        4.3290   -0.6010    3.1370 hn        1 0H3      0.268000
@<TRIPOS>BOND
     1    1    7 1   
     2    1   20 1   
     3    1   21 1   
     4    2   16 1   
     5    2   33 1   
     6    2   34 1   
     7    3    4 1   
     8    3    5 1   
     9    4   10 1   
    10    4   12 1   
    11    5    6 1   
    12    5   35 1   
    13    6   20 1   
    14    6   23 1   
    15    7   25 1   
    16    7   36 1   
    17    7   37 1   
    18    8   11 1   
    19    8   12 1   
    20    8   38 1   
    21    9   14 1   
    22    9   29 1   
    23    9   39 1   
    24   10   20 1   
    25   10   40 1   
    26   11   29 1   
    27   12   14 1   
    28   12   43 1   
    29   13   28 1   
    30   13   42 1   
    31   15   17 1   
    32   15   44 1   
    33   16   18 1   
    34   16   32 1   
    35   17   19 1   
    36   17   45 1   
    37   17   46 1   
    38   18   47 1   
    39   18   48 1   
    40   18   49 1   
    41   19   51 1   
    42   19   52 1   
    43   19   63 1   
    44   21   22 1   
    45   21   24 1   
    46   22   23 1   
    47   22   50 1   
    48   23   63 1   
    49   25   26 1   
    50   25   53 1   
    51   25   54 1   
    52   26   27 1   
    53   27   41 1   
    54   27   55 1   
    55   27   56 1   
    56   28   57 1   
    57   28   58 1   
    58   28   59 1   
    59   29   30 1   
    60   30   31 1   
    61   31   60 1   
    62   31   61 1   
    63   31   62 1   
    64   63   64 1   
@<TRIPOS>SUBSTRUCTURE
     1 0H3         1 TEMP              0 ****  ****    0 ROOT
