@<TRIPOS>MOLECULE
0H3
   64    65     1     0     0
SMALL
bcc


@<TRIPOS>ATOM
      1 N3          0.3440    0.5930   -0.1070 n2        1 0H3     -0.167000
      2 C4          2.6650    3.9050    7.8840 c3        1 0H3     -0.201000
      3 N2          4.5440    0.1820   -0.1910 n2        1 0H3     -0.146000
      4 C7          3.8480    0.6190   -1.2900 c2        1 0H3      0.080000
      5 C6          3.8680   -0.1150    0.9090 c2        1 0H3      0.004000
      6 C9          2.4520   -0.0030    1.0290 c2        1 0H3     -0.260000
      7 C13        -2.4980    0.0600    0.1340 c3        1 0H3     -0.016000
      8 C20         5.9420    0.3190   -2.6770 c2        1 0H3      0.031000
      9 C21         4.2240    0.2690   -4.8750 c2        1 0H3     -0.303000
     10 C8          2.4560    0.7650   -1.2960 c2        1 0H3     -0.128000
     11 N5          6.3830   -0.2340   -3.7660 n2        1 0H3     -0.221000
     12 C18         4.5980    0.9820   -2.5430 c3        1 0H3     -0.144000
     13 C16        -1.9790   -4.3580    0.0420 c3        1 0H3     -0.193000
     14 C19         3.7090    0.8290   -3.7220 c1        1 0H3     -0.149000
     15 O1          0.1260    0.4750    4.9840 oh        1 0H3     -0.370000
     16 C1          3.5230    2.7490    7.5610 c2        1 0H3     -0.133000
     17 C2          1.2870   -0.1220    5.5350 c3        1 0H3     -0.052000
     18 C3          3.7830    2.3290    6.3240 c2        1 0H3     -0.266000
     19 C5          1.7130   -1.2390    4.5710 c3        1 0H3     -0.054000
     20 C10         1.7250    0.4520   -0.1190 c2        1 0H3      0.119000
     21 C11        -0.2810    0.2770    1.0210 c2        1 0H3      0.287000
     22 N4          0.3390   -0.1800    2.2080 na        1 0H3     -0.230000
     23 C12         1.7090   -0.3310    2.2410 c2        1 0H3      0.330000
     24 O2         -1.6310    0.4370    1.2260 os        1 0H3     -0.192000
     25 C14        -2.6420   -1.4550    0.0740 c3        1 0H3     -0.058000
     26 O3         -1.3290   -2.0060    0.0780 os        1 0H3     -0.314000
     27 C15        -1.2150   -3.2360   -0.6350 c3        1 0H3     -0.018000
     28 C17        -1.7300   -5.6720   -0.6520 c3        1 0H3     -0.213000
     29 C22         5.5280   -0.2620   -4.8890 c2        1 0H3      0.235000
     30 O4          5.9490   -0.8340   -6.0390 os        1 0H3     -0.163000
     31 C23         7.2570   -1.4250   -6.1010 c3        1 0H3     -0.075000
     32 H8          1.8390    3.5950    8.5720 hc        1 0H3      0.089333
     33 H9          2.2120    4.3610    6.9690 hc        1 0H3      0.089333
     34 H7          3.2690    4.6920    8.4030 hc        1 0H3      0.089333
     35 H12         4.5020   -0.4650    1.7470 h4        1 0H3      0.163000
     36 H15        -2.1310    0.4860   -0.8330 h1        1 0H3      0.138000
     37 H16        -3.4690    0.5400    0.4370 h1        1 0H3      0.138000
     38 H27         6.6370    0.3330   -1.8110 h4        1 0H3      0.184000
     39 H28         3.6080    0.2040   -5.7840 ha        1 0H3      0.179000
     40 H14         1.9460    1.1060   -2.2210 ha        1 0H3      0.235000
     41 H22        -1.6670   -4.4250    1.1170 hc        1 0H3      0.086500
     42 H21        -3.0760   -4.1220    0.0300 hc        1 0H3      0.086500
     43 H26         4.8060    2.1060   -2.4930 hc        1 0H3      0.193000
     44 H1         -0.2050    1.1170    5.6250 ho        1 0H3      0.241000
     45 H3          2.0940    0.6490    5.6720 h1        1 0H3      0.106000
     46 H2          1.0480   -0.5920    6.5280 h1        1 0H3      0.106000
     47 H5          3.9640    2.2390    8.4350 ha        1 0H3      0.126000
     48 H6          3.3810    2.8270    5.4320 ha        1 0H3      0.104000
     49 H4          4.4500    1.4810    6.1240 ha        1 0H3      0.104000
     50 H11        -0.2360   -0.3120    3.0270 hn        1 0H3      0.309000
     51 H10         2.4620   -1.8900    5.1100 h1        1 0H3      0.131000
     52 H13         0.8110   -1.8720    4.3260 h1        1 0H3      0.131000
     53 H18        -3.2080   -1.7360   -0.8530 h1        1 0H3      0.100500
     54 H17        -3.1840   -1.8420    0.9780 h1        1 0H3      0.100500
     55 H19        -0.1090   -3.4380   -0.6270 h1        1 0H3      0.096000
     56 H20        -1.5620   -3.0970   -1.6940 h1        1 0H3      0.096000
     57 H25        -0.6450   -5.9350   -0.6230 hc        1 0H3      0.082667
     58 H24        -2.0520   -5.6220   -1.7210 hc        1 0H3      0.082667
     59 H23        -2.3040   -6.4870   -0.1490 hc        1 0H3      0.082667
     60 H31         8.0400   -0.6520   -5.9160 h1        1 0H3      0.106667
     61 H29         7.3380   -2.2630   -5.3690 h1        1 0H3      0.106667
     62 H30         7.3010   -1.8020   -7.1550 h1        1 0H3      0.106667
     63 N1          2.3460   -0.8040    3.3490 nh        1 0H3     -0.282000
     64 H121        3.3450   -0.7780    3.3460 hn        1 0H3      0.269000
@<TRIPOS>BOND
     1    1   20 1   
     2    1   21 1   
     3    2   16 1   
     4    2   32 1   
     5    2   33 1   
     6    2   34 1   
     7    3    4 1   
     8    3    5 1   
     9    4   10 1   
    10    4   12 1   
    11    5    6 1   
    12    5   35 1   
    13    6   20 1   
    14    6   23 1   
    15    7   24 1   
    16    7   25 1   
    17    7   36 1   
    18    7   37 1   
    19    8   11 1   
    20    8   12 1   
    21    8   38 1   
    22    9   14 1   
    23    9   29 1   
    24    9   39 1   
    25   10   20 1   
    26   10   40 1   
    27   11   29 1   
    28   12   14 1   
    29   12   43 1   
    30   13   27 1   
    31   13   28 1   
    32   13   41 1   
    33   13   42 1   
    34   15   17 1   
    35   15   44 1   
    36   16   18 1   
    37   16   47 1   
    38   17   19 1   
    39   17   45 1   
    40   17   46 1   
    41   18   48 1   
    42   18   49 1   
    43   19   51 1   
    44   19   52 1   
    45   19   63 1   
    46   21   22 1   
    47   21   24 1   
    48   22   23 1   
    49   22   50 1   
    50   23   63 1   
    51   25   26 1   
    52   25   53 1   
    53   25   54 1   
    54   26   27 1   
    55   27   55 1   
    56   27   56 1   
    57   28   57 1   
    58   28   58 1   
    59   28   59 1   
    60   29   30 1   
    61   30   31 1   
    62   31   60 1   
    63   31   61 1   
    64   31   62 1   
    65   63   64 1   
@<TRIPOS>SUBSTRUCTURE
     1 0H3         1 TEMP              0 ****  ****    0 ROOT
