@<TRIPOS>MOLECULE
0H3
   64    64     1     0     0
SMALL
bcc


@<TRIPOS>ATOM
      1 N3          0.5810    0.5620    0.4300 n         1 0H3     -0.220000
      2 C4          0.0510    2.8010    7.7560 c2        1 0H3     -0.222000
      3 N2          4.6880    0.3910   -0.5700 n2        1 0H3     -0.161000
      4 C7          3.7400    0.6320   -1.5280 c2        1 0H3      0.109000
      5 C6          4.2770    0.1770    0.6730 c2        1 0H3      0.024000
      6 C9          2.9130    0.1820    1.0840 c2        1 0H3     -0.278000
      7 C13        -0.4630    0.5930   -0.5900 c3        1 0H3     -0.038000
      8 C20         5.4950    0.2900   -3.3170 c2        1 0H3      0.034000
      9 C21         3.3460   -0.1040   -5.0550 c2        1 0H3     -0.302000
     10 C8          2.3700    0.6820   -1.2400 c2        1 0H3     -0.200000
     11 N5          5.7300   -0.3540   -4.4190 n2        1 0H3     -0.220000
     12 C18         4.1630    0.8880   -2.9500 c3        1 0H3     -0.144000
     13 C16        -2.3700   -5.4060    0.8860 c1        1 0H3     -0.081000
     14 C19         3.0540    0.5490   -3.8740 c1        1 0H3     -0.165000
     15 O1          1.7000    0.8940    5.4360 oh        1 0H3     -0.375000
     16 C1          1.1690    2.4760    8.4020 c2        1 0H3     -0.188000
     17 C2          2.9250    0.2530    5.7320 c3        1 0H3     -0.041000
     18 C3          2.5040    3.0150    8.0700 c3        1 0H3     -0.197000
     19 C5          3.0750   -0.9130    4.7440 c3        1 0H3     -0.059000
     20 C10         1.9250    0.4670    0.0900 c2        1 0H3      0.189000
     21 C11         0.1770    0.3970    1.7720 c2        1 0H3      0.408000
     22 N4          1.1640    0.0650    2.7550 n         1 0H3     -0.285000
     23 C12         2.4900   -0.0970    2.4550 c2        1 0H3      0.358000
     24 O2         -0.9840    0.5590    2.1720 o         1 0H3     -0.264000
     25 C14        -0.6150   -0.7010   -1.3970 c3        1 0H3     -0.052000
     26 O3         -0.9440   -1.7390   -0.4830 os        1 0H3     -0.291000
     27 C15        -1.3180   -2.9450   -1.1340 c3        1 0H3     -0.100000
     28 C17        -3.5440   -6.1270    0.4770 c3        1 0H3     -0.307000
     29 C22         4.6560   -0.5540   -5.3140 c2        1 0H3      0.240000
     30 O4          4.8610   -1.2220   -6.4700 os        1 0H3     -0.160000
     31 C23         6.1670   -1.7400   -6.7710 c3        1 0H3     -0.075000
     32 H8          1.1480    1.7790    9.2580 ha        1 0H3      0.129000
     33 H9         -0.9300    2.3940    8.0400 ha        1 0H3      0.120000
     34 H7          0.0310    3.5090    6.9170 ha        1 0H3      0.120000
     35 H12         5.1020    0.0020    1.3900 h4        1 0H3      0.165000
     36 H15        -0.2290    1.4380   -1.2980 h1        1 0H3      0.140500
     37 H16        -1.4430    0.8120   -0.0710 h1        1 0H3      0.140500
     38 H27         6.3570    0.4380   -2.6340 h4        1 0H3      0.187000
     39 H28         2.5540   -0.3070   -5.7910 ha        1 0H3      0.178000
     40 H14         1.6690    0.8760   -2.0780 ha        1 0H3      0.227000
     41 H22        -1.5680   -3.6550   -0.2950 h1        1 0H3      0.095000
     42 H21        -1.9500   -5.6470    1.8750 ha        1 0H3      0.041000
     43 H26         4.2880    2.0200   -3.0610 hc        1 0H3      0.195000
     44 H1          1.4650    1.4550    6.1930 ho        1 0H3      0.252000
     45 H3          3.7700    0.9880    5.6420 h1        1 0H3      0.099500
     46 H2          2.9130   -0.1710    6.7730 h1        1 0H3      0.099500
     47 H5          3.1780    2.1880    7.7290 hc        1 0H3      0.081667
     48 H6          2.9640    3.4860    8.9750 hc        1 0H3      0.081667
     49 H4          2.4540    3.7850    7.2620 hc        1 0H3      0.081667
     50 H11         0.8200    0.0040    3.7040 hn        1 0H3      0.312000
     51 H10         3.9270   -1.5620    5.1030 h1        1 0H3      0.132000
     52 H13         2.1310   -1.5320    4.7650 h1        1 0H3      0.132000
     53 H18         0.3300   -0.9650   -1.9440 h1        1 0H3      0.094500
     54 H17        -1.4440   -0.5510   -2.1400 h1        1 0H3      0.094500
     55 H19        -0.4690   -3.3340   -1.7470 h1        1 0H3      0.095000
     56 H20        -2.2110   -2.7750   -1.7850 h1        1 0H3      0.095000
     57 H25        -4.3510   -5.3730    0.2540 hc        1 0H3      0.119333
     58 H24        -3.9550   -6.8870    1.1890 hc        1 0H3      0.119333
     59 H23        -3.3110   -6.6400   -0.4980 hc        1 0H3      0.119333
     60 H31         6.9060   -0.9070   -6.8410 h1        1 0H3      0.108333
     61 H29         6.4730   -2.4870   -6.0020 h1        1 0H3      0.108333
     62 H30         6.0080   -2.2250   -7.7680 h1        1 0H3      0.108333
     63 N1          3.3810   -0.5420    3.3820 nh        1 0H3     -0.272000
     64 H121        4.3450   -0.5690    3.1190 hn        1 0H3      0.268000
@<TRIPOS>BOND
     1    1    7 1   
     2    1   20 1   
     3    1   21 1   
     4    2   16 1   
     5    2   33 1   
     6    2   34 1   
     7    3    4 1   
     8    3    5 1   
     9    4   10 1   
    10    4   12 1   
    11    5    6 1   
    12    5   35 1   
    13    6   20 1   
    14    6   23 1   
    15    7   25 1   
    16    7   36 1   
    17    7   37 1   
    18    8   11 1   
    19    8   12 1   
    20    8   38 1   
    21    9   14 1   
    22    9   29 1   
    23    9   39 1   
    24   10   20 1   
    25   10   40 1   
    26   11   29 1   
    27   12   14 1   
    28   12   43 1   
    29   13   28 1   
    30   13   42 1   
    31   15   17 1   
    32   15   44 1   
    33   16   18 1   
    34   16   32 1   
    35   17   19 1   
    36   17   45 1   
    37   17   46 1   
    38   18   47 1   
    39   18   48 1   
    40   18   49 1   
    41   19   51 1   
    42   19   52 1   
    43   19   63 1   
    44   21   22 1   
    45   21   24 1   
    46   22   23 1   
    47   22   50 1   
    48   23   63 1   
    49   25   26 1   
    50   25   53 1   
    51   25   54 1   
    52   26   27 1   
    53   27   41 1   
    54   27   55 1   
    55   27   56 1   
    56   28   57 1   
    57   28   58 1   
    58   28   59 1   
    59   29   30 1   
    60   30   31 1   
    61   31   60 1   
    62   31   61 1   
    63   31   62 1   
    64   63   64 1   
@<TRIPOS>SUBSTRUCTURE
     1 0H3         1 TEMP              0 ****  ****    0 ROOT
