@<TRIPOS>MOLECULE
0H3
   63    58     1     0     0
SMALL
bcc


@<TRIPOS>ATOM
      1 N3         -1.4050   -0.4910   -0.5770 n         1 0H3     -0.388600
      2 C4         -0.4460   -0.0070    8.9730 c3        1 0H3     -0.110100
      3 N2          2.8160   -0.3840   -0.5110 n1        1 0H3     -0.517300
      4 C7          2.1460   -0.4010   -1.7170 c1        1 0H3     -0.024500
      5 C6          2.1150   -0.3840    0.6640 c1        1 0H3      0.394300
      6 C9          0.7080   -0.4020    0.6430 cg        1 0H3     -0.284200
      7 C13        -2.1180   -0.5180   -1.8740 c3        1 0H3      0.046000
      8 C20         3.3220   -1.7380   -3.4480 c1        1 0H3      0.394300
      9 C21         3.9970    0.5870   -4.7720 c1        1 0H3     -0.145500
     10 C8          0.7600   -0.4190   -1.7390 c1        1 0H3     -0.088000
     11 N5          3.7390   -1.7940   -4.7580 n1        1 0H3     -0.517300
     12 C18         3.2420   -0.5010   -2.7920 c1        1 0H3     -0.024500
     13 C16        -5.3630    1.6550   -4.8150 c3        1 0H3     -0.084400
     14 C19         3.5810    0.6530   -3.4630 c1        1 0H3     -0.088000
     15 O1          0.6000    0.0640    6.7850 os        1 0H3     -0.418600
     16 C1          0.6090   -0.6260    8.0470 c3        1 0H3      0.141100
     17 C2          0.5030   -0.8170    5.6300 c3        1 0H3      0.119400
     18 C3          1.9890   -0.4960    8.6920 c3        1 0H3     -0.110100
     19 C5          0.0770    0.0170    4.3710 c3        1 0H3      0.194800
     20 N1          0.6210   -0.5820    3.1920 nh        1 0H3     -0.809200
     21 C10         0.0460   -0.4190   -0.5510 c1        1 0H3      0.177200
     22 C11        -2.1540   -0.5450    0.6650 c         1 0H3      0.808500
     23 N4         -1.4600   -0.5270    1.9210 nf        1 0H3     -0.708100
     24 C12        -0.0740   -0.4580    1.9480 ce        1 0H3      0.707100
     25 O2         -3.3720   -0.6050    0.6420 o         1 0H3     -0.568100
     26 C14        -3.1630    0.6050   -1.9090 c3        1 0H3      0.109400
     27 O3         -3.7030    0.7280   -3.2660 os        1 0H3     -0.423600
     28 C15        -4.8010    1.6840   -3.3810 c3        1 0H3      0.124400
     29 C17        -5.9380    3.0170   -5.1550 c3        1 0H3     -0.094100
     30 C22         4.0760   -0.6450   -5.4230 c1        1 0H3      0.170600
     31 O4          4.3750   -0.6900   -6.8060 os        1 0H3     -0.302400
     32 C23         5.5700   -1.4020   -7.1130 c3        1 0H3      0.124700
     33 H8         -1.3030   -0.0840    8.5720 hc        1 0H3      0.045700
     34 H9         -0.4440   -0.4800    9.8380 hc        1 0H3      0.045700
     35 H7         -0.2410    0.9260    9.1160 hc        1 0H3      0.045700
     36 H12         2.5980   -0.3710    1.5310 ha        1 0H3      0.110500
     37 H15        -2.5680   -1.3930   -1.9860 h1        1 0H3      0.079700
     38 H16        -1.4510   -0.3820   -2.6280 h1        1 0H3      0.079700
     39 H27         3.0820   -2.5580   -2.9770 ha        1 0H3      0.110500
     40 H28         4.2410    1.4170   -5.2560 ha        1 0H3      0.105500
     41 H14         0.2770   -0.4310   -2.6090 ha        1 0H3      0.097500
     42 H22        -4.6540    1.4390   -5.4370 hc        1 0H3      0.053200
     43 H21        -6.0670    0.9780   -4.8770 hc        1 0H3      0.053200
     44 H26         3.5260    1.5390   -2.9990 ha        1 0H3      0.097500
     45 H1          0.4010   -1.5840    7.9010 h1        1 0H3      0.036700
     46 H3         -0.1870   -1.5330    5.8090 h1        1 0H3      0.031200
     47 H2          1.3920   -1.2450    5.4630 h1        1 0H3      0.031200
     48 H5          2.2510    0.4680    8.7290 hc        1 0H3      0.045700
     49 H6          1.9600   -0.8620    9.6040 hc        1 0H3      0.045700
     50 H4          2.6430   -0.9900    8.1660 hc        1 0H3      0.045700
     51 H11         0.4170    0.9410    4.4580 h1        1 0H3      0.077700
     52 H10        -0.9030    0.0330    4.3060 h1        1 0H3      0.077700
     53 H13         1.3630   -1.1150    3.2500 hn        1 0H3      0.424800
     54 H18        -2.7450    1.4450   -1.6500 h1        1 0H3      0.058200
     55 H17        -3.8820    0.3970   -1.2920 h1        1 0H3      0.058200
     56 H19        -5.5030    1.4480   -2.7540 h1        1 0H3      0.032200
     57 H20        -4.4680    2.5950   -3.1760 h1        1 0H3      0.032200
     58 H25        -5.2270    3.6950   -5.1020 hc        1 0H3      0.036700
     59 H24        -6.3080    3.0010   -6.0640 hc        1 0H3      0.036700
     60 H23        -6.6490    3.2390   -4.5160 hc        1 0H3      0.036700
     61 H31         5.5630   -2.2740   -6.6450 h1        1 0H3      0.052367
     62 H29         6.3670   -0.8670   -6.8130 h1        1 0H3      0.052367
     63 H30         5.6230   -1.5500   -8.0670 h1        1 0H3      0.052367
@<TRIPOS>BOND
     1    1    7 1   
     2    1   21 1   
     3    1   22 1   
     4    2   16 1   
     5    2   33 1   
     6    2   34 1   
     7    2   35 1   
     8    3    5 3   
     9    4   10 3   
    10    5   36 1   
    11    6   21 3   
    12    6   24 1   
    13    7   26 1   
    14    7   37 1   
    15    7   38 1   
    16    8   11 3   
    17    8   39 1   
    18    9   30 3   
    19    9   40 1   
    20   10   41 1   
    21   12   14 3   
    22   13   28 1   
    23   13   29 1   
    24   13   42 1   
    25   13   43 1   
    26   14   44 1   
    27   15   16 1   
    28   15   17 1   
    29   16   18 1   
    30   16   45 1   
    31   17   19 1   
    32   17   46 1   
    33   17   47 1   
    34   18   48 1   
    35   18   49 1   
    36   18   50 1   
    37   19   20 1   
    38   19   51 1   
    39   19   52 1   
    40   20   24 1   
    41   20   53 1   
    42   22   23 1   
    43   22   25 2   
    44   23   24 2   
    45   26   27 1   
    46   26   54 1   
    47   26   55 1   
    48   27   28 1   
    49   28   56 1   
    50   28   57 1   
    51   29   58 1   
    52   29   59 1   
    53   29   60 1   
    54   30   31 1   
    55   31   32 1   
    56   32   61 1   
    57   32   62 1   
    58   32   63 1   
@<TRIPOS>SUBSTRUCTURE
     1 0H3         1 TEMP              0 ****  ****    0 ROOT
