@<TRIPOS>MOLECULE
0H4
   50    52     1     0     0
SMALL
bcc


@<TRIPOS>ATOM
      1 N3          0.1400    0.6140   -0.0210 nb        1 0H4     -0.661000
      2 C4         -4.9950    1.4370   -2.2490 cc        1 0H4      0.021600
      3 N2         -2.0610   -0.0390    0.6970 n         1 0H4     -0.572400
      4 C7         -5.1060   -0.4820   -4.2510 cc        1 0H4     -0.183200
      5 C6         -5.4070    0.8070   -4.5390 cd        1 0H4     -0.070200
      6 C9         -4.7340   -0.8910   -2.8850 c         1 0H4      0.700700
      7 C13        -8.1830   -2.4130    1.3810 c3        1 0H4     -0.078400
      8 C20         3.4980    0.4020    1.6760 c3        1 0H4     -0.045800
      9 C8         -5.8090    1.2430   -5.9460 c3        1 0H4      0.682100
     10 C18         2.0420    0.2790    1.4670 ca        1 0H4     -0.214600
     11 C16        -0.1630   -0.3850    2.1880 ca        1 0H4     -0.281300
     12 C19         1.4470    0.7010    0.2580 ca        1 0H4      0.424200
     13 N1         -4.7120    0.1270   -1.8940 n         1 0H4     -0.330000
     14 C1         -4.2070   -0.1180   -0.5490 c3        1 0H4      0.042700
     15 C2         -2.6550   -0.2710   -0.5420 c         1 0H4      0.650100
     16 O1         -2.0130   -0.5630   -1.5560 o         1 0H4     -0.515100
     17 C3         -0.6720    0.0600    0.9330 ca        1 0H4      0.528200
     18 C5         -5.3600    1.8050   -3.5160 cd        1 0H4     -0.224000
     19 O2         -4.4860   -2.0740   -2.5960 o         1 0H4     -0.608500
     20 C10        -4.8300   -1.3230    0.1740 c3        1 0H4     -0.090400
     21 C11        -6.2970   -1.1190    0.5030 c3        1 0H4     -0.063700
     22 C12        -6.7310   -2.0420    1.6460 c3        1 0H4     -0.079400
     23 C14        -8.4540   -2.1450   -0.0930 c3        1 0H4     -0.078400
     24 C15        -7.2380   -1.4250   -0.6630 c3        1 0H4     -0.079400
     25 C17         1.2000   -0.2670    2.4400 ca        1 0H4     -0.072000
     26 F1         -5.2180    2.4090   -6.3650 f         1 0H4     -0.231967
     27 F2         -5.5170    0.3370   -6.9350 f         1 0H4     -0.231967
     28 F3         -7.1560    1.4770   -6.0890 f         1 0H4     -0.231967
     29 H3         -4.9240    2.1920   -1.4430 h4        1 0H4      0.158000
     30 H2         -2.6310   -0.0450    1.5100 hn        1 0H4      0.320500
     31 H5         -5.1010   -1.2880   -5.0020 ha        1 0H4      0.183000
     32 H12        -8.8640   -1.7960    2.0200 hc        1 0H4      0.042950
     33 H11        -8.3700   -3.4860    1.6350 hc        1 0H4      0.042950
     34 H22         4.0230   -0.4940    1.2550 hc        1 0H4      0.047033
     35 H21         3.7430    0.4710    2.7640 hc        1 0H4      0.047033
     36 H20         3.8990    1.3120    1.1640 hc        1 0H4      0.047033
     37 H17        -0.8290   -0.8210    2.9450 ha        1 0H4      0.140000
     38 H19         2.0640    1.1470   -0.5450 h4        1 0H4      0.028100
     39 H1         -4.4560    0.8040    0.0650 h1        1 0H4      0.068700
     40 H4         -5.5980    2.8490   -3.7580 ha        1 0H4      0.168000
     41 H6         -4.2730   -1.4640    1.1390 hc        1 0H4      0.075700
     42 H7         -4.6910   -2.2590   -0.4290 hc        1 0H4      0.075700
     43 H8         -6.4560   -0.0530    0.8260 hc        1 0H4      0.038700
     44 H9         -6.6160   -1.5320    2.6330 hc        1 0H4      0.046450
     45 H10        -6.0960   -2.9630    1.6620 hc        1 0H4      0.046450
     46 H14        -8.6280   -3.1040   -0.6420 hc        1 0H4      0.042950
     47 H13        -9.3750   -1.5220   -0.2150 hc        1 0H4      0.042950
     48 H16        -6.7230   -2.0690   -1.4220 hc        1 0H4      0.046450
     49 H15        -7.5440   -0.4800   -1.1770 hc        1 0H4      0.046450
     50 H18         1.6120   -0.6070    3.4030 ha        1 0H4      0.140000
@<TRIPOS>BOND
     1    1   12 ar  
     2    1   17 ar  
     3    2   13 1   
     4    2   18 2   
     5    2   29 1   
     6    3   15 1   
     7    3   17 1   
     8    3   30 1   
     9    4    5 2   
    10    4    6 1   
    11    4   31 1   
    12    5    9 1   
    13    5   18 1   
    14    6   13 1   
    15    6   19 2   
    16    7   22 1   
    17    7   23 1   
    18    7   32 1   
    19    7   33 1   
    20    8   10 1   
    21    8   34 1   
    22    8   35 1   
    23    8   36 1   
    24    9   26 1   
    25    9   27 1   
    26    9   28 1   
    27   10   12 ar  
    28   10   25 ar  
    29   11   17 ar  
    30   11   25 ar  
    31   11   37 1   
    32   12   38 1   
    33   13   14 1   
    34   14   15 1   
    35   14   20 1   
    36   14   39 1   
    37   15   16 2   
    38   18   40 1   
    39   20   21 1   
    40   20   41 1   
    41   20   42 1   
    42   21   22 1   
    43   21   24 1   
    44   21   43 1   
    45   22   44 1   
    46   22   45 1   
    47   23   24 1   
    48   23   46 1   
    49   23   47 1   
    50   24   48 1   
    51   24   49 1   
    52   25   50 1   
@<TRIPOS>SUBSTRUCTURE
     1 0H4         1 TEMP              0 ****  ****    0 ROOT
