@<TRIPOS>MOLECULE
0H4
   50    52     1     0     0
SMALL
bcc


@<TRIPOS>ATOM
      1 N3         -4.0330    0.3730    1.3940 nb        1 0H4     -0.700000
      2 C4          1.5030    0.3070   -1.8760 cc        1 0H4      0.024600
      3 N2         -2.1950   -0.1710   -0.0030 n         1 0H4     -0.533400
      4 C7          2.0300    1.4190    0.6100 cc        1 0H4     -0.192200
      5 C6          2.7140    1.8510   -0.4780 cd        1 0H4     -0.065200
      6 C9          1.0040    0.3730    0.4920 c         1 0H4      0.691700
      7 C13         2.1250   -5.2010    0.8790 c3        1 0H4     -0.077900
      8 C20        -7.4670    1.7710    0.7390 c3        1 0H4     -0.044800
      9 C8          3.7910    2.9300   -0.3700 c3        1 0H4      0.682100
     10 C18        -6.1090    1.2550    0.4780 ca        1 0H4     -0.215600
     11 C16        -4.2920    0.6900   -1.0130 ca        1 0H4     -0.251300
     12 C19        -5.2770    0.8400    1.5410 ca        1 0H4      0.421200
     13 N1          0.7890   -0.1820   -0.7930 n         1 0H4     -0.333000
     14 C1         -0.1820   -1.2380   -1.0440 c3        1 0H4      0.032700
     15 C2         -1.6340   -0.6860   -1.1490 c         1 0H4      0.647100
     16 O1         -2.1960   -0.7440   -2.2580 o         1 0H4     -0.593100
     17 C3         -3.5260    0.2950    0.1180 ca        1 0H4      0.513200
     18 C5          2.4480    1.2920   -1.7640 cd        1 0H4     -0.225000
     19 O2          0.3430   -0.0170    1.4760 o         1 0H4     -0.638500
     20 C10        -0.1680   -2.4280   -0.0780 c3        1 0H4     -0.095400
     21 C11         1.0380   -3.3270   -0.2660 c3        1 0H4     -0.064700
     22 C12         0.7870   -4.7080    0.3470 c3        1 0H4     -0.079400
     23 C14         3.0310   -3.9850    1.0190 c3        1 0H4     -0.077900
     24 C15         2.3080   -2.7960    0.4010 c3        1 0H4     -0.079400
     25 C17        -5.5860    1.1670   -0.8140 ca        1 0H4     -0.078000
     26 F1          3.7410    3.8730   -1.3670 f         1 0H4     -0.229633
     27 F2          3.7580    3.6590    0.7920 f         1 0H4     -0.229633
     28 F3          5.0730    2.4410   -0.4300 f         1 0H4     -0.229633
     29 H3          1.2680   -0.1420   -2.8620 h4        1 0H4      0.170000
     30 H2         -1.6710   -0.2560    0.8510 hn        1 0H4      0.362500
     31 H5          2.1840    1.8190    1.6250 ha        1 0H4      0.185000
     32 H12         1.9930   -5.7180    1.8620 hc        1 0H4      0.043200
     33 H11         2.5750   -5.9420    0.1710 hc        1 0H4      0.043200
     34 H22        -7.9280    1.2550    1.6180 hc        1 0H4      0.045700
     35 H21        -7.4260    2.8680    0.9620 hc        1 0H4      0.045700
     36 H20        -8.1300    1.6190   -0.1480 hc        1 0H4      0.045700
     37 H17        -3.8810    0.6160   -2.0310 ha        1 0H4      0.176000
     38 H19        -5.6380    0.8840    2.5860 h4        1 0H4      0.024100
     39 H1          0.0330   -1.6540   -2.0810 h1        1 0H4      0.095700
     40 H4          2.9920    1.6590   -2.6460 ha        1 0H4      0.172000
     41 H6         -0.2320   -2.0900    0.9900 hc        1 0H4      0.079700
     42 H7         -1.0970   -3.0240   -0.2990 hc        1 0H4      0.079700
     43 H8          1.2330   -3.4560   -1.3660 hc        1 0H4      0.044700
     44 H9          0.3690   -5.4100   -0.4150 hc        1 0H4      0.045450
     45 H10         0.0440   -4.6330    1.1810 hc        1 0H4      0.045450
     46 H14         3.2580   -3.7850    2.0960 hc        1 0H4      0.043200
     47 H13         4.0070   -4.1640    0.5020 hc        1 0H4      0.043200
     48 H16         2.9590   -2.2820   -0.3490 hc        1 0H4      0.045450
     49 H15         2.0480   -2.0450    1.1920 hc        1 0H4      0.045450
     50 H18        -6.1920    1.4740   -1.6800 ha        1 0H4      0.141000
@<TRIPOS>BOND
     1    1   12 ar  
     2    1   17 ar  
     3    2   13 1   
     4    2   18 2   
     5    2   29 1   
     6    3   15 1   
     7    3   17 1   
     8    3   30 1   
     9    4    5 2   
    10    4    6 1   
    11    4   31 1   
    12    5    9 1   
    13    5   18 1   
    14    6   13 1   
    15    6   19 2   
    16    7   22 1   
    17    7   23 1   
    18    7   32 1   
    19    7   33 1   
    20    8   10 1   
    21    8   34 1   
    22    8   35 1   
    23    8   36 1   
    24    9   26 1   
    25    9   27 1   
    26    9   28 1   
    27   10   12 ar  
    28   10   25 ar  
    29   11   17 ar  
    30   11   25 ar  
    31   11   37 1   
    32   12   38 1   
    33   13   14 1   
    34   14   15 1   
    35   14   20 1   
    36   14   39 1   
    37   15   16 2   
    38   18   40 1   
    39   20   21 1   
    40   20   41 1   
    41   20   42 1   
    42   21   22 1   
    43   21   24 1   
    44   21   43 1   
    45   22   44 1   
    46   22   45 1   
    47   23   24 1   
    48   23   46 1   
    49   23   47 1   
    50   24   48 1   
    51   24   49 1   
    52   25   50 1   
@<TRIPOS>SUBSTRUCTURE
     1 0H4         1 TEMP              0 ****  ****    0 ROOT
