@<TRIPOS>MOLECULE
0H4
   50    52     1     0     0
SMALL
bcc


@<TRIPOS>ATOM
      1 N3         -0.0310   -1.3640    0.2720 nb        1 0H4     -0.700000
      2 C4         -5.2420    1.7030   -1.9120 cc        1 0H4      0.024600
      3 N2         -2.1070   -0.2440    0.0360 ns        1 0H4     -0.533400
      4 C7         -4.5640   -0.2130   -3.8000 cc        1 0H4     -0.192200
      5 C6         -5.1080    0.9630   -4.2010 cd        1 0H4     -0.065200
      6 C9         -4.3200   -0.4860   -2.3770 c         1 0H4      0.691700
      7 C13        -8.1790   -2.8450    1.0900 c3        1 0H4     -0.077900
      8 C20         3.3950   -0.2750    1.3930 c3        1 0H4     -0.044800
      9 C8         -5.3780    1.2580   -5.6760 c3        1 0H4      0.682100
     10 C18         1.9550   -0.2070    1.0760 ca        1 0H4     -0.215600
     11 C16        -0.1360    0.9930    0.8970 ca        1 0H4     -0.251300
     12 C19         1.2670   -1.3430    0.5930 ca        1 0H4      0.421200
     13 N1         -4.7060    0.5110   -1.4500 n         1 0H4     -0.333000
     14 C1         -4.5390    0.3590   -0.0100 c3        1 0H4      0.032700
     15 C2         -3.0770    0.6440    0.4430 c         1 0H4      0.647100
     16 O1         -2.8740    1.6540    1.1420 o         1 0H4     -0.593100
     17 C3         -0.7450   -0.1980    0.4170 ca        1 0H4      0.513200
     18 C5         -5.4560    1.9600   -3.2400 cd        1 0H4     -0.225000
     19 O2         -3.7930   -1.5500   -1.9900 o         1 0H4     -0.638500
     20 C10        -5.0000   -0.9710    0.5980 c3        1 0H4     -0.095400
     21 C11        -6.5090   -1.1110    0.6370 c3        1 0H4     -0.064700
     22 C12        -6.9290   -2.1810    1.6490 c3        1 0H4     -0.079400
     23 C14        -8.2300   -2.5310   -0.3990 c3        1 0H4     -0.077900
     24 C15        -7.1200   -1.5320   -0.7000 c3        1 0H4     -0.079400
     25 C17         1.2180    0.9700    1.2250 ca        1 0H4     -0.078000
     26 F1         -5.0280    2.5270   -6.0660 f         1 0H4     -0.229633
     27 F2         -4.7200    0.4350   -6.5560 f         1 0H4     -0.229633
     28 F3         -6.7010    1.1470   -6.0290 f         1 0H4     -0.229633
     29 H3         -5.4940    2.4590   -1.1420 h4        1 0H4      0.170000
     30 H2         -2.4070   -1.0670   -0.4570 hn        1 0H4      0.362500
     31 H5         -4.2670   -1.0150   -4.4950 ha        1 0H4      0.185000
     32 H12        -9.0910   -2.4470    1.6020 hc        1 0H4      0.043200
     33 H11        -8.1530   -3.9490    1.2670 hc        1 0H4      0.043200
     34 H22         3.6720    0.4910    2.1580 hc        1 0H4      0.045700
     35 H21         4.0010   -0.0850    0.4710 hc        1 0H4      0.045700
     36 H20         3.6690   -1.2850    1.7880 hc        1 0H4      0.045700
     37 H17        -0.7170    1.9190    1.0180 ha        1 0H4      0.176000
     38 H19         1.7980   -2.3040    0.4590 h4        1 0H4      0.024100
     39 H1         -5.1500    1.1780    0.4890 h1        1 0H4      0.095700
     40 H4         -5.8780    2.9180   -3.5720 ha        1 0H4      0.172000
     41 H6         -4.6110   -0.9860    1.6540 hc        1 0H4      0.079700
     42 H7         -4.5480   -1.8460    0.0610 hc        1 0H4      0.079700
     43 H8         -6.9610   -0.1290    0.9490 hc        1 0H4      0.044700
     44 H9         -7.1240   -1.7240    2.6500 hc        1 0H4      0.045450
     45 H10        -6.1140   -2.9380    1.7740 hc        1 0H4      0.045450
     46 H14        -8.0870   -3.4630   -1.0030 hc        1 0H4      0.043200
     47 H13        -9.2270   -2.1070   -0.6760 hc        1 0H4      0.043200
     48 H16        -7.5240   -0.6430   -1.2440 hc        1 0H4      0.045450
     49 H15        -6.3400   -2.0020   -1.3540 hc        1 0H4      0.045450
     50 H18         1.7030    1.8840    1.6010 ha        1 0H4      0.141000
@<TRIPOS>BOND
     1    1   12 ar  
     2    1   17 ar  
     3    2   13 1   
     4    2   18 2   
     5    2   29 1   
     6    3   15 1   
     7    3   17 1   
     8    3   30 1   
     9    4    5 2   
    10    4    6 1   
    11    4   31 1   
    12    5    9 1   
    13    5   18 1   
    14    6   13 1   
    15    6   19 2   
    16    7   22 1   
    17    7   23 1   
    18    7   32 1   
    19    7   33 1   
    20    8   10 1   
    21    8   34 1   
    22    8   35 1   
    23    8   36 1   
    24    9   26 1   
    25    9   27 1   
    26    9   28 1   
    27   10   12 ar  
    28   10   25 ar  
    29   11   17 ar  
    30   11   25 ar  
    31   11   37 1   
    32   12   38 1   
    33   13   14 1   
    34   14   15 1   
    35   14   20 1   
    36   14   39 1   
    37   15   16 2   
    38   18   40 1   
    39   20   21 1   
    40   20   41 1   
    41   20   42 1   
    42   21   22 1   
    43   21   24 1   
    44   21   43 1   
    45   22   44 1   
    46   22   45 1   
    47   23   24 1   
    48   23   46 1   
    49   23   47 1   
    50   24   48 1   
    51   24   49 1   
    52   25   50 1   
@<TRIPOS>SUBSTRUCTURE
     1 0H4         1 TEMP              0 ****  ****    0 ROOT
