@<TRIPOS>MOLECULE
0H4
   51    53     1     0     0
SMALL
bcc


@<TRIPOS>ATOM
      1 N3          0.3050    0.7190   -0.1980 nb        1 0H4     -0.634000
      2 C4         -5.2320    1.4820   -2.4020 cc        1 0H4     -0.003400
      3 N2         -1.8670   -0.3290   -0.3840 n4        1 0H4     -0.641500
      4 C7         -4.6880   -0.7840   -3.9280 cc        1 0H4     -0.182200
      5 C6         -5.3590    0.2580   -4.4800 cd        1 0H4     -0.054200
      6 C9         -4.2240   -0.7220   -2.5410 c         1 0H4      0.697700
      7 C13        -8.1170   -2.0860    1.4970 c3        1 0H4     -0.079900
      8 C20         3.2600    0.1510    2.0550 c3        1 0H4     -0.076800
      9 C8         -5.8620    0.2110   -5.9280 c3        1 0H4      0.684100
     10 C18         1.9170   -0.0220    1.4680 ca        1 0H4     -0.114600
     11 C16        -0.2400   -1.1120    1.3360 ca        1 0H4     -0.186300
     12 C19         1.4990    0.8080    0.3930 ca        1 0H4      0.423200
     13 N1         -4.5370    0.4360   -1.7890 n         1 0H4     -0.357000
     14 C1         -4.3180    0.5130   -0.3600 c3        1 0H4      0.049700
     15 C2         -2.8350    0.7510    0.0120 c         1 0H4      0.512100
     16 O1         -2.4290    1.7160    0.6340 o         1 0H4     -0.378100
     17 C3         -0.5500   -0.2360    0.2760 ca        1 0H4      0.436200
     18 C5         -5.6280    1.4330   -3.7090 cd        1 0H4     -0.173000
     19 O2         -3.5270   -1.6210   -2.0150 o         1 0H4     -0.695500
     20 C10        -4.8230   -0.6760    0.4780 c3        1 0H4     -0.104400
     21 C11        -6.3230   -0.6210    0.7000 c3        1 0H4     -0.070700
     22 C12        -6.7340   -1.5530    1.8440 c3        1 0H4     -0.077400
     23 C14        -8.3480   -1.8240    0.0150 c3        1 0H4     -0.079900
     24 C15        -7.1390   -1.0640   -0.5150 c3        1 0H4     -0.077400
     25 C17         1.0220   -0.9900    1.9290 ca        1 0H4     -0.087000
     26 F1         -5.6580    1.3800   -6.6150 f         1 0H4     -0.214967
     27 F2         -5.2720   -0.7600   -6.6950 f         1 0H4     -0.214967
     28 F3         -7.2090   -0.0280   -6.0260 f         1 0H4     -0.214967
     29 H3         -5.4440    2.3690   -1.7730 h4        1 0H4      0.180000
     30 H2         -1.7460   -0.2850   -1.4120 hn        1 0H4      0.486800
     31 H5         -4.4580   -1.7180   -4.4700 ha        1 0H4      0.203000
     32 H12        -8.1860   -3.1780    1.7260 hc        1 0H4      0.056450
     33 H11        -8.8970   -1.5680    2.1100 hc        1 0H4      0.056450
     34 H22         4.0450   -0.1490    1.3130 hc        1 0H4      0.074700
     35 H21         3.3880   -0.4730    2.9740 hc        1 0H4      0.074700
     36 H20         3.4330    1.2230    2.3280 hc        1 0H4      0.074700
     37 H17        -0.9460   -1.8750    1.6950 ha        1 0H4      0.163000
     38 H19         2.1720    1.5910   -0.0120 h4        1 0H4      0.061100
     39 H1         -4.8430    1.4480    0.0290 h1        1 0H4      0.129700
     40 H4         -6.1510    2.2830   -4.1740 ha        1 0H4      0.194000
     41 H6         -4.5480   -1.6550    0.0020 hc        1 0H4      0.076200
     42 H7         -4.3160   -0.6200    1.4800 hc        1 0H4      0.076200
     43 H8         -6.6170    0.4300    0.9740 hc        1 0H4      0.055700
     44 H9         -6.0070   -2.4000    1.9390 hc        1 0H4      0.044450
     45 H10        -6.7420   -1.0040    2.8170 hc        1 0H4      0.044450
     46 H14        -8.4790   -2.7850   -0.5430 hc        1 0H4      0.056450
     47 H13        -9.2820   -1.2260   -0.1350 hc        1 0H4      0.056450
     48 H16        -6.5270   -1.7270   -1.1780 hc        1 0H4      0.044450
     49 H15        -7.4570   -0.1800   -1.1210 hc        1 0H4      0.044450
     50 H18         1.3000   -1.6610    2.7590 ha        1 0H4      0.175000
     51 H221       -2.2950   -1.2480   -0.1800 hn        1 0H4      0.486800
@<TRIPOS>BOND
     1    1   12 ar  
     2    1   17 ar  
     3    2   13 1   
     4    2   18 2   
     5    2   29 1   
     6    3   15 1   
     7    3   17 1   
     8    3   30 1   
     9    3   51 1   
    10    4    5 2   
    11    4    6 1   
    12    4   31 1   
    13    5    9 1   
    14    5   18 1   
    15    6   13 1   
    16    6   19 2   
    17    7   22 1   
    18    7   23 1   
    19    7   32 1   
    20    7   33 1   
    21    8   10 1   
    22    8   34 1   
    23    8   35 1   
    24    8   36 1   
    25    9   26 1   
    26    9   27 1   
    27    9   28 1   
    28   10   12 ar  
    29   10   25 ar  
    30   11   17 ar  
    31   11   25 ar  
    32   11   37 1   
    33   12   38 1   
    34   13   14 1   
    35   14   15 1   
    36   14   20 1   
    37   14   39 1   
    38   15   16 2   
    39   18   40 1   
    40   20   21 1   
    41   20   41 1   
    42   20   42 1   
    43   21   22 1   
    44   21   24 1   
    45   21   43 1   
    46   22   44 1   
    47   22   45 1   
    48   23   24 1   
    49   23   46 1   
    50   23   47 1   
    51   24   48 1   
    52   24   49 1   
    53   25   50 1   
@<TRIPOS>SUBSTRUCTURE
     1 0H4         1 TEMP              0 ****  ****    0 ROOT
