@<TRIPOS>MOLECULE
0H4
   50    47     1     0     0
SMALL
bcc


@<TRIPOS>ATOM
      1 N3          3.6220    0.5780   -0.1080 n1        1 0H4     -0.140000
      2 C4         -1.9760    1.9790   -1.6010 c1        1 0H4      0.024000
      3 N2          1.4480    0.4650    1.1000 n         1 0H4     -0.318000
      4 C7         -1.4950    0.2930   -4.0000 c1        1 0H4     -0.178000
      5 C6         -2.2290    1.5750   -4.1410 c1        1 0H4     -0.058000
      6 C9         -0.9590   -0.1270   -2.6530 c1        1 0H4      0.329000
      7 C13        -2.6760   -2.2740    3.4460 c3        1 0H4     -0.156500
      8 C20         7.2620    0.6210    1.0710 c3        1 0H4     -0.170000
      9 C8         -2.6290    2.0690   -5.5170 c2        1 0H4      0.463000
     10 C18         5.6880    0.5440    1.0800 c2        1 0H4     -0.146000
     11 C16         3.6170    0.5420    2.2760 c1        1 0H4     -0.211000
     12 C19         4.9990    0.5680   -0.1070 c1        1 0H4     -0.043000
     13 N1         -1.2360    0.6950   -1.4620 n2        1 0H4     -0.226000
     14 C1         -0.7940    0.2440   -0.1490 c3        1 0H4     -0.007000
     15 C2          0.7220    0.1360   -0.1260 c2        1 0H4      0.301000
     16 O1          1.3170   -0.0510   -1.1340 o         1 0H4     -0.310000
     17 C3          2.9310    0.5650    1.0840 c1        1 0H4      0.116000
     18 C5         -2.5040    2.4020   -2.9490 c2        1 0H4     -0.225000
     19 O2         -0.3910   -1.1840   -2.5370 o         1 0H4     -0.375000
     20 C10        -1.3900   -1.0920    0.1440 c3        1 0H4     -0.164000
     21 C11        -2.2950   -1.0040    1.4700 c3        1 0H4     -0.114000
     22 C12        -1.6780   -1.9920    2.6280 c3        1 0H4     -0.156000
     23 C14        -3.9520   -2.1470    2.5760 c3        1 0H4     -0.156500
     24 C15        -3.4830   -1.4340    1.2270 c3        1 0H4     -0.156000
     25 C17         4.9990    0.5310    2.2780 c2        1 0H4     -0.073000
     26 F1         -3.6710    2.9640   -5.4000 f         1 0H4     -0.158333
     27 F2         -1.5860    2.6740   -6.0900 f         1 0H4     -0.158333
     28 F3         -3.0230    1.0040   -6.2900 f         1 0H4     -0.158333
     29 H3         -2.1570    2.5150   -0.8270 ha        1 0H4      0.173000
     30 H2          0.9770    0.7070    1.8630 hn        1 0H4      0.266000
     31 H5         -1.3050   -0.2700   -4.8170 ha        1 0H4      0.184000
     32 H12        -2.7020   -1.6120    4.2090 hc        1 0H4      0.082250
     33 H11        -2.5920   -3.1570    3.7800 hc        1 0H4      0.082250
     34 H22         7.6220   -0.1120    0.5110 hc        1 0H4      0.085333
     35 H21         7.5530    1.5120    0.6880 hc        1 0H4      0.085333
     36 H20         7.5910    0.5350    1.9540 hc        1 0H4      0.085333
     37 H17         3.1410    0.5330    3.1000 ha        1 0H4      0.148000
     38 H19         5.4750    0.5760   -0.9300 ha        1 0H4      0.163000
     39 H1         -1.0730    0.8630    0.5060 h1        1 0H4      0.137000
     40 H4         -2.9760    3.2260   -3.0390 ha        1 0H4      0.173000
     41 H6         -0.6400   -1.7740    0.2890 hc        1 0H4      0.110000
     42 H7         -1.9530   -1.3780   -0.6220 hc        1 0H4      0.110000
     43 H8         -2.3320   -0.0400    1.8100 hc        1 0H4      0.107000
     44 H9         -1.3450   -2.7960    2.2250 hc        1 0H4      0.083000
     45 H10        -0.9900   -1.5550    3.0950 hc        1 0H4      0.083000
     46 H14        -4.3120   -3.0270    2.3810 hc        1 0H4      0.082250
     47 H13        -4.6110   -1.6060    3.0270 hc        1 0H4      0.082250
     48 H16        -3.4690   -2.0530    0.5160 hc        1 0H4      0.083000
     49 H15        -4.0350   -0.7400    1.0300 hc        1 0H4      0.083000
     50 H18         5.4950    0.5130    3.1360 ha        1 0H4      0.140000
@<TRIPOS>BOND
     1    1   17 1   
     2    2   18 1   
     3    2   29 1   
     4    3   15 1   
     5    3   17 1   
     6    3   30 1   
     7    4    5 1   
     8    4   31 1   
     9    5   18 1   
    10    6   13 1   
    11    6   19 1   
    12    7   22 1   
    13    7   23 1   
    14    7   32 1   
    15    7   33 1   
    16    8   10 1   
    17    8   34 1   
    18    8   35 1   
    19    8   36 1   
    20    9   26 1   
    21    9   27 1   
    22    9   28 1   
    23   10   12 1   
    24   10   25 1   
    25   11   25 1   
    26   11   37 1   
    27   12   38 1   
    28   13   14 1   
    29   14   15 1   
    30   14   20 1   
    31   14   39 1   
    32   15   16 1   
    33   18   40 1   
    34   20   21 1   
    35   20   41 1   
    36   20   42 1   
    37   21   22 1   
    38   21   24 1   
    39   21   43 1   
    40   22   44 1   
    41   22   45 1   
    42   23   24 1   
    43   23   46 1   
    44   23   47 1   
    45   24   48 1   
    46   24   49 1   
    47   25   50 1   
@<TRIPOS>SUBSTRUCTURE
     1 0H4         1 TEMP              0 ****  ****    0 ROOT
