@<TRIPOS>MOLECULE
0H5
   33    35     1     0     0
SMALL
bcc


@<TRIPOS>ATOM
      1 C4         -0.1210   -0.8840    0.2220 ca        1 0H5      0.390600
      2 C6          0.0990    0.4030    2.3180 ca        1 0H5     -0.219000
      3 C13         3.5990    0.6230    3.2910 c3        1 0H5      0.104700
      4 C8         -2.2060   -1.2320   -0.7150 ca        1 0H5      0.634900
      5 C18        -5.1580    1.7460    2.0330 cc        1 0H5     -0.243300
      6 C19        -7.3500   -1.0960    2.7610 c3        1 0H5      0.021600
      7 C1          1.4780    0.2180    2.2680 ca        1 0H5      0.196100
      8 C2          2.0780   -0.5150    1.2050 ca        1 0H5     -0.161000
      9 C3          1.3040   -1.0500    0.2110 ca        1 0H5     -0.104300
     10 C5         -0.7120   -0.1440    1.3060 ca        1 0H5     -0.203600
     11 N7         -0.8880   -1.4240   -0.7850 nb        1 0H5     -0.605000
     12 N9         -2.8960   -0.5480    0.2690 nb        1 0H5     -0.627000
     13 C10        -2.1510   -0.0290    1.2460 ca        1 0H5      0.501200
     14 O11         2.1780    0.7880    3.2970 os        1 0H5     -0.311900
     15 N12        -2.8200    0.7180    2.3460 n4        1 0H5     -0.688400
     16 C14        -4.2660    0.6520    2.3510 cc        1 0H5      0.320200
     17 N15        -4.9810   -0.5000    2.6360 nd        1 0H5     -0.435800
     18 N16        -6.2580   -0.1640    2.5270 na        1 0H5      0.146400
     19 C17        -6.4350    1.1810    2.1630 cd        1 0H5     -0.111300
     20 H1         -0.3120    0.9800    3.1580 ha        1 0H5      0.143000
     21 H2          3.8660   -0.4600    3.3580 h1        1 0H5      0.065367
     22 H3          4.0430    1.0930    2.3820 h1        1 0H5      0.065367
     23 H4          3.9150    1.1690    4.2180 h1        1 0H5      0.065367
     24 H5         -2.8420   -1.6600   -1.5230 h5        1 0H5      0.092100
     25 H6         -4.9010    2.7640    1.7560 ha        1 0H5      0.191000
     26 H7         -7.2700   -1.9620    2.0500 h1        1 0H5      0.086033
     27 H8         -7.3070   -1.4760    3.8170 h1        1 0H5      0.086033
     28 H9         -8.3150   -0.5500    2.5910 h1        1 0H5      0.086033
     29 H10         3.1720   -0.6510    1.1840 ha        1 0H5      0.171000
     30 H11         1.7640   -1.6190   -0.6180 ha        1 0H5      0.184000
     31 H12        -2.4580    0.3370    3.2360 hn        1 0H5      0.474800
     32 H13        -7.4250    1.6230    2.0250 h4        1 0H5      0.211000
     33 H122       -2.5510    1.7090    2.2620 hn        1 0H5      0.474800
@<TRIPOS>BOND
     1    1    9 ar  
     2    1   10 ar  
     3    1   11 ar  
     4    2    7 ar  
     5    2   10 ar  
     6    2   20 1   
     7    3   14 1   
     8    3   21 1   
     9    3   22 1   
    10    3   23 1   
    11    4   11 ar  
    12    4   12 ar  
    13    4   24 1   
    14    5   16 1   
    15    5   19 2   
    16    5   25 1   
    17    6   18 1   
    18    6   26 1   
    19    6   27 1   
    20    6   28 1   
    21    7    8 ar  
    22    7   14 1   
    23    8    9 ar  
    24    8   29 1   
    25    9   30 1   
    26   10   13 ar  
    27   12   13 ar  
    28   13   15 1   
    29   15   16 1   
    30   15   31 1   
    31   15   33 1   
    32   16   17 2   
    33   17   18 1   
    34   18   19 1   
    35   19   32 1   
@<TRIPOS>SUBSTRUCTURE
     1 0H5         1 TEMP              0 ****  ****    0 ROOT
