@<TRIPOS>MOLECULE
0H5
   32    25     1     0     0
SMALL
bcc


@<TRIPOS>ATOM
      1 C4          1.9860    0.5290   -1.7920 c1        1 0H5      0.008000
      2 C6          1.9010    0.5230    0.6150 c1        1 0H5     -0.135000
      3 C13         4.4550   -0.4030    2.5760 c3        1 0H5     -0.076000
      4 C8          0.0000    0.5920   -3.0780 c1        1 0H5     -0.003000
      5 C18        -2.7590   -0.0570    1.4970 c1        1 0H5     -0.263000
      6 C19        -5.4120   -1.4990   -0.3780 c3        1 0H5     -0.056000
      7 C1          3.3130    0.4680    0.6810 c1        1 0H5      0.064000
      8 C2          4.0580    0.4430   -0.4870 c1        1 0H5     -0.164000
      9 C3          3.4120    0.4730   -1.7280 c1        1 0H5     -0.080000
     10 C5          1.2500    0.5530   -0.6460 c1        1 0H5     -0.121000
     11 N7          1.3630    0.5480   -3.0070 n1        1 0H5     -0.184000
     12 N9         -0.7540    0.6180   -1.9210 n1        1 0H5     -0.209000
     13 C10        -0.1420    0.5990   -0.7180 c1        1 0H5      0.170000
     14 O11         4.3140    0.6740    1.6540 o         1 0H5     -0.211000
     15 N12        -1.3060    1.1720   -0.1480 n2        1 0H5     -0.214000
     16 C14        -2.4190    0.3320    0.2150 c2        1 0H5     -0.006000
     17 N15        -3.3500   -0.1450   -0.6220 n2        1 0H5     -0.047000
     18 N16        -4.2810   -0.8350    0.1230 n3        1 0H5     -0.127000
     19 C17        -3.9060   -0.7740    1.4250 c1        1 0H5     -0.106000
     20 H1          1.3710    0.5410    1.4410 ha        1 0H5      0.148000
     21 H2          3.7510   -0.3270    3.2910 h1        1 0H5      0.085000
     22 H3          4.3490   -1.2360    2.1110 h1        1 0H5      0.085000
     23 H4          5.3570   -0.3690    2.9930 h1        1 0H5      0.085000
     24 H5         -0.4600    0.6060   -3.9880 ha        1 0H5      0.190000
     25 H6         -2.2460    0.1560    2.3360 DU        1 0H5      0.169500
     26 H7         -6.2030   -1.0830   -0.0370 h1        1 0H5      0.098000
     27 H8         -5.3910   -2.4050   -0.1070 h1        1 0H5      0.098000
     28 H9         -5.4130   -1.4500   -1.4000 h1        1 0H5      0.098000
     29 H10         5.0060    0.4060   -0.4460 ha        1 0H5      0.142000
     30 H11         3.9300    0.4560   -2.5450 ha        1 0H5      0.156000
     31 H12        -1.3860    2.0750   -0.0960 hn        1 0H5      0.236000
     32 H13        -4.3880   -1.1800    2.1880 DU        1 0H5      0.169500
@<TRIPOS>BOND
     1    1    9 1   
     2    1   11 1   
     3    2   10 1   
     4    2   20 1   
     5    3   14 1   
     6    3   21 1   
     7    3   22 1   
     8    3   23 1   
     9    4   12 1   
    10    4   24 1   
    11    5   16 1   
    12    5   19 1   
    13    6   18 1   
    14    6   26 1   
    15    6   27 1   
    16    6   28 1   
    17    7    8 1   
    18    8   29 1   
    19    9   30 1   
    20   10   13 1   
    21   15   16 1   
    22   15   31 1   
    23   16   17 1   
    24   17   18 1   
    25   18   19 1   
@<TRIPOS>SUBSTRUCTURE
     1 0H5         1 TEMP              0 ****  ****    0 ROOT
