@<TRIPOS>MOLECULE
0H5
   32    34     1     0     0
SMALL
bcc


@<TRIPOS>ATOM
      1 C4         -2.0270    1.5570    0.3490 ca        1 0H5      0.401600
      2 C6         -1.8240   -0.8280   -0.1970 ca        1 0H5     -0.134000
      3 C13        -5.1110   -2.3690   -0.3270 c3        1 0H5      0.113700
      4 C8         -0.1500    2.8830    0.4910 ca        1 0H5      0.658900
      5 C18         3.2870    0.7000   -0.9190 cc        1 0H5     -0.252300
      6 C19         5.6800   -1.5910    0.6030 c3        1 0H5      0.042600
      7 C1         -3.2060   -0.9500   -0.1180 ca        1 0H5      0.111100
      8 C2         -4.0210    0.1640    0.1950 ca        1 0H5     -0.163000
      9 C3         -3.4440    1.3900    0.4210 ca        1 0H5     -0.145300
     10 C5         -1.2160    0.4200    0.0420 ca        1 0H5     -0.250600
     11 N7         -1.4740    2.8080    0.5740 nb        1 0H5     -0.707000
     12 N9          0.7490    1.8760    0.2190 nb        1 0H5     -0.755000
     13 C10         0.2350    0.6500   -0.0090 ca        1 0H5      0.687200
     14 O11        -3.6960   -2.2200   -0.3630 os        1 0H5     -0.326900
     15 N12         1.0630   -0.4240   -0.3750 nh        1 0H5     -0.788600
     16 C14         2.4630   -0.3230   -0.2900 cc        1 0H5      0.504200
     17 N15         3.2690   -1.2480    0.3500 nd        1 0H5     -0.545800
     18 N16         4.5310   -0.8510    0.1410 na        1 0H5      0.093400
     19 C17         4.6000    0.3240   -0.6200 cd        1 0H5     -0.149300
     20 H1         -1.2430   -1.7240   -0.4620 ha        1 0H5      0.151000
     21 H2         -5.5970   -1.7220   -1.0970 h1        1 0H5      0.046033
     22 H3         -5.2620   -3.4510   -0.5700 h1        1 0H5      0.046033
     23 H4         -5.5070   -2.1350    0.6910 h1        1 0H5      0.046033
     24 H5          0.3150    3.8770    0.6670 h5        1 0H5      0.052100
     25 H6          2.9400    1.5640   -1.4730 ha        1 0H5      0.181000
     26 H7          5.7700   -2.5570    0.0370 h1        1 0H5      0.057700
     27 H8          6.5960   -0.9690    0.4310 h1        1 0H5      0.057700
     28 H9          5.5810   -1.8190    1.6980 h1        1 0H5      0.057700
     29 H10        -5.1140    0.0520    0.2560 ha        1 0H5      0.143000
     30 H11        -4.0710    2.2640    0.6610 ha        1 0H5      0.156000
     31 H12         0.6980   -1.3220   -0.1230 hn        1 0H5      0.436800
     32 H13         5.5500    0.7890   -0.8790 h4        1 0H5      0.175000
@<TRIPOS>BOND
     1    1    9 ar  
     2    1   10 ar  
     3    1   11 ar  
     4    2    7 ar  
     5    2   10 ar  
     6    2   20 1   
     7    3   14 1   
     8    3   21 1   
     9    3   22 1   
    10    3   23 1   
    11    4   11 ar  
    12    4   12 ar  
    13    4   24 1   
    14    5   16 1   
    15    5   19 2   
    16    5   25 1   
    17    6   18 1   
    18    6   26 1   
    19    6   27 1   
    20    6   28 1   
    21    7    8 ar  
    22    7   14 1   
    23    8    9 ar  
    24    8   29 1   
    25    9   30 1   
    26   10   13 ar  
    27   12   13 ar  
    28   13   15 1   
    29   15   16 1   
    30   15   31 1   
    31   16   17 2   
    32   17   18 1   
    33   18   19 1   
    34   19   32 1   
@<TRIPOS>SUBSTRUCTURE
     1 0H5         1 TEMP              0 ****  ****    0 ROOT
