@<TRIPOS>MOLECULE
0H5
   32    34     1     0     0
SMALL
bcc


@<TRIPOS>ATOM
      1 C4          0.0330   -0.3010   -0.0700 ca        1 0H5      0.401600
      2 C6          0.0290    0.1600    2.3420 ca        1 0H5     -0.134000
      3 C13         3.4310    0.2280    3.6110 c3        1 0H5      0.113700
      4 C8         -1.9470   -0.3920   -1.2420 ca        1 0H5      0.658900
      5 C18        -5.1860    0.9490    1.2650 cc        1 0H5     -0.252300
      6 C19        -7.3910   -0.6500    3.6870 c3        1 0H5      0.042600
      7 C1          1.4160    0.0730    2.3470 ca        1 0H5      0.111100
      8 C2          2.1350   -0.2010    1.1590 ca        1 0H5     -0.163000
      9 C3          1.4590   -0.3820   -0.0220 ca        1 0H5     -0.145300
     10 C5         -0.6800   -0.0330    1.1400 ca        1 0H5     -0.250600
     11 N7         -0.6210   -0.4810   -1.2780 nb        1 0H5     -0.707000
     12 N9         -2.7590   -0.1540   -0.1550 nb        1 0H5     -0.755000
     13 C10        -2.1450    0.0290    1.0320 ca        1 0H5      0.687200
     14 O11         2.0100    0.2720    3.5810 os        1 0H5     -0.326900
     15 N12        -2.8800    0.3590    2.1820 nh        1 0H5     -0.788600
     16 C14        -4.2850    0.2810    2.1930 cc        1 0H5      0.504200
     17 N15        -5.0160   -0.3900    3.1570 nd        1 0H5     -0.545800
     18 N16        -6.3040   -0.1630    2.8740 na        1 0H5      0.093400
     19 C17        -6.4650    0.6400    1.7360 cd        1 0H5     -0.149300
     20 H1         -0.4760    0.3940    3.2910 ha        1 0H5      0.151000
     21 H2          3.8010   -0.7820    3.3100 h1        1 0H5      0.046033
     22 H3          3.8670    1.0190    2.9550 h1        1 0H5      0.046033
     23 H4          3.6720    0.4300    4.6860 h1        1 0H5      0.046033
     24 H5         -2.4920   -0.5320   -2.1990 h5        1 0H5      0.052100
     25 H6         -4.9070    1.5320    0.3950 ha        1 0H5      0.181000
     26 H7         -7.2880   -1.7560    3.8510 h1        1 0H5      0.057700
     27 H8         -8.3550   -0.4380    3.1560 h1        1 0H5      0.057700
     28 H9         -7.3910   -0.1340    4.6840 h1        1 0H5      0.057700
     29 H10         3.2330   -0.2680    1.1790 ha        1 0H5      0.143000
     30 H11         2.0110   -0.5920   -0.9530 ha        1 0H5      0.156000
     31 H12        -2.4450    0.0730    3.0380 hn        1 0H5      0.436800
     32 H13        -7.4480    0.9180    1.3590 h4        1 0H5      0.175000
@<TRIPOS>BOND
     1    1    9 ar  
     2    1   10 ar  
     3    1   11 ar  
     4    2    7 ar  
     5    2   10 ar  
     6    2   20 1   
     7    3   14 1   
     8    3   21 1   
     9    3   22 1   
    10    3   23 1   
    11    4   11 ar  
    12    4   12 ar  
    13    4   24 1   
    14    5   16 1   
    15    5   19 2   
    16    5   25 1   
    17    6   18 1   
    18    6   26 1   
    19    6   27 1   
    20    6   28 1   
    21    7    8 ar  
    22    7   14 1   
    23    8    9 ar  
    24    8   29 1   
    25    9   30 1   
    26   10   13 ar  
    27   12   13 ar  
    28   13   15 1   
    29   15   16 1   
    30   15   31 1   
    31   16   17 2   
    32   17   18 1   
    33   18   19 1   
    34   19   32 1   
@<TRIPOS>SUBSTRUCTURE
     1 0H5         1 TEMP              0 ****  ****    0 ROOT
