@<TRIPOS>MOLECULE
0H5
   32    34     1     0     0
SMALL
bcc


@<TRIPOS>ATOM
      1 C4          0.0350   -0.3050   -0.0680 ca        1 0H5      0.401600
      2 C6          0.0290    0.1540    2.3440 ca        1 0H5     -0.134000
      3 C13         3.4300    0.2100    3.6170 c3        1 0H5      0.113700
      4 C8         -1.9450   -0.3890   -1.2420 ca        1 0H5      0.658900
      5 C18        -5.1820    0.9590    1.2620 cc        1 0H5     -0.252300
      6 C19        -7.3950   -0.6350    3.6810 c3        1 0H5      0.042600
      7 C1          1.4160    0.0620    2.3510 ca        1 0H5      0.111100
      8 C2          2.1350   -0.2140    1.1640 ca        1 0H5     -0.163000
      9 C3          1.4600   -0.3910   -0.0180 ca        1 0H5     -0.145300
     10 C5         -0.6790   -0.0360    1.1410 ca        1 0H5     -0.250600
     11 N7         -0.6190   -0.4820   -1.2770 nb        1 0H5     -0.707000
     12 N9         -2.7570   -0.1490   -0.1560 nb        1 0H5     -0.755000
     13 C10        -2.1440    0.0310    1.0320 ca        1 0H5      0.687200
     14 O11         2.0090    0.2580    3.5850 os        1 0H5     -0.326900
     15 N12        -2.8790    0.3620    2.1810 nu        1 0H5     -0.788600
     16 C14        -4.2840    0.2880    2.1910 cc        1 0H5      0.504200
     17 N15        -5.0180   -0.3810    3.1540 nd        1 0H5     -0.545800
     18 N16        -6.3060   -0.1500    2.8690 na        1 0H5      0.093400
     19 C17        -6.4630    0.6540    1.7320 cd        1 0H5     -0.149300
     20 H1         -0.4760    0.3880    3.2920 ha        1 0H5      0.151000
     21 H2          3.7980   -0.8010    3.3160 h1        1 0H5      0.046033
     22 H3          3.8690    1.0000    2.9610 h1        1 0H5      0.046033
     23 H4          3.6710    0.4110    4.6920 h1        1 0H5      0.046033
     24 H5         -2.4900   -0.5260   -2.2000 h5        1 0H5      0.052100
     25 H6         -4.9020    1.5420    0.3930 ha        1 0H5      0.181000
     26 H7         -8.3580   -0.4220    3.1470 h1        1 0H5      0.057700
     27 H8         -7.3960   -0.1160    4.6770 h1        1 0H5      0.057700
     28 H9         -7.2940   -1.7400    3.8470 h1        1 0H5      0.057700
     29 H10         3.2330   -0.2840    1.1840 ha        1 0H5      0.143000
     30 H11         2.0120   -0.6020   -0.9490 ha        1 0H5      0.156000
     31 H12        -2.4460    0.0750    3.0370 hn        1 0H5      0.436800
     32 H13        -7.4450    0.9350    1.3540 h4        1 0H5      0.175000
@<TRIPOS>BOND
     1    1    9 ar  
     2    1   10 ar  
     3    1   11 ar  
     4    2    7 ar  
     5    2   10 ar  
     6    2   20 1   
     7    3   14 1   
     8    3   21 1   
     9    3   22 1   
    10    3   23 1   
    11    4   11 ar  
    12    4   12 ar  
    13    4   24 1   
    14    5   16 1   
    15    5   19 2   
    16    5   25 1   
    17    6   18 1   
    18    6   26 1   
    19    6   27 1   
    20    6   28 1   
    21    7    8 ar  
    22    7   14 1   
    23    8    9 ar  
    24    8   29 1   
    25    9   30 1   
    26   10   13 ar  
    27   12   13 ar  
    28   13   15 1   
    29   15   16 1   
    30   15   31 1   
    31   16   17 2   
    32   17   18 1   
    33   18   19 1   
    34   19   32 1   
@<TRIPOS>SUBSTRUCTURE
     1 0H5         1 TEMP              0 ****  ****    0 ROOT
