@<TRIPOS>MOLECULE
0H6
   46    48     1     0     0
SMALL
bcc


@<TRIPOS>ATOM
      1 C4          1.1000    1.7200   -0.8460 c3        1 0H6     -0.089400
      2 C7          3.2130    4.7780   -0.6680 c3        1 0H6     -0.077900
      3 C6          2.6380    3.6100   -1.4570 c3        1 0H6     -0.078400
      4 C9          2.2060    3.1850    0.9100 c3        1 0H6     -0.078400
      5 C13        -3.5080   -0.8050   -0.3410 ca        1 0H6     -0.248300
      6 C21         2.9470   -0.7410    0.7000 cc        1 0H6     -0.186600
      7 C8          2.9330    4.5190    0.8070 c3        1 0H6     -0.077900
      8 C16        -5.0230    0.9400    1.1430 ca        1 0H6      0.426200
      9 N1          1.8210   -0.5610   -0.1010 na        1 0H6     -0.191900
     10 C2          0.8560    0.4980    0.0570 c3        1 0H6     -0.027000
     11 C3         -0.5920    0.0120   -0.2650 c         1 0H6      0.651100
     12 C5          2.3370    2.4980   -0.4500 c3        1 0H6     -0.072700
     13 N10        -1.5220    0.2330    0.7200 n         1 0H6     -0.514400
     14 O11        -0.8170   -0.5460   -1.3550 o         1 0H6     -0.597100
     15 C12        -2.9360    0.1510    0.5310 ca        1 0H6      0.446200
     16 C14        -4.9020   -0.8560   -0.4450 ca        1 0H6     -0.073000
     17 C15        -5.6870    0.0200    0.3010 ca        1 0H6     -0.232900
     18 N17        -3.6930    1.0270    1.2710 nb        1 0H6     -0.738000
     19 O19        -7.7450   -0.8390   -0.5400 o         1 0H6     -0.821300
     20 O20        -7.8300    0.8410    0.9370 o         1 0H6     -0.821300
     21 C22         3.6590   -1.8110    0.1250 cd        1 0H6      0.191600
     22 N23         2.9980   -2.2840   -1.0160 nd        1 0H6     -0.634000
     23 C24         1.9000   -1.5130   -1.1380 cc        1 0H6      0.427400
     24 F26         4.8840   -3.7370    0.9470 f         1 0H6     -0.239633
     25 F27         5.9940   -2.3280   -0.2690 f         1 0H6     -0.239633
     26 F28         5.4380   -1.8060    1.7580 f         1 0H6     -0.239633
     27 H1          1.1850    1.3870   -1.9140 hc        1 0H6      0.072700
     28 H2          0.1950    2.3810   -0.7710 hc        1 0H6      0.072700
     29 H3          4.3140    4.8630   -0.8450 hc        1 0H6      0.040700
     30 H4          2.7480    5.7410   -0.9970 hc        1 0H6      0.040700
     31 H5          1.7000    3.9220   -1.9830 hc        1 0H6      0.043450
     32 H6          3.3560    3.2530   -2.2350 hc        1 0H6      0.043450
     33 H7          2.6460    2.5490    1.7180 hc        1 0H6      0.043450
     34 H8          1.1280    3.3520    1.1620 hc        1 0H6      0.043450
     35 H9         -2.8760   -1.4820   -0.9310 ha        1 0H6      0.151000
     36 H10         3.1600   -0.1380    1.5820 h4        1 0H6      0.189000
     37 H11         3.8910    4.4870    1.3840 hc        1 0H6      0.040700
     38 H12         2.3100    5.3390    1.2430 hc        1 0H6      0.040700
     39 H13        -5.6280    1.6470    1.7450 h4        1 0H6      0.047100
     40 H14         0.9350    0.8420    1.1340 h1        1 0H6      0.075700
     41 H15         3.2170    1.7970   -0.4160 hc        1 0H6      0.056700
     42 H16        -1.2310    0.7650    1.5130 hn        1 0H6      0.317500
     43 H17        -5.3960   -1.5810   -1.1110 ha        1 0H6      0.163000
     44 H19         1.1170   -1.5980   -1.9080 h5        1 0H6      0.103100
     45 C18        -7.2060    0.0050    0.2260 c         1 0H6      0.914200
     46 C25         4.9490   -2.4060    0.6190 c3        1 0H6      0.637600
@<TRIPOS>BOND
     1    1   10 1   
     2    1   12 1   
     3    1   27 1   
     4    1   28 1   
     5    2    3 1   
     6    2    7 1   
     7    2   29 1   
     8    2   30 1   
     9    3   12 1   
    10    3   31 1   
    11    3   32 1   
    12    4    7 1   
    13    4   12 1   
    14    4   33 1   
    15    4   34 1   
    16    5   15 ar  
    17    5   16 ar  
    18    5   35 1   
    19    6    9 1   
    20    6   21 2   
    21    6   36 1   
    22    7   37 1   
    23    7   38 1   
    24    8   17 ar  
    25    8   18 ar  
    26    8   39 1   
    27    9   10 1   
    28    9   23 1   
    29   10   11 1   
    30   10   40 1   
    31   11   13 1   
    32   11   14 2   
    33   12   41 1   
    34   13   15 1   
    35   13   42 1   
    36   15   18 ar  
    37   16   17 ar  
    38   16   43 1   
    39   17   45 1   
    40   19   45 1   
    41   20   45 1   
    42   21   22 1   
    43   21   46 1   
    44   22   23 2   
    45   23   44 1   
    46   24   46 1   
    47   25   46 1   
    48   26   46 1   
@<TRIPOS>SUBSTRUCTURE
     1 0H6         1 TEMP              0 ****  ****    0 ROOT
