@<TRIPOS>MOLECULE
0H6
   46    45     1     0     0
SMALL
bcc


@<TRIPOS>ATOM
      1 C4         -0.3450    0.7220    1.4330 c3        1 0H6     -0.157000
      2 C7         -1.1050   -2.1460   -1.2310 c2        1 0H6     -0.190000
      3 C6         -2.3780    0.0190    2.6310 c1        1 0H6     -0.051000
      4 C9          0.9220   -1.8760   -2.8320 c2        1 0H6     -0.190000
      5 C13         2.5360    3.3220   -2.0720 c3        1 0H6     -0.201000
      6 C21         2.4000   -1.2050    2.4740 c2        1 0H6     -0.100000
      7 C8         -0.0830   -2.0100   -2.0210 c1        1 0H6     -0.171000
      8 C16         2.0550    2.3950   -4.6670 c2        1 0H6     -0.023000
      9 N1          1.9950    0.0490    2.0180 na        1 0H6     -0.155000
     10 C2          1.0510    0.2860    0.9570 c3        1 0H6      0.000000
     11 C3          1.5500    1.4130    0.0000 c2        1 0H6      0.300000
     12 C5         -0.9940   -0.3120    2.3300 c3        1 0H6     -0.249000
     13 N10         1.5890    1.0850   -1.3340 n         1 0H6     -0.307000
     14 O11         1.8660    2.5200    0.4710 o         1 0H6     -0.347000
     15 C12         1.8810    1.9910   -2.3850 c2        1 0H6      0.065000
     16 C14         2.9460    4.1030   -3.2370 c1        1 0H6     -0.056000
     17 C15         2.8260    3.5290   -4.5220 c2        1 0H6     -0.198000
     18 N17         1.6140    1.5980   -3.6220 n2        1 0H6     -0.244000
     19 O19         2.6300    4.5960   -6.6400 o         1 0H6     -0.553000
     20 O20         4.6900    4.1810   -5.8640 o         1 0H6     -0.553000
     21 C22         3.2400   -0.9580    3.5750 c2        1 0H6     -0.227000
     22 N23         3.3590    0.4190    3.8050 n2        1 0H6     -0.102000
     23 C24         2.5990    1.0060    2.8610 c2        1 0H6     -0.060000
     24 F26         5.3080   -1.8810    4.4490 f         1 0H6     -0.166333
     25 F27         3.5750   -1.9730    5.7490 f         1 0H6     -0.166333
     26 F28         3.7080   -3.2830    4.0290 f         1 0H6     -0.166333
     27 H1         -0.2790    1.7080    1.9650 hc        1 0H6      0.121500
     28 H2         -0.4770   -0.3190    3.3390 hc        1 0H6      0.113000
     29 H3         -2.9880   -0.8280    2.9870 ha        1 0H6      0.032000
     30 H4         -3.1120   -0.4550    0.5540 ha        1 0H6      0.013500
     31 H5         -1.2320   -1.5410   -0.3200 ha        1 0H6      0.139250
     32 H6         -1.9140   -2.8620   -1.4350 ha        1 0H6      0.139250
     33 H7         -3.3160    0.1910    0.6380 ha        1 0H6      0.013500
     34 H8         -0.8520   -1.3390    1.8900 hc        1 0H6      0.113000
     35 H9          3.4310    3.1680   -1.4030 hc        1 0H6      0.163000
     36 H10         2.0980   -2.1420    2.0090 h4        1 0H6      0.190000
     37 H11         0.9120   -1.1570   -3.6690 ha        1 0H6      0.139250
     38 H12         1.8460   -2.4650   -2.7280 ha        1 0H6      0.139250
     39 H13         1.7390    2.0320   -5.6630 h4        1 0H6      0.167000
     40 H14         0.9390   -0.6950    0.3980 h1        1 0H6      0.119000
     41 H15        -0.9790    0.8750    0.5180 hc        1 0H6      0.121500
     42 H16         1.2770    0.1700   -1.6000 hn        1 0H6      0.240000
     43 H17         1.8110    3.9550   -1.4810 hc        1 0H6      0.163000
     44 H19         2.4670    2.0870    2.6960 h5        1 0H6      0.239000
     45 C18         3.4360    4.1700   -5.7670 c2        1 0H6      0.386000
     46 C25         3.9400   -1.9850    4.4250 c3        1 0H6      0.518000
@<TRIPOS>BOND
     1    1   10 1   
     2    1   12 1   
     3    1   27 1   
     4    1   41 1   
     5    2    7 1   
     6    2   31 1   
     7    2   32 1   
     8    3   12 1   
     9    3   29 1   
    10    4    7 1   
    11    4   37 1   
    12    4   38 1   
    13    5   15 1   
    14    5   16 1   
    15    5   35 1   
    16    5   43 1   
    17    6    9 1   
    18    6   21 1   
    19    6   36 1   
    20    8   17 1   
    21    8   18 1   
    22    8   39 1   
    23    9   10 1   
    24    9   23 1   
    25   10   11 1   
    26   10   40 1   
    27   11   13 1   
    28   11   14 1   
    29   12   28 1   
    30   12   34 1   
    31   13   15 1   
    32   13   42 1   
    33   15   18 1   
    34   16   17 1   
    35   17   45 1   
    36   19   45 1   
    37   20   45 1   
    38   21   22 1   
    39   21   46 1   
    40   22   23 1   
    41   23   44 1   
    42   24   46 1   
    43   25   46 1   
    44   26   46 1   
    45   30   33 1   
@<TRIPOS>SUBSTRUCTURE
     1 0H6         1 TEMP              0 ****  ****    0 ROOT
