@<TRIPOS>MOLECULE
0H6
   47    46     1     0     0
SMALL
bcc


@<TRIPOS>ATOM
      1 C4         -0.3600    1.2390    0.8610 c3        1 0H6     -0.194000
      2 C7         -0.7310   -2.3090   -2.5040 c2        1 0H6     -0.166000
      3 C6         -2.3720    0.0450    0.0850 c3        1 0H6     -0.208000
      4 C9         -0.1250   -0.7330   -0.7020 c3        1 0H6     -0.129000
      5 C13         3.5320    3.4610   -1.6070 c2        1 0H6     -0.485000
      6 C21         2.9910    0.1890    2.2760 c2        1 0H6     -0.188000
      7 C8         -0.7270   -1.9900   -1.2100 c2        1 0H6     -0.231000
      8 C16         1.0890    2.0500   -2.7680 c2        1 0H6     -0.183000
      9 N1          1.5600    0.3950    2.2250 n4        1 0H6      0.004000
     10 C2          1.1550    1.2830    1.0570 c3        1 0H6     -0.071000
     11 C3          1.5850    2.7360    1.3750 c2        1 0H6      0.291000
     12 C5         -0.9090   -0.1230    0.4540 c3        1 0H6     -0.106000
     13 N10         2.1820    3.5090    0.4180 n         1 0H6     -0.292000
     14 O11         1.4550    3.1360    2.5550 o         1 0H6     -0.386000
     15 C12         2.2370    3.1610   -0.9770 c2        1 0H6      0.094000
     16 C14         4.7110    3.6030   -1.0440 c1        1 0H6      0.230000
     17 C15         2.0510    1.4240   -3.4790 c2        1 0H6     -0.135000
     18 N17         1.1730    2.6610   -1.5310 n2        1 0H6     -0.168000
     19 C22         3.6190   -1.0100    2.1710 c2        1 0H6      0.090000
     20 N23         3.0200   -2.2200    1.9980 n2        1 0H6     -0.380000
     21 C24         2.5680   -3.3140    1.8290 c1        1 0H6      0.325000
     22 F26         5.6300   -1.7610    3.3360 f         1 0H6     -0.130000
     23 F27         5.7850   -1.5490    1.1660 f         1 0H6     -0.130000
     24 F28         5.7260    0.2220    2.4390 f         1 0H6     -0.130000
     25 H1         -0.6090    1.9810    0.0500 hc        1 0H6      0.140500
     26 H2         -0.8750    1.5920    1.7950 hc        1 0H6      0.140500
     27 H3         -2.8250   -0.9510   -0.1370 hc        1 0H6      0.090667
     28 H4         -1.1590   -3.2560   -2.8620 ha        1 0H6      0.151500
     29 H5         -2.4740    0.6860   -0.8250 hc        1 0H6      0.090667
     30 H6         -2.9360    0.5180    0.9250 hc        1 0H6      0.090667
     31 H7         -0.3090   -1.6540   -3.2910 ha        1 0H6      0.151500
     32 H8         -1.1550   -2.6560   -0.4440 ha        1 0H6      0.100000
     33 H9          3.4780    3.5630   -2.7220 ha        1 0H6      0.238000
     34 H10         1.0400   -0.4880    2.1380 hn        1 0H6      0.266000
     35 H11         0.9170   -0.9700   -0.3490 hc        1 0H6      0.088000
     36 H12        -0.0350    0.0170   -1.5390 hc        1 0H6      0.088000
     37 H13         0.0340    1.9970   -3.1140 h4        1 0H6      0.181000
     38 H14         1.6890    0.8710    0.1490 hx        1 0H6      0.189000
     39 H15        -0.8580   -0.8250    1.3350 hc        1 0H6      0.050000
     40 H16         2.3500    4.4700    0.6420 hn        1 0H6      0.264000
     41 H17         3.1150    1.4230   -3.2030 ha        1 0H6      0.110000
     42 H19         1.2720    0.8760    3.0970 hn        1 0H6      0.266000
     43 C18         1.6900    0.5750   -4.6940 c2        1 0H6      0.355000
     44 H102        3.5620    1.1350    2.4090 hx        1 0H6      0.231000
     45 C25         5.1840   -1.0230    2.2740 c3        1 0H6      0.467000
     46 O19         0.6850   -0.1790   -4.5720 o         1 0H6     -0.536500
     47 O20         2.4370    0.6750   -5.6970 o         1 0H6     -0.536500
@<TRIPOS>BOND
     1    1   10 1   
     2    1   12 1   
     3    1   25 1   
     4    1   26 1   
     5    2    7 1   
     6    2   28 1   
     7    2   31 1   
     8    3   12 1   
     9    3   27 1   
    10    3   29 1   
    11    3   30 1   
    12    4    7 1   
    13    4   12 1   
    14    4   35 1   
    15    4   36 1   
    16    5   15 1   
    17    5   16 1   
    18    5   33 1   
    19    6    9 1   
    20    6   19 1   
    21    6   44 1   
    22    7   32 1   
    23    8   17 1   
    24    8   18 1   
    25    8   37 1   
    26    9   10 1   
    27    9   34 1   
    28    9   42 1   
    29   10   11 1   
    30   10   38 1   
    31   11   13 1   
    32   11   14 1   
    33   12   39 1   
    34   13   15 1   
    35   13   40 1   
    36   15   18 1   
    37   17   41 1   
    38   17   43 1   
    39   19   20 1   
    40   19   45 1   
    41   20   21 1   
    42   22   45 1   
    43   23   45 1   
    44   24   45 1   
    45   43   46 1   
    46   43   47 1   
@<TRIPOS>SUBSTRUCTURE
     1 0H6         1 TEMP              0 ****  ****    0 ROOT
