@<TRIPOS>MOLECULE
0H6
   46    45     1     0     0
SMALL
bcc


@<TRIPOS>ATOM
      1 C4         -0.0200   -0.4350   -0.1720 c3        1 0H6     -0.071200
      2 C7         -3.7930   -3.6420    2.1710 c1        1 0H6     -0.165000
      3 C6         -1.3400   -2.5350   -0.3040 c2        1 0H6     -0.190200
      4 C9         -2.5630   -1.8710   -0.7940 c3        1 0H6     -0.070900
      5 C13         5.9680    5.9470   -3.0940 c2        1 0H6     -0.287100
      6 C21         3.0590   -1.3550    1.1070 cc        1 0H6     -0.194600
      7 C8         -4.4960   -4.2150    2.9500 c1        1 0H6     -0.165000
      8 C16         2.6380    5.1730   -1.9950 cg        1 0H6     -0.185300
      9 N1          2.2320   -0.2550    0.9010 na        1 0H6     -0.176900
     10 C2          1.4520   -0.0040   -0.2870 c3        1 0H6     -0.036000
     11 C3          1.4170    1.5190   -0.6490 c         1 0H6      0.625100
     12 C5         -0.1950   -1.8970   -0.0330 c2        1 0H6     -0.163200
     13 N10         1.7670    1.8510   -1.9090 ns        1 0H6     -0.473500
     14 O11         1.0140    2.3200    0.2330 o         1 0H6     -0.681100
     15 C12         1.3890    3.1180   -2.5670 c2        1 0H6      0.093400
     16 C14         4.7950    5.3940   -3.0890 c1        1 0H6      0.112200
     17 C15         3.6150    4.8250   -3.0570 ce        1 0H6     -0.204000
     18 N17         1.6780    4.3110   -1.7740 nu        1 0H6     -0.266500
     19 O19         3.7090    3.6000   -5.1670 o         1 0H6     -0.565000
     20 O20         2.0530    3.1100   -3.8330 os        1 0H6     -0.474700
     21 C22         3.5350   -1.2350    2.4280 cd        1 0H6      0.182600
     22 N23         3.0100   -0.0880    3.0370 nd        1 0H6     -0.647000
     23 C24         2.2250    0.4820    2.1010 cc        1 0H6      0.429400
     24 F26         5.6490   -1.6070    3.5620 f         1 0H6     -0.244300
     25 F27         3.9570   -2.7580    4.2680 f         1 0H6     -0.244300
     26 F28         4.8790   -3.2420    2.3710 f         1 0H6     -0.244300
     27 H1         -0.4930    0.0960    0.7020 hc        1 0H6      0.082700
     28 H2          0.6800   -2.4620    0.3290 ha        1 0H6      0.122000
     29 H3         -0.5540    2.1740    1.9260 ha        1 0H6      0.001000
     30 H4         -1.4060   -3.6280   -0.1730 ha        1 0H6      0.115000
     31 H5         -3.1660   -3.1300    1.4790 ha        1 0H6      0.164000
     32 H6         -0.8220    1.7900    2.4160 ha        1 0H6      0.001000
     33 H7         -3.4190   -2.5880   -0.8440 hc        1 0H6      0.043367
     34 H8         -2.3960   -1.4500   -1.8180 hc        1 0H6      0.043367
     35 H9          6.8320    5.4960   -2.5860 ha        1 0H6      0.126000
     36 H10         3.2610   -2.1070    0.3460 h4        1 0H6      0.184000
     37 H11        -2.8500   -1.0230   -0.1200 hc        1 0H6      0.043367
     38 H12        -5.1180   -4.7220    3.6430 ha        1 0H6      0.164000
     39 H13         1.0230    4.4700   -1.0400 hn        1 0H6      0.301700
     40 H14         1.9340   -0.6050   -1.1160 h1        1 0H6      0.065700
     41 H15        -0.5440   -0.0680   -1.0990 hc        1 0H6      0.082700
     42 H16         2.0560    1.1340   -2.5360 hn        1 0H6      0.290500
     43 H17         6.1620    6.8990   -3.6070 ha        1 0H6      0.126000
     44 H19         1.6510    1.4210    2.1910 h5        1 0H6      0.109100
     45 C18         3.1870    3.8310   -4.0670 c         1 0H6      0.603300
     46 C25         4.4720   -2.1720    3.1370 c3        1 0H6      0.638600
@<TRIPOS>BOND
     1    1   10 1   
     2    1   12 1   
     3    1   27 1   
     4    1   41 1   
     5    2    7 3   
     6    2   31 1   
     7    3    4 1   
     8    3   12 2   
     9    3   30 1   
    10    4   33 1   
    11    4   34 1   
    12    4   37 1   
    13    5   16 2   
    14    5   35 1   
    15    5   43 1   
    16    6    9 1   
    17    6   21 2   
    18    6   36 1   
    19    7   38 1   
    20    8   17 1   
    21    8   18 3   
    22    9   10 1   
    23    9   23 1   
    24   10   11 1   
    25   10   40 1   
    26   11   13 1   
    27   11   14 2   
    28   12   28 1   
    29   13   15 2   
    30   13   42 1   
    31   15   18 1   
    32   15   20 1   
    33   16   17 2   
    34   17   45 1   
    35   18   39 1   
    36   19   45 2   
    37   20   45 1   
    38   21   22 1   
    39   21   46 1   
    40   22   23 2   
    41   23   44 1   
    42   24   46 1   
    43   25   46 1   
    44   26   46 1   
    45   29   32 1   
@<TRIPOS>SUBSTRUCTURE
     1 0H6         1 TEMP              0 ****  ****    0 ROOT
