@<TRIPOS>MOLECULE
0H6
   46    41     1     0     0
SMALL
bcc


@<TRIPOS>ATOM
      1 C4         -1.6810   -0.3890    0.5030 c3        1 0H6     -0.168000
      2 C7         -4.1520   -3.0530    0.7660 c3        1 0H6     -0.156500
      3 C6         -3.2740   -1.8820    1.3880 c3        1 0H6     -0.157000
      4 C9         -2.6060   -2.3890   -0.8610 c3        1 0H6     -0.157000
      5 C13         3.1620    2.0200   -2.3700 c1        1 0H6     -0.183000
      6 C21         1.3300   -1.1130    2.2060 c1        1 0H6     -0.164000
      7 C8         -3.4800   -3.3940   -0.6360 c3        1 0H6     -0.156500
      8 C18         3.0040    5.2040   -4.3470 c1        1 0H6      0.363000
      9 C16         1.2830    3.8790   -3.0860 c1        1 0H6     -0.039000
     10 N1          0.3820   -0.3080    1.7150 n2        1 0H6     -0.127500
     11 C2         -0.1720   -0.3720    0.4100 c2        1 0H6      0.003000
     12 C3          0.2710    0.8360   -0.3850 c2        1 0H6      0.295000
     13 C5         -2.1660   -1.8260    0.6160 c3        1 0H6     -0.112000
     14 N10         1.4680    0.7850   -1.1440 n         1 0H6     -0.281000
     15 O11        -0.4280    1.8300   -0.4190 o         1 0H6     -0.358000
     16 C12         1.8500    1.8940   -1.9420 c2        1 0H6      0.038000
     17 C14         3.5240    3.0770   -3.1540 c1        1 0H6     -0.073000
     18 C15         2.5940    4.0080   -3.5160 c1        1 0H6     -0.147000
     19 N17         0.9220    2.8240   -2.3030 n2        1 0H6     -0.212000
     20 O19         3.3290    5.0500   -5.5540 o         1 0H6     -0.556000
     21 O20         3.0320    6.3510   -3.8290 o         1 0H6     -0.556000
     22 C22         1.5420   -0.7670    3.5130 c1        1 0H6     -0.164000
     23 N23         0.7240    0.2460    3.8100 n2        1 0H6     -0.127500
     24 C24        -0.0000    0.5380    2.7020 c1        1 0H6     -0.061000
     25 C25         2.5150   -1.4320    4.4620 c2        1 0H6      0.518000
     26 F26         3.7680   -1.2190    4.0380 f         1 0H6     -0.168333
     27 F27         2.3650   -0.9170    5.6880 f         1 0H6     -0.168333
     28 F28         2.2740   -2.7490    4.4980 f         1 0H6     -0.168333
     29 H1         -2.0620    0.0220   -0.2990 hc        1 0H6      0.112000
     30 H2         -1.9640    0.1140    1.2930 hc        1 0H6      0.112000
     31 H3         -5.0730   -2.7520    0.6350 hc        1 0H6      0.080000
     32 H4         -4.1320   -3.8380    1.3500 hc        1 0H6      0.080000
     33 H5         -3.7610   -1.0330    1.3470 hc        1 0H6      0.082750
     34 H6         -3.0330   -2.0930    2.3140 hc        1 0H6      0.082750
     35 H7         -3.0380   -1.6780   -1.3780 hc        1 0H6      0.082750
     36 H8         -1.8210   -2.7270   -1.3400 hc        1 0H6      0.082750
     37 H9          3.8190    1.3360   -2.1390 ha        1 0H6      0.151000
     38 H10         1.7960   -1.8160    1.7150 DU        1 0H6      0.214500
     39 H11        -4.1590   -3.4190   -1.3410 hc        1 0H6      0.080000
     40 H12        -3.0080   -4.2510   -0.5870 hc        1 0H6      0.080000
     41 H13         0.6180    4.5450   -3.3440 ha        1 0H6      0.184000
     42 H14         0.1360   -1.1860   -0.0360 ha        1 0H6      0.115000
     43 H15        -1.4630   -2.3890    0.9950 hc        1 0H6      0.096000
     44 H16         2.0040    0.0480   -1.1010 hn        1 0H6      0.231000
     45 H17         4.4410    3.1500   -3.4820 ha        1 0H6      0.163000
     46 H19        -0.6790    1.2360    2.6280 DU        1 0H6      0.214500
@<TRIPOS>BOND
     1    1   11 1   
     2    1   13 1   
     3    1   29 1   
     4    1   30 1   
     5    2    3 1   
     6    2    7 1   
     7    2   31 1   
     8    2   32 1   
     9    3   13 1   
    10    3   33 1   
    11    3   34 1   
    12    4    7 1   
    13    4   13 1   
    14    4   35 1   
    15    4   36 1   
    16    5   16 1   
    17    5   37 1   
    18    6   10 1   
    19    6   22 1   
    20    7   39 1   
    21    7   40 1   
    22    8   20 1   
    23    8   21 1   
    24    9   19 1   
    25    9   41 1   
    26   10   24 1   
    27   11   12 1   
    28   11   42 1   
    29   12   14 1   
    30   12   15 1   
    31   13   43 1   
    32   14   16 1   
    33   14   44 1   
    34   16   19 1   
    35   17   18 1   
    36   17   45 1   
    37   22   23 1   
    38   23   24 1   
    39   25   26 1   
    40   25   27 1   
    41   25   28 1   
@<TRIPOS>SUBSTRUCTURE
     1 0H6         1 TEMP              0 ****  ****    0 ROOT
