@<TRIPOS>MOLECULE
0H7
   39    42     1     0     0
SMALL
bcc


@<TRIPOS>ATOM
      1 O1         -0.0470    0.0210   -0.3790 oh        1 0H7     -0.576800
      2 C2          1.3660    0.0270   -0.1890 c3        1 0H7      0.327400
      3 C3          1.6330    0.0310    1.3330 c3        1 0H7     -0.068700
      4 C4          0.7970    1.0970    2.0850 c3        1 0H7      0.141800
      5 N5          0.2090    0.5870    3.3320 n3        1 0H7     -0.660600
      6 C6         -0.7500   -0.4740    2.9830 c3        1 0H7      0.134800
      7 C7         -0.1010   -1.5960    2.1530 c3        1 0H7     -0.105900
      8 C8          1.3980   -1.3200    2.0300 c3        1 0H7     -0.060700
      9 C9          1.9700   -1.1920    3.4450 c3        1 0H7     -0.105900
     10 C10         1.2780   -0.0090    4.1480 c3        1 0H7      0.134800
     11 C11         1.9780   -1.1820   -0.8390 cc        1 0H7     -0.159400
     12 C12         1.3140   -2.3300   -1.2080 cd        1 0H7     -0.115000
     13 C13         2.1710   -3.2550   -1.8860 cd        1 0H7     -0.152000
     14 C14         3.4540   -2.7630   -2.0120 cc        1 0H7     -0.019700
     15 CL1         4.7270   -3.5490   -2.7520 cl        1 0H7     -0.028400
     16 S16         3.6080   -1.2390   -1.2930 ss        1 0H7      0.027200
     17 C17         1.9700    1.2460   -0.8290 cc        1 0H7     -0.159400
     18 C18         1.6280    2.5610   -0.6010 cd        1 0H7     -0.115000
     19 C19         2.4430    3.4690   -1.3470 cd        1 0H7     -0.152000
     20 C20         3.3780    2.8040   -2.1140 cc        1 0H7     -0.019700
     21 CL2         4.5080    3.5330   -3.1060 cl        1 0H7     -0.028400
     22 S22         3.2320    1.1310   -1.9530 ss        1 0H7      0.027200
     23 H1         -0.2050    0.0970   -1.3280 ho        1 0H7      0.410000
     24 H2          2.7240    0.2850    1.4470 hc        1 0H7      0.057700
     25 H3          1.4530    1.9720    2.3410 h1        1 0H7      0.063700
     26 H4         -0.0430    1.4600    1.4310 h1        1 0H7      0.063700
     27 H6         -1.5900   -0.0060    2.4020 h1        1 0H7      0.054200
     28 H7         -1.1750   -0.8910    3.9350 h1        1 0H7      0.054200
     29 H8         -0.5600   -1.6350    1.1330 hc        1 0H7      0.048200
     30 H9         -0.2630   -2.5860    2.6470 hc        1 0H7      0.048200
     31 H10         1.9020   -2.1470    1.4720 hc        1 0H7      0.063700
     32 H11         1.7870   -2.1390    4.0100 hc        1 0H7      0.048200
     33 H12         3.0750   -1.0260    3.4040 hc        1 0H7      0.048200
     34 H13         0.8260   -0.3480    5.1180 h1        1 0H7      0.054200
     35 H14         2.0300    0.7940    4.3780 h1        1 0H7      0.054200
     36 H15         0.2530   -2.5180   -1.0180 ha        1 0H7      0.167500
     37 H16         1.8270   -4.2240   -2.2550 ha        1 0H7      0.165500
     38 H17         0.8340    2.8930    0.0730 ha        1 0H7      0.167500
     39 H18         2.3250    4.5540   -1.2960 ha        1 0H7      0.165500
@<TRIPOS>BOND
     1    1    2 1   
     2    1   23 1   
     3    2    3 1   
     4    2   11 1   
     5    2   17 1   
     6    3    4 1   
     7    3    8 1   
     8    3   24 1   
     9    4    5 1   
    10    4   25 1   
    11    4   26 1   
    12    5    6 1   
    13    5   10 1   
    14    6    7 1   
    15    6   27 1   
    16    6   28 1   
    17    7    8 1   
    18    7   29 1   
    19    7   30 1   
    20    8    9 1   
    21    8   31 1   
    22    9   10 1   
    23    9   32 1   
    24    9   33 1   
    25   10   34 1   
    26   10   35 1   
    27   11   12 2   
    28   11   16 1   
    29   12   13 1   
    30   12   36 1   
    31   13   14 2   
    32   13   37 1   
    33   14   15 1   
    34   14   16 1   
    35   17   18 2   
    36   17   22 1   
    37   18   19 1   
    38   18   38 1   
    39   19   20 2   
    40   19   39 1   
    41   20   21 1   
    42   20   22 1   
@<TRIPOS>SUBSTRUCTURE
     1 0H7         1 TEMP              0 ****  ****    0 ROOT
