@<TRIPOS>MOLECULE
0H7
   39    42     1     0     0
SMALL
bcc


@<TRIPOS>ATOM
      1 O1          0.1690   -0.9210   -2.1470 oh        1 0H7     -0.571800
      2 C2          0.0150   -0.4350   -0.8170 c3        1 0H7      0.325400
      3 C3          0.4800   -1.4580    0.2500 c3        1 0H7     -0.112700
      4 C4         -0.3890   -2.7400    0.2580 c3        1 0H7      0.135800
      5 N5          0.4080   -3.9740    0.2350 n3        1 0H7     -0.660600
      6 C6          1.2270   -3.9780   -0.9890 c3        1 0H7      0.132300
      7 C7          2.1870   -2.7780   -1.0590 c3        1 0H7     -0.112400
      8 C8          1.9520   -1.8870    0.1600 c3        1 0H7     -0.058700
      9 C9          2.2450   -2.7330    1.4060 c3        1 0H7     -0.112400
     10 C10         1.3140   -3.9600    1.3960 c3        1 0H7      0.132300
     11 C11         0.8090    0.8330   -0.7340 cc        1 0H7     -0.128900
     12 C12         2.0850    1.0490   -1.2050 cd        1 0H7     -0.114000
     13 C13         2.5440    2.3730   -0.9230 cd        1 0H7     -0.150000
     14 C14         1.5890    3.1130   -0.2540 cc        1 0H7     -0.019200
     15 CL1         1.7730    4.6950    0.2520 cl        1 0H7     -0.029900
     16 S16         0.1690    2.2310   -0.0260 ss        1 0H7      0.023200
     17 C17        -1.4280   -0.1010   -0.5490 cc        1 0H7     -0.128900
     18 C18        -2.5210   -0.4810   -1.2920 cd        1 0H7     -0.114000
     19 C19        -3.7340    0.1020   -0.8030 cd        1 0H7     -0.150000
     20 C20        -3.5060    0.9180    0.2850 cc        1 0H7     -0.019200
     21 CL2        -4.6700    1.7770    1.1180 cl        1 0H7     -0.029900
     22 S22        -1.8690    0.9380    0.7130 ss        1 0H7      0.023200
     23 H1         -0.2130   -1.8080   -2.1700 ho        1 0H7      0.407000
     24 H2          0.3460   -0.9380    1.2410 hc        1 0H7      0.062700
     25 H3         -1.0190   -2.7540    1.1890 h1        1 0H7      0.057700
     26 H4         -1.0910   -2.7550   -0.6200 h1        1 0H7      0.057700
     27 H6          1.8050   -4.9410   -1.0150 h1        1 0H7      0.054700
     28 H7          0.5340   -3.9710   -1.8730 h1        1 0H7      0.054700
     29 H8          3.2480   -3.1370   -1.0560 hc        1 0H7      0.052450
     30 H9          2.0300   -2.1980   -2.0020 hc        1 0H7      0.052450
     31 H10         2.6190   -0.9890    0.1270 hc        1 0H7      0.071700
     32 H11         3.3140   -3.0580    1.3970 hc        1 0H7      0.052450
     33 H12         2.0800   -2.1270    2.3310 hc        1 0H7      0.052450
     34 H13         0.6850   -3.9750    2.3270 h1        1 0H7      0.054700
     35 H14         1.9210   -4.9050    1.3740 h1        1 0H7      0.054700
     36 H15         2.6810    0.3070   -1.7440 ha        1 0H7      0.163000
     37 H16         3.5340    2.7360   -1.2120 ha        1 0H7      0.165000
     38 H17        -2.4860   -1.1290   -2.1730 ha        1 0H7      0.163000
     39 H18        -4.7100   -0.0830   -1.2590 ha        1 0H7      0.165000
@<TRIPOS>BOND
     1    1    2 1   
     2    1   23 1   
     3    2    3 1   
     4    2   11 1   
     5    2   17 1   
     6    3    4 1   
     7    3    8 1   
     8    3   24 1   
     9    4    5 1   
    10    4   25 1   
    11    4   26 1   
    12    5    6 1   
    13    5   10 1   
    14    6    7 1   
    15    6   27 1   
    16    6   28 1   
    17    7    8 1   
    18    7   29 1   
    19    7   30 1   
    20    8    9 1   
    21    8   31 1   
    22    9   10 1   
    23    9   32 1   
    24    9   33 1   
    25   10   34 1   
    26   10   35 1   
    27   11   12 2   
    28   11   16 1   
    29   12   13 1   
    30   12   36 1   
    31   13   14 2   
    32   13   37 1   
    33   14   15 1   
    34   14   16 1   
    35   17   18 2   
    36   17   22 1   
    37   18   19 1   
    38   18   38 1   
    39   19   20 2   
    40   19   39 1   
    41   20   21 1   
    42   20   22 1   
@<TRIPOS>SUBSTRUCTURE
     1 0H7         1 TEMP              0 ****  ****    0 ROOT
