@<TRIPOS>MOLECULE
0H7
   39    42     1     0     0
SMALL
bcc


@<TRIPOS>ATOM
      1 O1         -0.0420    0.0220   -0.3840 oh        1 0H7     -0.576800
      2 C2          1.3690    0.0200   -0.1910 c3        1 0H7      0.327400
      3 C3          1.6330    0.0350    1.3320 c3        1 0H7     -0.068700
      4 C4          0.8030    1.1130    2.0720 c3        1 0H7      0.141800
      5 N5          0.2080    0.6180    3.3220 n3        1 0H7     -0.660600
      6 C6         -0.7570   -0.4400    2.9790 c3        1 0H7      0.134800
      7 C7         -0.1140   -1.5740    2.1610 c3        1 0H7     -0.105900
      8 C8          1.3870   -1.3080    2.0390 c3        1 0H7     -0.060700
      9 C9          1.9570   -1.1720    3.4550 c3        1 0H7     -0.105900
     10 C10         1.2720    0.0210    4.1450 c3        1 0H7      0.134800
     11 C11         1.9750   -1.1990   -0.8290 cc        1 0H7     -0.159400
     12 C12         1.3030   -2.3450   -1.1910 cd        1 0H7     -0.115000
     13 C13         2.1550   -3.2810   -1.8580 cd        1 0H7     -0.152000
     14 C14         3.4420   -2.8000   -1.9850 cc        1 0H7     -0.019700
     15 CL1         4.7110   -3.6020   -2.7160 cl        1 0H7     -0.028400
     16 S16         3.6050   -1.2710   -1.2800 ss        1 0H7      0.027200
     17 C17         1.9840    1.2290   -0.8400 cc        1 0H7     -0.159400
     18 C18         1.6510    2.5480   -0.6240 cd        1 0H7     -0.115000
     19 C19         2.4740    3.4440   -1.3750 cd        1 0H7     -0.152000
     20 C20         3.4060    2.7660   -2.1350 cc        1 0H7     -0.019700
     21 CL2         4.5430    3.4780   -3.1310 cl        1 0H7     -0.028400
     22 S22         3.2480    1.0950   -1.9600 ss        1 0H7      0.027200
     23 H1         -0.1980    0.0910   -1.3340 ho        1 0H7      0.410000
     24 H2          2.7260    0.2830    1.4460 hc        1 0H7      0.057700
     25 H3          1.4640    1.9860    2.3220 h1        1 0H7      0.063700
     26 H4         -0.0330    1.4760    1.4130 h1        1 0H7      0.063700
     27 H6         -1.1870   -0.8460    3.9340 h1        1 0H7      0.054200
     28 H7         -1.5920    0.0290    2.3930 h1        1 0H7      0.054200
     29 H8         -0.2830   -2.5580    2.6630 hc        1 0H7      0.048200
     30 H9         -0.5710   -1.6180    1.1400 hc        1 0H7      0.048200
     31 H10         1.8870   -2.1440    1.4890 hc        1 0H7      0.063700
     32 H11         3.0630   -1.0140    3.4150 hc        1 0H7      0.048200
     33 H12         1.7660   -2.1140    4.0270 hc        1 0H7      0.048200
     34 H13         0.8150   -0.3060    5.1180 h1        1 0H7      0.054200
     35 H14         2.0280    0.8210    4.3710 h1        1 0H7      0.054200
     36 H15         0.2410   -2.5240   -1.0010 ha        1 0H7      0.167500
     37 H16         1.8060   -4.2520   -2.2200 ha        1 0H7      0.165500
     38 H17         0.8580    2.8920    0.0460 ha        1 0H7      0.167500
     39 H18         2.3640    4.5310   -1.3340 ha        1 0H7      0.165500
@<TRIPOS>BOND
     1    1    2 1   
     2    1   23 1   
     3    2    3 1   
     4    2   11 1   
     5    2   17 1   
     6    3    4 1   
     7    3    8 1   
     8    3   24 1   
     9    4    5 1   
    10    4   25 1   
    11    4   26 1   
    12    5    6 1   
    13    5   10 1   
    14    6    7 1   
    15    6   27 1   
    16    6   28 1   
    17    7    8 1   
    18    7   29 1   
    19    7   30 1   
    20    8    9 1   
    21    8   31 1   
    22    9   10 1   
    23    9   32 1   
    24    9   33 1   
    25   10   34 1   
    26   10   35 1   
    27   11   12 2   
    28   11   16 1   
    29   12   13 1   
    30   12   36 1   
    31   13   14 2   
    32   13   37 1   
    33   14   15 1   
    34   14   16 1   
    35   17   18 2   
    36   17   22 1   
    37   18   19 1   
    38   18   38 1   
    39   19   20 2   
    40   19   39 1   
    41   20   21 1   
    42   20   22 1   
@<TRIPOS>SUBSTRUCTURE
     1 0H7         1 TEMP              0 ****  ****    0 ROOT
