@<TRIPOS>MOLECULE
0H7
   39    36     1     0     0
SMALL
bcc


@<TRIPOS>ATOM
      1 O1         -1.4560    0.5530   -0.7570 oh        1 0H7     -0.314000
      2 C2         -0.1480    0.0350   -0.7440 c3        1 0H7      0.242000
      3 C3          0.4450    0.0760    0.7950 c3        1 0H7     -0.108000
      4 C4          0.5330    1.4350    1.2080 c3        1 0H7     -0.093000
      5 N5         -0.2380    1.7550    2.4030 n3        1 0H7     -0.186000
      6 C6         -0.1460    0.7890    3.4830 c3        1 0H7     -0.101500
      7 C7         -0.2500   -0.5810    3.0660 c3        1 0H7     -0.184500
      8 C8         -0.4150   -0.7580    1.6470 c3        1 0H7     -0.100000
      9 C9         -1.8260   -0.2080    1.3790 c3        1 0H7     -0.184500
     10 C10        -1.7300    1.5710    1.9090 c3        1 0H7     -0.101500
     11 C11        -0.1660   -1.3740   -1.2340 c2        1 0H7     -0.429500
     12 C12        -0.8680   -1.8570   -2.4040 c1        1 0H7     -0.151000
     13 C13        -0.4620   -3.3730   -2.6390 c1        1 0H7     -0.147000
     14 C14         0.4710   -3.7590   -1.6050 c1        1 0H7     -0.394500
     15 CL1         1.0820   -5.3620   -1.3320 cl        1 0H7      0.049000
     16 S16         0.6960   -2.5340   -0.6860 ss        1 0H7      0.642500
     17 C17         0.7510    0.8890   -1.6650 c2        1 0H7     -0.429500
     18 C18         2.1520    0.6240   -1.9880 c1        1 0H7     -0.151000
     19 C19         2.6440    1.7300   -3.0170 c1        1 0H7     -0.147000
     20 C20         1.5270    2.6320   -3.2880 c1        1 0H7     -0.394500
     21 CL2         1.5940    4.0900   -4.2590 cl        1 0H7      0.049000
     22 S22         0.3070    2.1450   -2.4590 ss        1 0H7      0.642500
     23 H1         -1.7300    0.6520   -1.6080 ho        1 0H7      0.209000
     24 H2          1.3510   -0.3100    0.7930 hc        1 0H7      0.095000
     25 H3          1.4780    1.6480    1.3810 h1        1 0H7      0.102500
     26 H4          0.2180    1.9990    0.4790 h1        1 0H7      0.102500
     27 H6          0.7230    0.9120    3.9410 h1        1 0H7      0.093250
     28 H7         -0.8690    0.9740    4.1290 h1        1 0H7      0.093250
     29 H8         -1.0190   -0.9870    3.5220 hc        1 0H7      0.087000
     30 H9          0.5650   -1.0540    3.3470 hc        1 0H7      0.087000
     31 H10        -0.3540   -1.7040    1.3970 hc        1 0H7      0.105000
     32 H11        -2.4940   -0.6930    1.9190 hc        1 0H7      0.087000
     33 H12        -2.0430   -0.2710    0.4260 hc        1 0H7      0.087000
     34 H13        -1.9130    2.1580    1.1590 h1        1 0H7      0.093250
     35 H14        -2.3680    1.7470    2.6550 h1        1 0H7      0.093250
     36 H15        -1.4860   -1.3380   -2.9550 DU        1 0H7      0.164000
     37 H16        -0.7870   -3.9460   -3.3570 DU        1 0H7      0.164000
     38 H17         2.6890   -0.1020   -1.6340 DU        1 0H7      0.164000
     39 H18         3.5410    1.7960   -3.4030 DU        1 0H7      0.164000
@<TRIPOS>BOND
     1    1    2 1   
     2    1   23 1   
     3    2    3 1   
     4    2   11 1   
     5    2   17 1   
     6    3    4 1   
     7    3    8 1   
     8    3   24 1   
     9    4    5 1   
    10    4   25 1   
    11    4   26 1   
    12    5    6 1   
    13    5   10 1   
    14    6    7 1   
    15    6   27 1   
    16    6   28 1   
    17    7    8 1   
    18    7   29 1   
    19    7   30 1   
    20    8    9 1   
    21    8   31 1   
    22    9   10 1   
    23    9   32 1   
    24    9   33 1   
    25   10   34 1   
    26   10   35 1   
    27   11   12 1   
    28   11   16 1   
    29   12   13 1   
    30   13   14 1   
    31   14   16 1   
    32   17   18 1   
    33   17   22 1   
    34   18   19 1   
    35   19   20 1   
    36   20   22 1   
@<TRIPOS>SUBSTRUCTURE
     1 0H7         1 TEMP              0 ****  ****    0 ROOT
