@<TRIPOS>MOLECULE
0H7
   39    42     1     0     0
SMALL
bcc


@<TRIPOS>ATOM
      1 O1         -0.0400    0.0210   -0.3870 oh        1 0H7     -0.576800
      2 C2          1.3710    0.0220   -0.1910 c3        1 0H7      0.327400
      3 C3          1.6310    0.0340    1.3330 c3        1 0H7     -0.068700
      4 C4          0.7960    1.1080    2.0740 c3        1 0H7      0.141800
      5 N5          0.2000    0.6070    3.3210 n3        1 0H7     -0.660600
      6 C6         -0.7620   -0.4520    2.9730 c3        1 0H7      0.134800
      7 C7         -0.1140   -1.5810    2.1540 c3        1 0H7     -0.105900
      8 C8          1.3870   -1.3120    2.0350 c3        1 0H7     -0.060700
      9 C9          1.9530   -1.1790    3.4530 c3        1 0H7     -0.105900
     10 C10         1.2630    0.0110    4.1460 c3        1 0H7      0.134800
     11 C11         1.9810   -1.1930   -0.8310 cc        1 0H7     -0.159400
     12 C12         1.3130   -2.3400   -1.1970 cd        1 0H7     -0.115000
     13 C13         2.1690   -3.2730   -1.8650 cd        1 0H7     -0.152000
     14 C14         3.4540   -2.7880   -1.9880 cc        1 0H7     -0.019700
     15 Cl1         4.7270   -3.5840   -2.7170 cl        1 0H7     -0.028400
     16 S16         3.6120   -1.2600   -1.2770 ss        1 0H7      0.027200
     17 C17         1.9840    1.2350   -0.8350 cc        1 0H7     -0.159400
     18 C18         1.6480    2.5520   -0.6160 cd        1 0H7     -0.115000
     19 C19         2.4700    3.4530   -1.3630 cd        1 0H7     -0.152000
     20 C20         3.4050    2.7780   -2.1220 cc        1 0H7     -0.019700
     21 Cl2         4.5430    3.4970   -3.1130 cl        1 0H7     -0.028400
     22 S22         3.2510    1.1070   -1.9520 ss        1 0H7      0.027200
     23 H1         -0.1940    0.0930   -1.3370 ho        1 0H7      0.410000
     24 H2          2.7230    0.2840    1.4500 hc        1 0H7      0.057700
     25 H3         -0.0380    1.4710    1.4140 h1        1 0H7      0.063700
     26 H4          1.4550    1.9810    2.3280 h1        1 0H7      0.063700
     27 H6         -1.1930   -0.8610    3.9260 h1        1 0H7      0.054200
     28 H7         -1.5970    0.0170    2.3860 h1        1 0H7      0.054200
     29 H8         -0.2820   -2.5670    2.6530 hc        1 0H7      0.048200
     30 H9         -0.5680   -1.6240    1.1310 hc        1 0H7      0.048200
     31 H10         1.8900   -2.1450    1.4850 hc        1 0H7      0.063700
     32 H11         1.7630   -2.1220    4.0230 hc        1 0H7      0.048200
     33 H12         3.0590   -1.0180    3.4160 hc        1 0H7      0.048200
     34 H13         2.0170    0.8120    4.3750 h1        1 0H7      0.054200
     35 H14         0.8040   -0.3200    5.1160 h1        1 0H7      0.054200
     36 H15         0.2510   -2.5220   -1.0100 ha        1 0H7      0.167500
     37 H16         1.8230   -4.2430   -2.2300 ha        1 0H7      0.165500
     38 H17         0.8520    2.8920    0.0530 ha        1 0H7      0.167500
     39 H18         2.3570    4.5390   -1.3190 ha        1 0H7      0.165500
@<TRIPOS>BOND
     1    1    2 1   
     2    1   23 1   
     3    2    3 1   
     4    2   11 1   
     5    2   17 1   
     6    3    4 1   
     7    3    8 1   
     8    3   24 1   
     9    4    5 1   
    10    4   25 1   
    11    4   26 1   
    12    5    6 1   
    13    5   10 1   
    14    6    7 1   
    15    6   27 1   
    16    6   28 1   
    17    7    8 1   
    18    7   29 1   
    19    7   30 1   
    20    8    9 1   
    21    8   31 1   
    22    9   10 1   
    23    9   32 1   
    24    9   33 1   
    25   10   34 1   
    26   10   35 1   
    27   11   12 2   
    28   11   16 1   
    29   12   13 1   
    30   12   36 1   
    31   13   14 2   
    32   13   37 1   
    33   14   15 1   
    34   14   16 1   
    35   17   18 2   
    36   17   22 1   
    37   18   19 1   
    38   18   38 1   
    39   19   20 2   
    40   19   39 1   
    41   20   21 1   
    42   20   22 1   
@<TRIPOS>SUBSTRUCTURE
     1 0H7         1 TEMP              0 ****  ****    0 ROOT
