@<TRIPOS>MOLECULE
0H8
   64    63     1     0     0
SMALL
bcc


@<TRIPOS>ATOM
      1 C1          2.7170    2.4840    8.1320 c1        1 0H8      0.329000
      2 O1          3.7830    3.1560    8.1560 o         1 0H8     -0.596000
      3 O2          2.5470    1.5430    8.9580 os        1 0H8     -0.591000
      4 C2          1.6700    2.7460    7.0440 c3        1 0H8     -0.220000
      5 C3          1.9880    1.8960    5.8170 c3        1 0H8     -0.157000
      6 C4          0.7530    1.8670    4.8740 c2        1 0H8      0.303000
      7 O4         -0.3690    1.7740    5.3420 o         1 0H8     -0.427000
      8 N           0.9400    1.8570    3.4420 n         1 0H8     -0.368000
      9 CA         -0.1540    1.6190    2.5920 c3        1 0H8      0.011000
     10 C           0.2750    0.6820    1.4590 c2        1 0H8      0.311000
     11 O           1.0270    1.0810    0.5960 o         1 0H8     -0.398000
     12 CB         -0.6410    2.9460    2.0010 c3        1 0H8     -0.127000
     13 CG1        -1.8420    3.4760    2.8320 c3        1 0H8     -0.206500
     14 CG2         0.4880    3.9630    2.0370 c3        1 0H8     -0.206500
     15 N1         -0.1620   -0.7130    1.4570 n         1 0H8     -0.306000
     16 CA1         0.2470   -1.8330    0.4110 c3        1 0H8     -0.005000
     17 C5         -0.4130   -1.5510   -0.9280 c2        1 0H8      0.267000
     18 O3         -1.4200   -0.8880   -0.9760 o         1 0H8     -0.446000
     19 CB1        -0.1870   -2.9360    1.0170 c3        1 0H8     -0.198000
     20 CG         -1.4040   -2.5080    1.9500 c3        1 0H8     -0.159000
     21 CD         -1.0980   -1.3760    2.4590 c3        1 0H8     -0.026000
     22 N2          0.1400   -2.1290   -2.1530 n         1 0H8     -0.251000
     23 CA2        -0.6340   -2.1240   -3.3640 c3        1 0H8     -0.595000
     24 P          -1.4920   -3.6980   -3.5370 p5        1 0H8      1.602500
     25 O1P        -2.3860   -3.9180   -2.3390 o         1 0H8     -0.935167
     26 O2P        -2.3330   -3.6790   -4.7980 o         1 0H8     -0.935167
     27 CB2         0.2860   -1.9160   -4.5540 c3        1 0H8     -0.123000
     28 CG3        -0.4600   -1.1580   -5.6450 c3        1 0H8     -0.155000
     29 CD1         0.2870   -1.2880   -6.9480 c3        1 0H8     -0.189000
     30 CE         -0.4120   -0.4560   -8.0190 c3        1 0H8     -0.105000
     31 NZ          0.1820   -0.7210   -9.2920 n3        1 0H8     -0.344000
     32 H21         0.7820    2.5110    7.3830 hc        1 0H8      0.070500
     33 H22         1.6850    3.6940    6.7980 hc        1 0H8      0.070500
     34 H31         2.7520    2.2810    5.3420 hc        1 0H8      0.110000
     35 H32         2.2030    0.9930    6.0960 hc        1 0H8      0.110000
     36 H           1.7560    2.0270    3.0920 hn        1 0H8      0.237000
     37 HA         -0.8790    1.2050    3.1020 h1        1 0H8      0.129000
     38 HB         -0.9220    2.8060    1.0750 hc        1 0H8      0.140000
     39 HG11       -2.5110    2.7710    2.9240 hc        1 0H8      0.071667
     40 HG12       -1.5300    3.7480    3.7180 hc        1 0H8      0.071667
     41 HG13       -2.2440    4.2550    2.3710 hc        1 0H8      0.071667
     42 HG21        1.3050    3.5570    1.6880 hc        1 0H8      0.071667
     43 HG22        0.2500    4.7300    1.4930 hc        1 0H8      0.071667
     44 HG23        0.6370    4.2520    2.9580 hc        1 0H8      0.071667
     45 HA1         1.1930   -1.9100    0.1520 h1        1 0H8      0.115000
     46 HB2         0.5350   -3.3260    1.5640 hc        1 0H8      0.144000
     47 HB3        -0.4910   -3.5900    0.3470 hc        1 0H8      0.144000
     48 HG2        -2.2220   -2.4250    1.4160 hc        1 0H8      0.077500
     49 HG3        -1.5330   -3.1750    2.6620 hc        1 0H8      0.077500
     50 HD2        -1.9040   -0.8320    2.5830 h1        1 0H8      0.070000
     51 HD3        -0.6420   -1.5030    3.3130 h1        1 0H8      0.070000
     52 HN2         0.9770   -2.5200   -2.1410 hn        1 0H8      0.228000
     53 HA2        -1.2850   -1.4030   -3.3290 h1        1 0H8      0.090000
     54 HB1         1.0750   -1.3970   -4.2740 hc        1 0H8      0.077500
     55 HB21        0.5740   -2.7900   -4.9010 hc        1 0H8      0.077500
     56 HG1        -1.3530   -1.5310   -5.7460 hc        1 0H8      0.085000
     57 HG24       -0.5260   -0.2100   -5.3980 hc        1 0H8      0.085000
     58 HD1         1.2090   -0.9670   -6.8310 hc        1 0H8      0.067500
     59 HD21        0.3020   -2.2240   -7.2210 hc        1 0H8      0.067500
     60 HE1        -1.3640   -0.6920   -8.0480 h1        1 0H8      0.086500
     61 HE2        -0.3170    0.4980   -7.8060 h1        1 0H8      0.086500
     62 HNZ1        1.0920   -0.6550   -9.2230 hn        1 0H8      0.119000
     63 HNZ2       -0.0420   -1.5600   -9.5610 hn        1 0H8      0.119000
     64 O8         -0.4810   -4.8170   -3.6240 o         1 0H8     -0.935167
@<TRIPOS>BOND
     1    1    2 1   
     2    1    4 1   
     3    4    5 1   
     4    4   32 1   
     5    4   33 1   
     6    5    6 1   
     7    5   34 1   
     8    5   35 1   
     9    6    7 1   
    10    6    8 1   
    11    8    9 1   
    12    8   36 1   
    13    9   10 1   
    14    9   12 1   
    15    9   37 1   
    16   10   11 1   
    17   10   15 1   
    18   12   13 1   
    19   12   14 1   
    20   12   38 1   
    21   13   39 1   
    22   13   40 1   
    23   13   41 1   
    24   14   42 1   
    25   14   43 1   
    26   14   44 1   
    27   15   16 1   
    28   15   21 1   
    29   16   17 1   
    30   16   19 1   
    31   16   45 1   
    32   17   18 1   
    33   17   22 1   
    34   19   20 1   
    35   19   46 1   
    36   19   47 1   
    37   20   21 1   
    38   20   48 1   
    39   20   49 1   
    40   21   50 1   
    41   21   51 1   
    42   22   23 1   
    43   22   52 1   
    44   23   24 1   
    45   23   27 1   
    46   23   53 1   
    47   24   25 1   
    48   24   26 1   
    49   24   64 1   
    50   27   28 1   
    51   27   54 1   
    52   27   55 1   
    53   28   29 1   
    54   28   56 1   
    55   28   57 1   
    56   29   30 1   
    57   29   58 1   
    58   29   59 1   
    59   30   31 1   
    60   30   60 1   
    61   30   61 1   
    62   31   62 1   
    63   31   63 1   
@<TRIPOS>SUBSTRUCTURE
     1 0H8         1 TEMP              0 ****  ****    0 ROOT
