@<TRIPOS>MOLECULE
0H8
   64    64     1     0     0
SMALL
bcc


@<TRIPOS>ATOM
      1 C1          9.1150   -0.4970    0.1630 c         1 0H8      0.905600
      2 O1          9.0350   -1.7590    0.1070 o         1 0H8     -0.861300
      3 O2         10.1860    0.1160    0.4500 o         1 0H8     -0.861300
      4 C2          7.8720    0.3490   -0.1570 c3        1 0H8     -0.183400
      5 C3          6.5970   -0.3610    0.2280 c3        1 0H8     -0.132400
      6 C4          5.3600    0.2930   -0.3580 c         1 0H8      0.653100
      7 O4          5.4070    1.2110   -1.2060 o         1 0H8     -0.644100
      8 N           4.1340   -0.1590    0.1120 n         1 0H8     -0.567900
      9 CA          2.8830    0.2390   -0.4890 c3        1 0H8      0.042700
     10 C           1.7320    0.0850    0.5440 c         1 0H8      0.674100
     11 O           1.6370   -0.9710    1.2100 o         1 0H8     -0.646100
     12 CB          2.5270   -0.5500   -1.7750 c3        1 0H8     -0.075700
     13 CG1         2.3590   -2.0320   -1.5270 c3        1 0H8     -0.102600
     14 CG2         1.2840    0.0260   -2.4180 c3        1 0H8     -0.102600
     15 N1          0.8550    1.1220    0.7240 n         1 0H8     -0.443800
     16 CA1        -0.3820    1.0250    1.4990 c3        1 0H8      0.022700
     17 C5         -1.5840    0.3980    0.7280 c         1 0H8      0.628100
     18 O3         -1.4530    0.0340   -0.4660 o         1 0H8     -0.683100
     19 CB1        -0.7370    2.4790    1.8940 c3        1 0H8     -0.122400
     20 CG         -0.0070    3.3630    0.8890 c3        1 0H8     -0.081400
     21 CD          1.0280    2.4590    0.1920 c3        1 0H8      0.093000
     22 N2         -2.7240    0.2330    1.4720 n         1 0H8     -0.442900
     23 CA2        -4.0390    0.2830    0.8900 c3        1 0H8     -0.111500
     24 P          -5.0180    1.5160    1.9230 p5        1 0H8      1.194700
     25 O1P        -5.5100    0.7250    3.1070 o         1 0H8     -0.935167
     26 O2P        -3.9370    2.5230    2.2740 o         1 0H8     -0.935167
     27 CB2        -4.8050   -1.0180    0.9170 c3        1 0H8     -0.044400
     28 CG3        -5.4990   -1.2950   -0.4050 c3        1 0H8     -0.076400
     29 CD1        -6.3690   -2.5310   -0.3080 c3        1 0H8     -0.110400
     30 CE         -7.0740   -2.8140   -1.6330 c3        1 0H8      0.131800
     31 NZ         -7.9750   -3.9490   -1.6450 n3        1 0H8     -0.911800
     32 H21         7.9450    1.3300    0.3740 hc        1 0H8      0.036700
     33 H22         7.8730    0.5600   -1.2560 hc        1 0H8      0.036700
     34 H31         6.6540   -1.4230   -0.1420 hc        1 0H8      0.069200
     35 H32         6.5110   -0.3990    1.3450 hc        1 0H8      0.069200
     36 H           4.1040   -0.9790    0.6730 hn        1 0H8      0.315500
     37 HA          3.0020    1.3200   -0.8020 h1        1 0H8      0.081700
     38 HB          3.3930   -0.4040   -2.4850 hc        1 0H8      0.043700
     39 HG11        1.5640   -2.2130   -0.7620 hc        1 0H8      0.042533
     40 HG12        2.0650   -2.5450   -2.4750 hc        1 0H8      0.042533
     41 HG13        3.3120   -2.4860   -1.1630 hc        1 0H8      0.042533
     42 HG21        1.4260    1.1120   -2.6370 hc        1 0H8      0.042533
     43 HG22        1.0770   -0.5020   -3.3810 hc        1 0H8      0.042533
     44 HG23        0.3890   -0.0910   -1.7520 hc        1 0H8      0.042533
     45 HA1        -0.1790    0.3870    2.4050 h1        1 0H8      0.074700
     46 HB2        -1.8530    2.6740    1.8940 hc        1 0H8      0.106200
     47 HB3        -0.3640    2.6770    2.9290 hc        1 0H8      0.106200
     48 HG2        -0.7250    3.7730    0.1380 hc        1 0H8      0.039200
     49 HG3         0.5000    4.2200    1.3920 hc        1 0H8      0.039200
     50 HD2         2.0720    2.8230    0.3990 h1        1 0H8      0.030700
     51 HD3         0.8680    2.4580   -0.9220 h1        1 0H8      0.030700
     52 HN2        -2.7170    0.7190    2.3580 hn        1 0H8      0.314500
     53 HA2        -3.9920    0.6920   -0.1490 h1        1 0H8      0.050700
     54 HB1        -4.1460   -1.8970    1.1560 hc        1 0H8      0.038200
     55 HB21       -5.5720   -0.9470    1.7420 hc        1 0H8      0.038200
     56 HG1        -6.1310   -0.4100   -0.6840 hc        1 0H8      0.045200
     57 HG24       -4.7360   -1.4350   -1.2130 hc        1 0H8      0.045200
     58 HD1        -5.7410   -3.4130   -0.0190 hc        1 0H8      0.028200
     59 HD21       -7.1290   -2.3800    0.5040 hc        1 0H8      0.028200
     60 HE1        -7.6650   -1.9020   -1.9310 h1        1 0H8      0.047200
     61 HE2        -6.2970   -2.9880   -2.4300 h1        1 0H8      0.047200
     62 HNZ1       -7.4820   -4.7730   -1.3530 hn        1 0H8      0.323800
     63 HNZ2       -8.7160   -3.7970   -0.9860 hn        1 0H8      0.323800
     64 O8         -6.0710    1.9780    0.9540 o         1 0H8     -0.935167
@<TRIPOS>BOND
     1    1    2 1   
     2    1    3 1   
     3    1    4 1   
     4    4    5 1   
     5    4   32 1   
     6    4   33 1   
     7    5    6 1   
     8    5   34 1   
     9    5   35 1   
    10    6    7 2   
    11    6    8 1   
    12    8    9 1   
    13    8   36 1   
    14    9   10 1   
    15    9   12 1   
    16    9   37 1   
    17   10   11 2   
    18   10   15 1   
    19   12   13 1   
    20   12   14 1   
    21   12   38 1   
    22   13   39 1   
    23   13   40 1   
    24   13   41 1   
    25   14   42 1   
    26   14   43 1   
    27   14   44 1   
    28   15   16 1   
    29   15   21 1   
    30   16   17 1   
    31   16   19 1   
    32   16   45 1   
    33   17   18 2   
    34   17   22 1   
    35   19   20 1   
    36   19   46 1   
    37   19   47 1   
    38   20   21 1   
    39   20   48 1   
    40   20   49 1   
    41   21   50 1   
    42   21   51 1   
    43   22   23 1   
    44   22   52 1   
    45   23   24 1   
    46   23   27 1   
    47   23   53 1   
    48   24   25 1   
    49   24   26 1   
    50   24   64 1   
    51   27   28 1   
    52   27   54 1   
    53   27   55 1   
    54   28   29 1   
    55   28   56 1   
    56   28   57 1   
    57   29   30 1   
    58   29   58 1   
    59   29   59 1   
    60   30   31 1   
    61   30   60 1   
    62   30   61 1   
    63   31   62 1   
    64   31   63 1   
@<TRIPOS>SUBSTRUCTURE
     1 0H8         1 TEMP              0 ****  ****    0 ROOT
