@<TRIPOS>MOLECULE
0H9
   30    26     1     0     0
SMALL
bcc


@<TRIPOS>ATOM
      1 CAA        -4.2560    1.1060   -3.7690 c3        1 0H9      0.207400
      2 CAE        -1.5830    0.7550   -0.1410 c1        1 0H9     -0.022500
      3 CAF         0.0130    0.7660   -1.9190 c1        1 0H9     -0.074000
      4 CAG        -2.6100    0.7470   -1.0520 c1        1 0H9     -0.150500
      5 CAH        -1.0360    0.7570   -2.8530 c1        1 0H9     -0.074000
      6 CAI         2.0170   -0.4940    2.1000 c3        1 0H9      0.186800
      7 CAJ         0.8710    0.8070    0.4260 c3        1 0H9      0.165900
      8 CAK         2.3400   -1.9270    2.5770 c3        1 0H9     -0.325600
      9 CAN        -0.2630    0.7650   -0.5810 c1        1 0H9     -0.068100
     10 CAO        -2.3290    0.7480   -2.4250 c1        1 0H9      0.060000
     11 NAL         1.1630   -0.5570    0.8930 n3        1 0H9     -0.818200
     12 OAB         3.6800   -3.2240    4.5510 o         1 0H9     -0.751200
     13 OAC         4.8170   -1.3240    3.4080 o         1 0H9     -0.751200
     14 OAD         2.9890   -1.0540    5.0420 o         1 0H9     -0.751200
     15 OAM        -2.9170    0.5820   -3.6790 o         1 0H9     -0.380500
     16 SAP         3.5100   -1.8610    3.8960 s6        1 0H9      1.430800
     17 H1         -4.5300    1.1520   -4.7220 h1        1 0H9      0.038033
     18 H2         -4.8790    0.5080   -3.2730 h1        1 0H9      0.038033
     19 H3         -4.2820    2.0160   -3.3720 h1        1 0H9      0.038033
     20 H4         -1.7790    0.7540    0.8150 ha        1 0H9      0.094500
     21 H5          0.9130    0.8120   -2.2160 ha        1 0H9      0.080000
     22 H6         -3.5220    0.7410   -0.7480 ha        1 0H9      0.070500
     23 H7         -0.8450    0.7570   -3.7780 ha        1 0H9      0.080000
     24 H8          1.5410   -0.0100    2.8140 h1        1 0H9      0.062700
     25 H9          2.8550   -0.0230    1.8850 h1        1 0H9      0.062700
     26 H10         0.6170    1.3500    1.1680 h1        1 0H9      0.040200
     27 H11         1.6600    1.1800    0.0070 h1        1 0H9      0.040200
     28 H12         1.5230   -2.3560    2.8920 h1        1 0H9      0.063200
     29 H13         2.7120   -2.4400    1.8400 h1        1 0H9      0.063200
     30 H14         1.6110   -1.0310    0.2160 hn        1 0H9      0.345800
@<TRIPOS>BOND
     1    1   15 1   
     2    1   17 1   
     3    1   18 1   
     4    1   19 1   
     5    2    9 3   
     6    2   20 1   
     7    3    5 3   
     8    3   21 1   
     9    4   10 3   
    10    4   22 1   
    11    5   23 1   
    12    6    8 1   
    13    6   11 1   
    14    6   24 1   
    15    6   25 1   
    16    7    9 1   
    17    7   11 1   
    18    7   26 1   
    19    7   27 1   
    20    8   16 1   
    21    8   28 1   
    22    8   29 1   
    23   11   30 1   
    24   12   16 1   
    25   13   16 1   
    26   14   16 1   
@<TRIPOS>SUBSTRUCTURE
     1 0H9         1 TEMP              0 ****  ****    0 ROOT
