@<TRIPOS>MOLECULE
0H9
   30    30     1     0     0
SMALL
bcc


@<TRIPOS>ATOM
      1 CAA        -6.6140    1.1230    0.4230 c3        1 0H9      0.117700
      2 CAE        -2.5210    1.0560   -0.4940 ca        1 0H9     -0.090500
      3 CAF        -2.5420   -1.3330   -0.1450 ca        1 0H9     -0.090500
      4 CAG        -3.8860    1.1210   -0.2100 ca        1 0H9     -0.185500
      5 CAH        -3.9000   -1.2910    0.1450 ca        1 0H9     -0.185500
      6 CAI         1.8450   -0.8920   -0.1240 c3        1 0H9      0.185800
      7 CAK         2.5330    0.4110    0.2160 c3        1 0H9     -0.325600
      8 CAN        -1.8410   -0.1630   -0.4680 ca        1 0H9     -0.102300
      9 CAO        -4.5710   -0.0550    0.1090 ca        1 0H9      0.105100
     10 NAL         0.4160   -0.9760    0.1290 n3        1 0H9     -0.817200
     11 OAB         4.3350    0.0870   -1.5550 o         1 0H9     -0.751200
     12 OAC         4.7220    1.6690    0.1690 o         1 0H9     -0.751200
     13 OAD         4.8090   -0.6520    0.6500 o         1 0H9     -0.751200
     14 OAM        -5.9240   -0.1180    0.4060 os        1 0H9     -0.335900
     15 SAP         4.2760    0.3700   -0.1700 s6        1 0H9      1.430800
     16 H1         -6.5940    1.6000   -0.5880 h1        1 0H9      0.037700
     17 H2         -7.6610    0.8400    0.7020 h1        1 0H9      0.037700
     18 H3         -6.1770    1.8110    1.1860 h1        1 0H9      0.037700
     19 H4         -1.9780    1.9820   -0.7410 ha        1 0H9      0.144000
     20 H5         -2.0050   -2.2950   -0.1180 ha        1 0H9      0.144000
     21 H6         -4.4010    2.0900   -0.2380 ha        1 0H9      0.134000
     22 H7         -4.4570   -2.2020    0.4010 ha        1 0H9      0.134000
     23 H8          2.0280   -1.1210   -1.2140 h1        1 0H9      0.063200
     24 H9          2.3190   -1.7150    0.4860 h1        1 0H9      0.063200
     25 H10        -0.2810   -0.7270   -1.8210 h1        1 0H9      0.040200
     26 H11        -0.0010    0.8400   -0.9490 h1        1 0H9      0.040200
     27 H12         2.0750    1.2570   -0.3470 h1        1 0H9      0.062700
     28 H13         2.4190    0.6380    1.3020 h1        1 0H9      0.062700
     29 H14         0.2200   -0.6580    1.0610 hn        1 0H9      0.345800
     30 CAJ        -0.3830   -0.2170   -0.8180 c3        1 0H9      0.199100
@<TRIPOS>BOND
     1    1   14 1   
     2    1   16 1   
     3    1   17 1   
     4    1   18 1   
     5    2    4 ar  
     6    2    8 ar  
     7    2   19 1   
     8    3    5 ar  
     9    3    8 ar  
    10    3   20 1   
    11    4    9 ar  
    12    4   21 1   
    13    5    9 ar  
    14    5   22 1   
    15    6    7 1   
    16    6   10 1   
    17    6   23 1   
    18    6   24 1   
    19    7   15 1   
    20    7   27 1   
    21    7   28 1   
    22    8   30 1   
    23    9   14 1   
    24   10   29 1   
    25   10   30 1   
    26   11   15 1   
    27   12   15 1   
    28   13   15 1   
    29   25   30 1   
    30   26   30 1   
@<TRIPOS>SUBSTRUCTURE
     1 0H9         1 TEMP              0 ****  ****    0 ROOT
