@<TRIPOS>MOLECULE
0H9
   31    27     1     0     0
SMALL
bcc


@<TRIPOS>ATOM
      1 CAA        -0.0580    0.1360   -1.4960 c3        1 0H9     -0.076000
      2 CAE         2.8170    1.6110    6.6940 c1        1 0H9      0.176000
      3 CAF         2.6950   -0.0400    2.4900 c1        1 0H9      0.184000
      4 CAG        -0.0720   -0.3510    1.2540 c2        1 0H9     -0.320000
      5 CAH         2.3600    0.1250    1.2300 c2        1 0H9     -0.420000
      6 CAI         6.2180   -3.4400    6.5750 c2        1 0H9     -0.257500
      7 CAK         6.7890   -3.7300    7.7440 c2        1 0H9     -0.257500
      8 CAN         3.3190    0.8980    5.7170 c2        1 0H9     -0.539000
      9 CAO         1.0550   -0.0190    0.6050 c2        1 0H9      0.118000
     10 NAL         4.1550   -1.3860    5.1740 n3        1 0H9     -0.347000
     11 OAB         5.3440   -1.2680    8.8740 o         1 0H9     -0.960667
     12 OAC         5.2910   -3.1890   10.2160 o         1 0H9     -0.960667
     13 OAD         7.2720   -1.9460   10.0200 o         1 0H9     -0.960667
     14 OAM         1.1530    0.2360   -0.7560 os        1 0H9     -0.223000
     15 SAP         5.9860   -2.1700    9.6560 s4        1 0H9      2.854000
     16 H1         -0.8090    0.8750   -1.1240 h1        1 0H9      0.085667
     17 H2          0.2550    0.3800   -2.5430 h1        1 0H9      0.085667
     18 H3         -0.4700   -0.9010   -1.4380 h1        1 0H9      0.085667
     19 H4         -1.0430   -0.4520    0.7570 ha        1 0H9      0.132000
     20 H5          2.9520    1.0450    4.6780 ha        1 0H9      0.200000
     21 H6         -0.0720   -0.5370    2.3340 ha        1 0H9      0.132000
     22 H7          3.1780    0.4160    0.5260 ha        1 0H9      0.220000
     23 H8          3.9250   -1.2360    4.2080 hn        1 0H9      0.147000
     24 H9          6.6370   -2.7060    5.8700 ha        1 0H9      0.135750
     25 H10         4.6060   -0.3480    6.9310 h1        1 0H9      0.110500
     26 H11         5.3410    0.3110    5.3950 h1        1 0H9      0.110500
     27 H12         6.3970   -4.5220    8.4040 ha        1 0H9      0.135750
     28 H13         7.7850   -3.3430    8.0190 ha        1 0H9      0.135750
     29 H14         5.2630   -3.8830    6.2540 ha        1 0H9      0.135750
     30 HAL2        3.3940   -1.8720    5.6070 hn        1 0H9      0.147000
     31 CAJ         4.4050   -0.1350    5.8400 c3        1 0H9     -0.011000
@<TRIPOS>BOND
     1    1   14 1   
     2    1   16 1   
     3    1   17 1   
     4    1   18 1   
     5    2    8 1   
     6    3    5 1   
     7    4    9 1   
     8    4   19 1   
     9    4   21 1   
    10    5    9 1   
    11    5   22 1   
    12    6    7 1   
    13    6   24 1   
    14    6   29 1   
    15    7   27 1   
    16    7   28 1   
    17    8   20 1   
    18    8   31 1   
    19    9   14 1   
    20   10   23 1   
    21   10   30 1   
    22   10   31 1   
    23   11   15 1   
    24   12   15 1   
    25   13   15 1   
    26   25   31 1   
    27   26   31 1   
@<TRIPOS>SUBSTRUCTURE
     1 0H9         1 TEMP              0 ****  ****    0 ROOT
