@<TRIPOS>MOLECULE
0H9
   31    29     1     0     0
SMALL
bcc


@<TRIPOS>ATOM
      1 CAA         1.6740   -1.0990   -0.5090 c3        1 0H9     -0.075000
      2 CAE         3.9000    2.6410    9.2860 c1        1 0H9      0.182000
      3 CAF         4.4090   -1.3970    3.4560 c2        1 0H9      0.007000
      4 CAG         2.0900   -0.1350    2.0660 c2        1 0H9     -0.318000
      5 CAH         4.0380   -1.6930    2.1960 c2        1 0H9     -0.151000
      6 CAI         5.0560   -3.9620    5.5310 c2        1 0H9     -0.979000
      7 CAK         3.8360   -4.3740    5.8800 c2        1 0H9      0.025000
      8 CAN         3.4290    1.5810    8.6780 c2        1 0H9     -0.536000
      9 CAO         2.8860   -1.0820    1.5450 c2        1 0H9      0.076000
     10 NAL         3.0060    0.7110    6.3710 n8        1 0H9     -0.339000
     11 OAB         4.8080   -1.5690    6.2500 o         1 0H9     -0.935500
     12 OAC         7.0140   -2.4220    5.8120 o         1 0H9     -0.935500
     13 OAD         5.5480   -1.9690    3.9580 os        1 0H9     -0.642000
     14 OAM         2.7240   -1.6390    0.2810 os        1 0H9     -0.223000
     15 SAP         5.6570   -2.4370    5.5790 s6        1 0H9      2.863000
     16 H1          0.6830   -1.2820   -0.0250 h1        1 0H9      0.082000
     17 H2          1.7540   -1.6620   -1.4730 h1        1 0H9      0.082000
     18 H3          1.8270   -0.0050   -0.6770 h1        1 0H9      0.082000
     19 H4          1.2340    0.2920    1.5330 ha        1 0H9      0.131500
     20 H5          3.6310    0.5730    9.0900 ha        1 0H9      0.191000
     21 H6          2.2620    0.2710    3.0700 ha        1 0H9      0.131500
     22 H7          4.6140   -2.4100    1.5870 ha        1 0H9      0.161000
     23 H8          3.9050   -0.6830    4.1310 h4        1 0H9      0.160000
     24 H9          5.7670   -4.7320    5.1610 h4        1 0H9      0.195000
     25 H10         1.5400    1.3090    7.7270 h1        1 0H9      0.094000
     26 H11         2.5620    2.6390    7.0110 h1        1 0H9      0.094000
     27 H12         3.5250   -5.4290    5.8210 ha        1 0H9      0.132000
     28 H13         3.0650   -3.6790    6.2560 ha        1 0H9      0.132000
     29 H14         3.9350    0.9270    6.0610 hn        1 0H9      0.155500
     30 HAL2        2.9990   -0.2470    6.6690 hn        1 0H9      0.155500
     31 CAJ         2.5920    1.5910    7.4280 c3        1 0H9      0.005000
@<TRIPOS>BOND
     1    1   14 1   
     2    1   16 1   
     3    1   17 1   
     4    1   18 1   
     5    2    8 1   
     6    3    5 1   
     7    3   13 1   
     8    3   23 1   
     9    4    9 1   
    10    4   19 1   
    11    4   21 1   
    12    5    9 1   
    13    5   22 1   
    14    6    7 1   
    15    6   15 1   
    16    6   24 1   
    17    7   27 1   
    18    7   28 1   
    19    8   20 1   
    20    8   31 1   
    21    9   14 1   
    22   10   29 1   
    23   10   30 1   
    24   10   31 1   
    25   11   15 1   
    26   12   15 1   
    27   13   15 1   
    28   25   31 1   
    29   26   31 1   
@<TRIPOS>SUBSTRUCTURE
     1 0H9         1 TEMP              0 ****  ****    0 ROOT
