@<TRIPOS>MOLECULE
0H9
   31    28     1     0     0
SMALL
bcc


@<TRIPOS>ATOM
      1 CAA        -0.2670    1.3270    0.9100 c3        1 0H9     -0.074000
      2 CAE         0.9010   -2.1580    7.5750 c1        1 0H9      0.295000
      3 CAF         2.9320   -0.4270    2.9730 c1        1 0H9      0.150000
      4 CAG         1.9650    0.3950   -0.4990 c2        1 0H9     -0.291000
      5 CAH         2.9220   -0.2920    1.6700 c2        1 0H9     -0.368000
      6 CAI         7.4940   -3.0880    7.3530 c2        1 0H9     -0.885000
      7 CAK         7.8930   -4.3210    7.0620 c2        1 0H9     -0.052000
      8 CAN         1.3970   -1.2060    6.8110 c2        1 0H9     -0.551000
      9 CAO         1.8810    0.2960    0.8360 c2        1 0H9      0.102000
     10 NAL         3.5820   -1.0200    5.6850 n4        1 0H9     -0.128000
     11 OAB         5.3580   -3.2210    5.9380 o         1 0H9     -1.087000
     12 OAC         5.2410   -2.0210    7.9270 o         1 0H9     -1.087000
     13 OAD         6.3860   -1.1470    6.1100 o         1 0H9     -1.087000
     14 OAM         0.8160    0.7270    1.6140 os        1 0H9     -0.236000
     15 SAP         6.0830   -2.3550    6.8250 s6        1 0H9      2.857000
     16 H1          0.0760    2.2420    0.3700 h1        1 0H9      0.088333
     17 H2         -0.9910    1.5920    1.7220 h1        1 0H9      0.088333
     18 H3         -0.7210    0.5980    0.1960 h1        1 0H9      0.088333
     19 H4          1.1750    0.8400   -1.1150 ha        1 0H9      0.136000
     20 H5          0.7160   -0.7350    6.0700 ha        1 0H9      0.192000
     21 H6          2.8420    0.0300   -1.0450 ha        1 0H9      0.136000
     22 H7          3.8100   -0.6670    1.1070 ha        1 0H9      0.223000
     23 H8          4.5180   -0.5730    5.7570 hn        1 0H9      0.276667
     24 H9          8.1290   -2.4610    8.0030 h4        1 0H9      0.160000
     25 H10         2.7230    0.4740    6.9230 hx        1 0H9      0.161500
     26 H11         3.3340   -1.0310    7.7880 hx        1 0H9      0.161500
     27 H12         8.8310   -4.7540    7.4380 ha        1 0H9      0.114000
     28 H13         7.2980   -4.9890    6.4170 ha        1 0H9      0.114000
     29 H14         3.7380   -2.0460    5.6670 hn        1 0H9      0.276667
     30 HAL2        3.1320   -0.7320    4.7910 hn        1 0H9      0.276667
     31 CAJ         2.7730   -0.6520    6.8720 c3        1 0H9     -0.052000
@<TRIPOS>BOND
     1    1   14 1   
     2    1   16 1   
     3    1   17 1   
     4    1   18 1   
     5    2    8 1   
     6    3    5 1   
     7    4    9 1   
     8    4   19 1   
     9    4   21 1   
    10    5    9 1   
    11    5   22 1   
    12    6    7 1   
    13    6   15 1   
    14    6   24 1   
    15    7   27 1   
    16    7   28 1   
    17    8   20 1   
    18    8   31 1   
    19    9   14 1   
    20   10   23 1   
    21   10   29 1   
    22   10   30 1   
    23   10   31 1   
    24   11   15 1   
    25   12   15 1   
    26   13   15 1   
    27   25   31 1   
    28   26   31 1   
@<TRIPOS>SUBSTRUCTURE
     1 0H9         1 TEMP              0 ****  ****    0 ROOT
