@<TRIPOS>MOLECULE
0HD
   38    40     1     0     0
SMALL
bcc


@<TRIPOS>ATOM
      1 C10         0.7530   -0.7740    0.4520 ca        1 0HD     -0.117000
      2 N12        -2.4180   -2.9050    6.4480 n         1 0HD     -0.393100
      3 C13        -2.8790   -4.0450    7.1730 ca        1 0HD     -0.055400
      4 C15        -4.2060   -6.0220    7.3740 ca        1 0HD     -0.210900
      5 C20        -2.6190   -5.4170    9.1840 ca        1 0HD     -0.104000
      6 C21        -2.2790   -4.3040    8.4420 ca        1 0HD     -0.114000
      7 O01        -4.4170   -2.3710    5.3170 o         1 0HD     -0.486100
      8 C02        -3.2690   -2.1360    5.7060 c         1 0HD      0.633100
      9 N03        -2.7270   -0.7980    5.1610 n4        1 0HD     -0.674800
     10 C04        -1.5940   -0.9870    4.2110 c3        1 0HD      0.100800
     11 C05        -1.1940    0.3110    3.5060 c3        1 0HD     -0.047100
     12 C06        -0.0600    0.0260    2.5860 ca        1 0HD     -0.131300
     13 C07         1.2510    0.3360    2.9650 ca        1 0HD     -0.116500
     14 C08         2.3070    0.0880    2.0890 ca        1 0HD     -0.117000
     15 C09         2.0600   -0.4680    0.8330 ca        1 0HD     -0.098000
     16 C11        -0.3050   -0.5280    1.3230 ca        1 0HD     -0.116500
     17 C14        -3.8490   -4.9010    6.6360 ca        1 0HD     -0.028000
     18 C16        -3.5870   -6.2880    8.6580 ca        1 0HD     -0.036200
     19 N17        -4.1620   -7.4720    9.1220 na        1 0HD     -0.002100
     20 N18        -5.0660   -7.9570    8.2600 nc        1 0HD     -0.473100
     21 C19        -5.1340   -7.1320    7.1970 cd        1 0HD      0.360800
     22 H1          0.5560   -1.2060   -0.5420 ha        1 0HD      0.151500
     23 H2         -1.5270   -2.5500    6.7240 hn        1 0HD      0.342500
     24 H3         -2.1460   -5.6120   10.1580 ha        1 0HD      0.162000
     25 H4         -1.5220   -3.6130    8.8450 ha        1 0HD      0.139000
     26 H5         -2.4430   -0.1860    5.9300 hn        1 0HD      0.460300
     27 H6         -1.9120   -1.7510    3.4430 hx        1 0HD      0.109200
     28 H7         -0.7120   -1.3940    4.7820 hx        1 0HD      0.109200
     29 H8         -0.8930    1.0870    4.2610 hc        1 0HD      0.070200
     30 H9         -2.0630    0.7180    2.9220 hc        1 0HD      0.070200
     31 H10         1.4520    0.7880    3.9480 ha        1 0HD      0.132000
     32 H11         3.3370    0.3390    2.3880 ha        1 0HD      0.151500
     33 H12         2.8960   -0.6600    0.1410 ha        1 0HD      0.153000
     34 H13        -1.3350   -0.7580    1.0120 ha        1 0HD      0.132000
     35 H14        -4.3330   -4.7020    5.6660 ha        1 0HD      0.167000
     36 H15        -3.9700   -7.9460    9.9750 hn        1 0HD      0.343700
     37 H16        -5.8040   -7.3120    6.3530 h4        1 0HD      0.072800
     38 H032       -3.5140   -0.3500    4.6680 hn        1 0HD      0.460300
@<TRIPOS>BOND
     1    1   15 ar  
     2    1   16 ar  
     3    1   22 1   
     4    2    3 1   
     5    2    8 1   
     6    2   23 1   
     7    3    6 ar  
     8    3   17 ar  
     9    4   17 ar  
    10    4   18 ar  
    11    4   21 1   
    12    5    6 ar  
    13    5   18 ar  
    14    5   24 1   
    15    6   25 1   
    16    7    8 2   
    17    8    9 1   
    18    9   10 1   
    19    9   26 1   
    20    9   38 1   
    21   10   11 1   
    22   10   27 1   
    23   10   28 1   
    24   11   12 1   
    25   11   29 1   
    26   11   30 1   
    27   12   13 ar  
    28   12   16 ar  
    29   13   14 ar  
    30   13   31 1   
    31   14   15 ar  
    32   14   32 1   
    33   15   33 1   
    34   16   34 1   
    35   17   35 1   
    36   18   19 1   
    37   19   20 1   
    38   19   36 1   
    39   20   21 2   
    40   21   37 1   
@<TRIPOS>SUBSTRUCTURE
     1 0HD         1 TEMP              0 ****  ****    0 ROOT
