@<TRIPOS>MOLECULE
0HD
   39    41     1     0     0
SMALL
bcc


@<TRIPOS>ATOM
      1 C10        -0.5860    1.9280    2.2960 ca        1 0HD     -0.111000
      2 N12        -3.4140   -4.8820    4.7200 n4        1 0HD     -0.473200
      3 C13        -3.4800   -4.6750    6.1610 ca        1 0HD     -0.223400
      4 C15        -3.3260   -5.5370    8.3800 ca        1 0HD     -0.233900
      5 C20        -4.1710   -3.2180    7.9960 ca        1 0HD     -0.078000
      6 C21        -3.9890   -3.4310    6.6490 ca        1 0HD     -0.125000
      7 O01        -1.6450   -5.1860    3.1800 o         1 0HD     -0.304100
      8 C02        -2.0720   -4.5470    4.1280 c         1 0HD      0.472100
      9 N03        -1.2870   -3.4370    4.7290 n4        1 0HD     -0.643800
     10 C04        -1.0650   -2.3140    3.7300 c3        1 0HD      0.108800
     11 C05        -0.1070   -1.2550    4.2810 c3        1 0HD     -0.038100
     12 C06         0.0440   -0.2120    3.2300 ca        1 0HD     -0.159300
     13 C07         1.0250   -0.3530    2.2400 ca        1 0HD     -0.111000
     14 C08         1.1970    0.6450    1.2840 ca        1 0HD     -0.111000
     15 C09         0.3920    1.7860    1.3090 ca        1 0HD     -0.076000
     16 C11        -0.7620    0.9330    3.2550 ca        1 0HD     -0.111000
     17 C14        -3.1600   -5.7410    7.0260 ca        1 0HD      0.029000
     18 C16        -3.8450   -4.2660    8.8870 ca        1 0HD      0.000800
     19 N17        -3.9100   -4.4030   10.2590 na        1 0HD      0.045900
     20 N18        -3.4970   -5.6180   10.6640 nc        1 0HD     -0.428100
     21 C19        -3.1330   -6.3380    9.5870 cd        1 0HD      0.402800
     22 H1         -1.2130    2.8350    2.3230 ha        1 0HD      0.164000
     23 H2         -4.1340   -4.3020    4.2520 hn        1 0HD      0.507300
     24 H3         -4.5810   -2.2630    8.3700 ha        1 0HD      0.195000
     25 H4         -4.2880   -2.6360    5.9450 ha        1 0HD      0.154000
     26 H5         -0.3600   -3.8170    4.9980 hn        1 0HD      0.495300
     27 H6         -0.6340   -2.7710    2.7910 hx        1 0HD      0.124200
     28 H7         -2.0680   -1.8540    3.5040 hx        1 0HD      0.124200
     29 H8         -0.5180   -0.8010    5.2220 hc        1 0HD      0.079200
     30 H9          0.8930   -1.7100    4.5160 hc        1 0HD      0.079200
     31 H10         1.6770   -1.2400    2.2260 ha        1 0HD      0.131000
     32 H11         1.9770    0.5380    0.5110 ha        1 0HD      0.164000
     33 H12         0.5340    2.5780    0.5550 ha        1 0HD      0.168000
     34 H13        -1.5200    1.0620    4.0420 ha        1 0HD      0.131000
     35 H14        -2.8000   -6.7180    6.6560 ha        1 0HD      0.175000
     36 H15        -4.2470   -3.7390   10.9310 hn        1 0HD      0.373700
     37 H16        -2.7630   -7.3670    9.6620 h4        1 0HD      0.101800
     38 H122       -3.6040   -5.8800    4.4960 hn        1 0HD      0.507300
     39 H032       -1.7390   -3.0630    5.5800 hn        1 0HD      0.495300
@<TRIPOS>BOND
     1    1   15 ar  
     2    1   16 ar  
     3    1   22 1   
     4    2    3 1   
     5    2    8 1   
     6    2   23 1   
     7    2   38 1   
     8    3    6 ar  
     9    3   17 ar  
    10    4   17 ar  
    11    4   18 ar  
    12    4   21 1   
    13    5    6 ar  
    14    5   18 ar  
    15    5   24 1   
    16    6   25 1   
    17    7    8 2   
    18    8    9 1   
    19    9   10 1   
    20    9   26 1   
    21    9   39 1   
    22   10   11 1   
    23   10   27 1   
    24   10   28 1   
    25   11   12 1   
    26   11   29 1   
    27   11   30 1   
    28   12   13 ar  
    29   12   16 ar  
    30   13   14 ar  
    31   13   31 1   
    32   14   15 ar  
    33   14   32 1   
    34   15   33 1   
    35   16   34 1   
    36   17   35 1   
    37   18   19 1   
    38   19   20 1   
    39   19   36 1   
    40   20   21 2   
    41   21   37 1   
@<TRIPOS>SUBSTRUCTURE
     1 0HD         1 TEMP              0 ****  ****    0 ROOT
