@<TRIPOS>MOLECULE
0HD
   37    30     1     0     0
SMALL
bcc


@<TRIPOS>ATOM
      1 C10         1.7820    2.8070   -5.3860 c1        1 0HD     -0.129000
      2 N12        -0.9630   -0.0380    1.9890 n         1 0HD     -0.307000
      3 C13        -1.2360   -1.2800    2.6600 c1        1 0HD      0.038000
      4 C15        -2.9340   -2.6580    3.7130 c1        1 0HD     -0.068500
      5 C20        -0.6730   -3.4490    3.5300 c1        1 0HD     -0.119500
      6 C21        -0.2970   -2.2710    2.8910 c1        1 0HD     -0.096000
      7 O01         0.1570   -1.0790    0.2990 o         1 0HD     -0.381000
      8 C02        -0.2320   -0.0370    0.7700 c2        1 0HD      0.367000
      9 N03        -0.0330    1.1800    0.0610 n         1 0HD     -0.343000
     10 C04         0.5570    1.1570   -1.2650 c3        1 0HD     -0.041000
     11 C05         1.0460    2.5720   -1.6340 c3        1 0HD     -0.156000
     12 C06         1.7910    2.5250   -2.9930 c2        1 0HD     -0.075000
     13 C07         3.1630    2.3080   -3.0250 c1        1 0HD     -0.124000
     14 C08         3.8460    2.3410   -4.2380 c1        1 0HD     -0.128500
     15 C09         3.1540    2.5910   -5.4180 c1        1 0HD     -0.128500
     16 C11         1.1000    2.7740   -4.1740 c2        1 0HD     -0.127000
     17 C14        -2.5530   -1.4620    3.0650 c1        1 0HD     -0.119500
     18 C16        -2.0110   -3.6340    3.9410 c1        1 0HD     -0.068500
     19 N17        -2.6530   -4.6980    4.5240 n1        1 0HD     -0.190000
     20 N18        -3.9860   -4.3720    4.6560 n2        1 0HD     -0.044000
     21 C19        -4.1640   -3.1220    4.1600 c1        1 0HD     -0.156000
     22 H1          1.2950    2.9830   -6.2190 ha        1 0HD      0.131000
     23 H2         -1.3210    0.7400    2.3080 hn        1 0HD      0.216000
     24 H3         -0.0110   -4.1510    3.6940 ha        1 0HD      0.140000
     25 H4          0.6250   -2.1570    2.5760 ha        1 0HD      0.171000
     26 H5         -0.3210    1.9720    0.4200 hn        1 0HD      0.201000
     27 H6         -0.1110    0.8640   -1.9130 h1        1 0HD      0.113500
     28 H7          1.3160    0.5360   -1.2740 h1        1 0HD      0.113500
     29 H8          1.6550    2.8990   -0.9390 hc        1 0HD      0.093000
     30 H9          0.2760    3.1760   -1.7060 hc        1 0HD      0.093000
     31 H10         3.6500    2.1330   -2.1950 ha        1 0HD      0.141000
     32 H11         4.8130    2.1880   -4.2600 ha        1 0HD      0.132500
     33 H12         3.6340    2.6140   -6.2720 ha        1 0HD      0.132500
     34 H13         0.1320    2.9270   -4.1520 ha        1 0HD      0.129000
     35 H14        -3.2150   -0.7610    2.9040 ha        1 0HD      0.140000
     36 H15        -2.2650   -5.4860    4.7810 DU        1 0HD      0.224500
     37 H16        -5.0140   -2.6320    4.1230 DU        1 0HD      0.224500
@<TRIPOS>BOND
     1    1   16 1   
     2    1   22 1   
     3    2    3 1   
     4    2    8 1   
     5    2   23 1   
     6    3    6 1   
     7    4   17 1   
     8    5   18 1   
     9    5   24 1   
    10    6   25 1   
    11    7    8 1   
    12    8    9 1   
    13    9   10 1   
    14    9   26 1   
    15   10   11 1   
    16   10   27 1   
    17   10   28 1   
    18   11   12 1   
    19   11   29 1   
    20   11   30 1   
    21   12   13 1   
    22   12   16 1   
    23   13   31 1   
    24   14   15 1   
    25   14   32 1   
    26   15   33 1   
    27   16   34 1   
    28   17   35 1   
    29   19   20 1   
    30   20   21 1   
@<TRIPOS>SUBSTRUCTURE
     1 0HD         1 TEMP              0 ****  ****    0 ROOT
