@<TRIPOS>MOLECULE
0HD
   37    39     1     0     0
SMALL
bcc


@<TRIPOS>ATOM
      1 C10         5.6910    1.9590    0.1340 ca        1 0HD     -0.128000
      2 N12        -1.1540   -1.5360   -0.2600 n         1 0HD     -0.453100
      3 C13        -2.4260   -0.9420   -0.0990 ca        1 0HD      0.023600
      4 C15        -3.8790    0.7580    0.7660 ca        1 0HD     -0.194900
      5 C20        -4.8560   -1.1810   -0.4100 ca        1 0HD     -0.118000
      6 C21        -3.5640   -1.6450   -0.5940 ca        1 0HD     -0.141000
      7 O01         0.0420    0.4650   -0.3380 o         1 0HD     -0.619100
      8 C02         0.0080   -0.7740   -0.5210 c         1 0HD      0.740100
      9 N03         1.1450   -1.4590   -1.0150 n         1 0HD     -0.533900
     10 C04         2.4150   -0.7770   -0.9890 c3        1 0HD      0.075000
     11 C05         3.1780   -0.8610    0.3390 c3        1 0HD     -0.070100
     12 C06         4.4700   -0.1310    0.2410 ca        1 0HD     -0.081300
     13 C07         5.6810   -0.8290    0.1880 ca        1 0HD     -0.125500
     14 C08         6.8890   -0.1360    0.1080 ca        1 0HD     -0.128000
     15 C09         6.8960    1.2580    0.0800 ca        1 0HD     -0.130000
     16 C11         4.4830    1.2700    0.2150 ca        1 0HD     -0.125500
     17 C14        -2.5910    0.2720    0.5910 ca        1 0HD     -0.065000
     18 C16        -5.0220    0.0310    0.2690 ca        1 0HD     -0.077200
     19 N17        -6.1620    0.7540    0.6810 na        1 0HD     -0.014100
     20 N18        -5.8060    1.9020    1.2850 nc        1 0HD     -0.515100
     21 C19        -4.4670    1.9360    1.4020 cd        1 0HD      0.354800
     22 H1          5.6930    3.0590    0.1130 ha        1 0HD      0.132000
     23 H2         -1.1840   -2.4560   -0.6460 hn        1 0HD      0.302500
     24 H3         -5.7170   -1.7460   -0.7900 ha        1 0HD      0.140000
     25 H4         -3.4240   -2.5930   -1.1380 ha        1 0HD      0.130000
     26 H5          1.2000   -2.4340   -0.8130 hn        1 0HD      0.286500
     27 H6          3.0430   -1.2390   -1.8030 h1        1 0HD      0.074200
     28 H7          2.2460    0.3090   -1.2410 h1        1 0HD      0.074200
     29 H8          2.5550   -0.4070    1.1560 hc        1 0HD      0.053700
     30 H9          3.3610   -1.9350    0.6100 hc        1 0HD      0.053700
     31 H10         5.6820   -1.9290    0.2130 ha        1 0HD      0.135000
     32 H11         7.8370   -0.6920    0.0680 ha        1 0HD      0.132000
     33 H12         7.8480    1.8030    0.0170 ha        1 0HD      0.131000
     34 H13         3.5320    1.8230    0.2590 ha        1 0HD      0.135000
     35 H14        -1.7250    0.8370    0.9730 ha        1 0HD      0.176000
     36 H15        -7.0470    0.7080    0.2300 hn        1 0HD      0.311700
     37 H16        -3.9370    2.7430    1.9080 h4        1 0HD      0.057800
@<TRIPOS>BOND
     1    1   15 ar  
     2    1   16 ar  
     3    1   22 1   
     4    2    3 1   
     5    2    8 1   
     6    2   23 1   
     7    3    6 ar  
     8    3   17 ar  
     9    4   17 ar  
    10    4   18 ar  
    11    4   21 1   
    12    5    6 ar  
    13    5   18 ar  
    14    5   24 1   
    15    6   25 1   
    16    7    8 2   
    17    8    9 1   
    18    9   10 1   
    19    9   26 1   
    20   10   11 1   
    21   10   27 1   
    22   10   28 1   
    23   11   12 1   
    24   11   29 1   
    25   11   30 1   
    26   12   13 ar  
    27   12   16 ar  
    28   13   14 ar  
    29   13   31 1   
    30   14   15 ar  
    31   14   32 1   
    32   15   33 1   
    33   16   34 1   
    34   17   35 1   
    35   18   19 1   
    36   19   20 1   
    37   19   36 1   
    38   20   21 2   
    39   21   37 1   
@<TRIPOS>SUBSTRUCTURE
     1 0HD         1 TEMP              0 ****  ****    0 ROOT
