@<TRIPOS>MOLECULE
0HD
   38    40     1     0     0
SMALL
bcc


@<TRIPOS>ATOM
      1 C10         1.3190   -0.9780    0.8750 ca        1 0HD     -0.117000
      2 N12        -2.8150   -2.6560    6.5090 ns        1 0HD     -0.392100
      3 C13        -3.0310   -3.9420    7.0900 ca        1 0HD     -0.056400
      4 C15        -4.4600   -5.7100    7.8270 ca        1 0HD     -0.210900
      5 C20        -2.0160   -5.8510    8.2390 ca        1 0HD     -0.105000
      6 C21        -1.8920   -4.6330    7.6030 ca        1 0HD     -0.114000
      7 O01        -4.5340   -2.7100    4.8940 o         1 0HD     -0.485100
      8 C02        -3.5150   -2.2420    5.4110 c         1 0HD      0.633100
      9 N03        -3.0740   -0.9220    4.7450 ny        1 0HD     -0.675800
     10 C04        -1.7460   -1.0430    4.0820 c3        1 0HD      0.100800
     11 C05        -1.3910    0.1860    3.2420 c3        1 0HD     -0.046100
     12 C06        -0.0520   -0.0250    2.6260 ca        1 0HD     -0.132300
     13 C07         1.0830    0.5730    3.1850 ca        1 0HD     -0.116500
     14 C08         2.3310    0.3920    2.5900 ca        1 0HD     -0.117000
     15 C09         2.4510   -0.3840    1.4360 ca        1 0HD     -0.098000
     16 C11         0.0700   -0.7990    1.4660 ca        1 0HD     -0.116500
     17 C14        -4.3200   -4.4810    7.1960 ca        1 0HD     -0.028000
     18 C16        -3.3030   -6.4040    8.3570 ca        1 0HD     -0.036200
     19 N17        -3.7880   -7.5870    8.9170 na        1 0HD     -0.002100
     20 N18        -5.1170   -7.6880    8.7870 nc        1 0HD     -0.473100
     21 C19        -5.5730   -6.5960    8.1420 cd        1 0HD      0.360800
     22 H1          1.4110   -1.5830   -0.0410 ha        1 0HD      0.151500
     23 H2         -1.9520   -2.2150    6.7510 hn        1 0HD      0.341500
     24 H3         -1.1330   -6.3730    8.6370 ha        1 0HD      0.162000
     25 H4         -0.8880   -4.1900    7.5040 ha        1 0HD      0.139000
     26 H5         -3.7910   -0.7050    4.0360 hn        1 0HD      0.461800
     27 H6         -1.7710   -1.9570    3.4190 hx        1 0HD      0.106700
     28 H7         -0.9620   -1.1940    4.8780 hx        1 0HD      0.106700
     29 H8         -2.1590    0.3380    2.4360 hc        1 0HD      0.071200
     30 H9         -1.3800    1.1070    3.8850 hc        1 0HD      0.071200
     31 H10         0.9930    1.1980    4.0860 ha        1 0HD      0.132000
     32 H11         3.2210    0.8690    3.0280 ha        1 0HD      0.151500
     33 H12         3.4370   -0.5220    0.9650 ha        1 0HD      0.154000
     34 H13        -0.8210   -1.2570    1.0110 ha        1 0HD      0.132000
     35 H14        -5.2050   -3.9660    6.7870 ha        1 0HD      0.166000
     36 H15        -3.2670   -8.3000    9.3740 hn        1 0HD      0.343700
     37 H16        -6.6300   -6.4450    7.9140 h4        1 0HD      0.072800
     38 H032       -3.0580   -0.1590    5.4270 hn        1 0HD      0.461800
@<TRIPOS>BOND
     1    1   15 ar  
     2    1   16 ar  
     3    1   22 1   
     4    2    3 1   
     5    2    8 1   
     6    2   23 1   
     7    3    6 ar  
     8    3   17 ar  
     9    4   17 ar  
    10    4   18 ar  
    11    4   21 1   
    12    5    6 ar  
    13    5   18 ar  
    14    5   24 1   
    15    6   25 1   
    16    7    8 2   
    17    8    9 1   
    18    9   10 1   
    19    9   26 1   
    20    9   38 1   
    21   10   11 1   
    22   10   27 1   
    23   10   28 1   
    24   11   12 1   
    25   11   29 1   
    26   11   30 1   
    27   12   13 ar  
    28   12   16 ar  
    29   13   14 ar  
    30   13   31 1   
    31   14   15 ar  
    32   14   32 1   
    33   15   33 1   
    34   16   34 1   
    35   17   35 1   
    36   18   19 1   
    37   19   20 1   
    38   19   36 1   
    39   20   21 2   
    40   21   37 1   
@<TRIPOS>SUBSTRUCTURE
     1 0HD         1 TEMP              0 ****  ****    0 ROOT
