@<TRIPOS>MOLECULE
0HG
   49    46     1     0     0
SMALL
bcc


@<TRIPOS>ATOM
      1 N          -4.1170   -1.7160    4.4400 n4        1 0HG     -0.831600
      2 CA         -2.8420   -1.7190    3.7910 c3        1 0HG     -0.044500
      3 C          -1.7660   -1.9400    4.8070 c         1 0HG      0.923600
      4 O          -0.9770   -2.9250    4.6890 o         1 0HG     -0.789800
      5 CB         -2.6210   -0.3780    3.0990 c3        1 0HG     -0.081400
      6 CG         -2.0130   -0.6150    1.6900 c3        1 0HG     -0.150400
      7 CD         -1.4160    0.6990    1.1660 c         1 0HG      0.661100
      8 OE1        -1.1180    1.5810    1.9440 o         1 0HG     -0.634100
      9 OXT        -1.5970   -1.1050    5.7390 o         1 0HG     -0.789800
     10 CA1        -0.1690    1.8470   -0.6720 c3        1 0HG      0.011700
     11 C1         -0.9250    3.0520   -1.1600 c         1 0HG      0.615100
     12 O1         -0.8680    4.0730   -0.5550 o         1 0HG     -0.561100
     13 N1         -1.0990    0.8390   -0.2410 n         1 0HG     -0.575900
     14 CB1         0.6900    1.2950   -1.7910 c3        1 0HG     -0.025300
     15 SG          2.0850    0.4380   -1.0950 ss        1 0HG     -0.300200
     16 BR          7.0240   -4.4190    0.1120 br        1 0HG     -0.206800
     17 C11         3.9130   -1.4510   -1.7170 c1        1 0HG     -0.017100
     18 C2          5.2520   -1.3730   -2.0860 c1        1 0HG     -0.062000
     19 C3          6.1640   -2.2730   -1.5670 c1        1 0HG     -0.062000
     20 C4          5.7470   -3.2510   -0.6820 c1        1 0HG      0.066800
     21 C5          4.4130   -3.3280   -0.3140 c1        1 0HG     -0.048500
     22 C6          3.4960   -2.4250   -0.8340 c1        1 0HG     -0.047500
     23 C7          2.8900   -0.5120   -2.3590 c3        1 0HG     -0.007200
     24 N2         -1.7550    2.9520   -2.2980 n         1 0HG     -0.502900
     25 CA2        -2.5040    4.1000   -2.7490 c3        1 0HG     -0.043000
     26 C8         -2.6370    4.0560   -4.2590 c         1 0HG      0.878600
     27 O2         -1.8480    4.7250   -4.9810 o         1 0HG     -0.863300
     28 OXT1       -3.5920    3.4210   -4.7890 o         1 0HG     -0.863300
     29 H          -4.7740   -1.5090    3.8260 hn        1 0HG      0.461467
     30 H2         -4.2820   -2.5580    4.8010 hn        1 0HG      0.461467
     31 HA         -2.8160   -2.4360    3.1280 hx        1 0HG      0.068700
     32 HB2        -2.0030    0.1710    3.6350 hc        1 0HG      0.086200
     33 HB3        -3.4860    0.0920    3.0090 hc        1 0HG      0.086200
     34 HG2        -2.7120   -0.9210    1.0810 hc        1 0HG      0.066200
     35 HG3        -1.3180   -1.2850    1.7460 hc        1 0HG      0.066200
     36 H3         -4.1170   -1.0910    5.1090 hn        1 0HG      0.461467
     37 HA1         0.3950    2.1010    0.0690 h1        1 0HG      0.123700
     38 H1         -1.4930    0.2740   -0.8630 hn        1 0HG      0.351500
     39 HB21        1.0090    2.0370   -2.3590 h1        1 0HG      0.082200
     40 HB31        0.1600    0.6720   -2.3330 h1        1 0HG      0.082200
     41 HC2         5.5440   -0.6910   -2.7040 ha        1 0HG      0.079000
     42 H31         7.1020   -2.2190   -1.8270 ha        1 0HG      0.079000
     43 H5          4.1200   -4.0130    0.3060 ha        1 0HG      0.089500
     44 H6          2.5680   -2.4790   -0.5790 ha        1 0HG      0.122500
     45 H71         3.3440    0.0910   -2.9780 h1        1 0HG      0.080700
     46 H72         2.2300   -1.0340   -2.8420 h1        1 0HG      0.080700
     47 H4         -1.8500    2.1360   -2.7310 hn        1 0HG      0.278500
     48 HA2        -2.0330    4.9230   -2.4840 h1        1 0HG      0.072700
     49 HA3        -3.3990    4.0900   -2.3410 h1        1 0HG      0.072700
@<TRIPOS>BOND
     1    1    2 1   
     2    1   29 1   
     3    1   30 1   
     4    1   36 1   
     5    2    3 1   
     6    2    5 1   
     7    2   31 1   
     8    3    4 1   
     9    3    9 1   
    10    5    6 1   
    11    5   32 1   
    12    5   33 1   
    13    6    7 1   
    14    6   34 1   
    15    6   35 1   
    16    7    8 2   
    17    7   13 1   
    18   10   11 1   
    19   10   13 1   
    20   10   14 1   
    21   10   37 1   
    22   11   12 2   
    23   11   24 1   
    24   13   38 1   
    25   14   15 1   
    26   14   39 1   
    27   14   40 1   
    28   15   23 1   
    29   16   20 1   
    30   17   22 3   
    31   17   23 1   
    32   18   19 3   
    33   18   41 1   
    34   19   42 1   
    35   20   21 3   
    36   21   43 1   
    37   22   44 1   
    38   23   45 1   
    39   23   46 1   
    40   24   25 1   
    41   24   47 1   
    42   25   26 1   
    43   25   48 1   
    44   25   49 1   
    45   26   27 1   
    46   26   28 1   
@<TRIPOS>SUBSTRUCTURE
     1 0HG         1 TEMP              0 ****  ****    0 ROOT
