@<TRIPOS>MOLECULE
0HG
   49    49     1     0     0
SMALL
bcc


@<TRIPOS>ATOM
      1 N          -5.3050   -1.9030   -0.5560 n4        1 0HG     -0.835600
      2 CA         -5.0990   -3.3000   -1.0380 c3        1 0HG     -0.056500
      3 C          -6.5070   -4.0260   -1.2440 c         1 0HG      0.930600
      4 O          -7.5250   -3.3310   -0.9840 o         1 0HG     -0.778300
      5 CB         -4.2460   -4.1460   -0.1060 c3        1 0HG     -0.084400
      6 CG         -2.7730   -3.7990   -0.1370 c3        1 0HG     -0.163400
      7 CD         -2.4900   -2.4970    0.5910 c         1 0HG      0.645100
      8 OE1        -3.1740   -2.1530    1.5820 o         1 0HG     -0.635100
      9 OXT        -6.4460   -5.2000   -1.6560 o         1 0HG     -0.778300
     10 CA1        -1.2850   -0.3550    0.5840 c3        1 0HG      0.018700
     11 C1         -2.3780    0.5630   -0.0390 c         1 0HG      0.645100
     12 O1         -3.3000    0.0640   -0.7300 o         1 0HG     -0.708100
     13 N1         -1.4140   -1.7360    0.1630 n         1 0HG     -0.517900
     14 CB1         0.0980    0.2150    0.2480 c3        1 0HG     -0.041300
     15 SG          0.7130    1.0620    1.6790 ss        1 0HG     -0.335200
     16 BR          6.6550    1.9850   -2.0720 br        1 0HG     -0.123100
     17 C11         2.6520    2.4230    0.3040 ca        1 0HG     -0.065300
     18 C2          2.6660    2.5820   -1.0890 ca        1 0HG     -0.117000
     19 C3          3.8590    2.4500   -1.7970 ca        1 0HG     -0.116500
     20 C4          5.0470    2.1620   -1.1200 ca        1 0HG     -0.027900
     21 C5          5.0410    2.0070    0.2690 ca        1 0HG     -0.116500
     22 C6          3.8480    2.1380    0.9750 ca        1 0HG     -0.117000
     23 C7          1.3820    2.5810    1.0440 c3        1 0HG      0.021000
     24 CA2        -2.7630    2.8900   -0.6790 c3        1 0HG     -0.077000
     25 C8         -1.6000    3.4540   -1.5450 c         1 0HG      0.901600
     26 O2         -0.4570    2.9060   -1.4500 o         1 0HG     -0.839800
     27 OXT1       -1.8640    4.4280   -2.2900 o         1 0HG     -0.839800
     28 H          -4.8700   -1.7520    0.3590 hn        1 0HG      0.459467
     29 H2         -4.9140   -1.2260   -1.2150 hn        1 0HG      0.459467
     30 HA         -4.6170   -3.2430   -2.0540 hx        1 0HG      0.082700
     31 HB2        -4.6280   -4.0810    0.9480 hc        1 0HG      0.091700
     32 HB3        -4.3790   -5.2120   -0.4490 hc        1 0HG      0.091700
     33 HG2        -2.1930   -4.6040    0.3900 hc        1 0HG      0.069700
     34 HG3        -2.4140   -3.7600   -1.1980 hc        1 0HG      0.069700
     35 H3         -6.3300   -1.7570   -0.4780 hn        1 0HG      0.459467
     36 HA1        -1.4440   -0.3380    1.7080 h1        1 0HG      0.111700
     37 H1         -1.0520   -1.9350   -0.7430 hn        1 0HG      0.304500
     38 HB21        0.8240   -0.5940   -0.0100 h1        1 0HG      0.109700
     39 HB31        0.0500    0.9210   -0.6290 h1        1 0HG      0.109700
     40 HC2         1.7190    2.8170   -1.6210 ha        1 0HG      0.172000
     41 H31         3.8530    2.5790   -2.8910 ha        1 0HG      0.140000
     42 H5          5.9720    1.7820    0.8100 ha        1 0HG      0.140000
     43 H6          3.8440    2.0100    2.0680 ha        1 0HG      0.172000
     44 H71         0.6170    3.0810    0.3830 h1        1 0HG      0.109700
     45 H72         1.5340    3.2060    1.9610 h1        1 0HG      0.109700
     46 H4         -1.4990    2.1770    0.7670 hn        1 0HG      0.301500
     47 HA2        -3.5320    2.4480   -1.3670 h1        1 0HG      0.061200
     48 HA3        -3.2310    3.7400   -0.1120 h1        1 0HG      0.061200
     49 N2         -2.3420    1.9000    0.2920 n         1 0HG     -0.472900
@<TRIPOS>BOND
     1    1    2 1   
     2    1   28 1   
     3    1   29 1   
     4    1   35 1   
     5    2    3 1   
     6    2    5 1   
     7    2   30 1   
     8    3    4 1   
     9    3    9 1   
    10    5    6 1   
    11    5   31 1   
    12    5   32 1   
    13    6    7 1   
    14    6   33 1   
    15    6   34 1   
    16    7    8 2   
    17    7   13 1   
    18   10   11 1   
    19   10   13 1   
    20   10   14 1   
    21   10   36 1   
    22   11   12 2   
    23   11   49 1   
    24   13   37 1   
    25   14   15 1   
    26   14   38 1   
    27   14   39 1   
    28   15   23 1   
    29   16   20 1   
    30   17   18 ar  
    31   17   22 ar  
    32   17   23 1   
    33   18   19 ar  
    34   18   40 1   
    35   19   20 ar  
    36   19   41 1   
    37   20   21 ar  
    38   21   22 ar  
    39   21   42 1   
    40   22   43 1   
    41   23   44 1   
    42   23   45 1   
    43   24   25 1   
    44   24   47 1   
    45   24   48 1   
    46   24   49 1   
    47   25   26 1   
    48   25   27 1   
    49   46   49 1   
@<TRIPOS>SUBSTRUCTURE
     1 0HG         1 TEMP              0 ****  ****    0 ROOT
