@<TRIPOS>MOLECULE
0HH
   62    61     1     0     0
SMALL
bcc


@<TRIPOS>ATOM
      1 N           4.7830    5.4210    5.8700 n3        1 0HH     -0.894800
      2 CA          4.0500    5.4690    4.6510 c3        1 0HH      0.020500
      3 C           3.5860    6.8850    4.3990 c         1 0HH      0.888600
      4 O           2.8640    7.4720    5.2470 o         1 0HH     -0.845800
      5 CB          2.8510    4.5550    4.7480 c3        1 0HH     -0.063400
      6 CG          3.1480    3.2560    4.0330 c3        1 0HH     -0.145400
      7 CD          1.8500    2.5460    3.7170 c         1 0HH      0.663100
      8 OE1         0.8230    3.1840    3.5950 o         1 0HH     -0.642100
      9 OXT         3.9270    7.4810    3.3430 o         1 0HH     -0.845800
     10 N1          1.8380    1.1400    3.5300 n         1 0HH     -0.562900
     11 CA1         0.6590    0.4950    3.0720 c3        1 0HH      0.039700
     12 CB1         0.8720   -0.0030    1.6600 c3        1 0HH     -0.021300
     13 SG         -0.6990   -0.2930    0.8920 ss        1 0HH     -0.348200
     14 C1          0.3410   -0.6750    3.9760 c         1 0HH      0.614100
     15 O1          1.0610   -1.6540    3.9790 o         1 0HH     -0.652100
     16 C11        -0.5070   -0.2820   -0.8710 c3        1 0HH     -0.022300
     17 C2         -1.5540   -1.1750   -1.4980 c3        1 0HH     -0.050400
     18 C3         -1.5970   -0.9310   -2.9900 c3        1 0HH     -0.101400
     19 C4         -2.0520   -2.1900   -3.6950 c3        1 0HH     -0.068400
     20 C5         -2.1000   -1.9430   -5.1870 c3        1 0HH     -0.082400
     21 C6         -2.2570   -3.2620   -5.9110 c3        1 0HH     -0.076400
     22 C7         -2.2110   -3.0260   -7.4040 c3        1 0HH     -0.080400
     23 C8         -2.1740   -4.3560   -8.1240 c3        1 0HH     -0.080400
     24 C9         -2.0110   -4.1210   -9.6100 c3        1 0HH     -0.090100
     25 N2         -0.8120   -0.6400    4.8030 n         1 0HH     -0.505900
     26 CA2        -1.1470   -1.7670    5.6030 c3        1 0HH     -0.060000
     27 CC         -2.3530   -1.4390    6.4550 c         1 0HH      0.901600
     28 O2         -2.1980   -1.0180    7.6320 o         1 0HH     -0.845800
     29 OXT1       -3.5130   -1.5840    5.9870 o         1 0HH     -0.845800
     30 H           5.5900    5.0110    5.7250 hn        1 0HH      0.331300
     31 H2          4.9240    6.2730    6.1750 hn        1 0HH      0.331300
     32 HA          4.6230    5.1780    3.9150 h1        1 0HH      0.040700
     33 HB2         2.0770    4.9870    4.3330 hc        1 0HH      0.055200
     34 HB3         2.6560    4.3720    5.6890 hc        1 0HH      0.055200
     35 HG2         3.6990    2.6870    4.6060 hc        1 0HH      0.064700
     36 HG3         3.6270    3.4440    3.2010 hc        1 0HH      0.064700
     37 H1          2.5940    0.6530    3.6830 hn        1 0HH      0.326500
     38 HA1        -0.0860    1.1290    3.0850 h1        1 0HH      0.110700
     39 HB21        1.3840   -0.8360    1.6820 h1        1 0HH      0.083700
     40 HB31        1.3650    0.6700    1.1480 h1        1 0HH      0.083700
     41 H11        -0.6140    0.6310   -1.2040 h1        1 0HH      0.090200
     42 H12         0.3850   -0.6110   -1.1030 h1        1 0HH      0.090200
     43 H21        -1.3290   -2.1120   -1.3270 hc        1 0HH      0.033200
     44 H22        -2.4290   -0.9740   -1.1090 hc        1 0HH      0.033200
     45 H31        -2.2240   -0.2050   -3.1840 hc        1 0HH      0.076200
     46 H32        -0.7050   -0.6840   -3.3060 hc        1 0HH      0.076200
     47 H41        -2.9420   -2.4390   -3.3760 hc        1 0HH      0.024700
     48 H42        -1.4230   -2.9150   -3.5050 hc        1 0HH      0.024700
     49 H51        -1.2710   -1.5110   -5.4730 hc        1 0HH      0.049200
     50 H52        -2.8600   -1.3640   -5.3970 hc        1 0HH      0.049200
     51 H61        -3.1150   -3.6660   -5.6710 hc        1 0HH      0.031200
     52 H62        -1.5300   -3.8640   -5.6530 hc        1 0HH      0.031200
     53 H71        -3.0060   -2.5280   -7.6800 hc        1 0HH      0.041700
     54 H72        -1.4100   -2.5120   -7.6290 hc        1 0HH      0.041700
     55 H81        -3.0100   -4.8390   -7.9610 hc        1 0HH      0.033700
     56 H82        -1.4220   -4.8860   -7.7930 hc        1 0HH      0.033700
     57 H91        -1.2070   -3.5840   -9.7690 hc        1 0HH      0.027033
     58 H92        -1.9240   -4.9830  -10.0690 hc        1 0HH      0.027033
     59 H93        -2.7950   -3.6460   -9.9540 hc        1 0HH      0.027033
     60 H3         -1.3430    0.1010    4.8130 hn        1 0HH      0.321500
     61 HA2        -1.3540   -2.5290    5.0240 h1        1 0HH      0.048200
     62 HA3        -0.3900   -1.9930    6.1820 h1        1 0HH      0.048200
@<TRIPOS>BOND
     1    1    2 1   
     2    1   30 1   
     3    1   31 1   
     4    2    3 1   
     5    2    5 1   
     6    2   32 1   
     7    3    4 1   
     8    3    9 1   
     9    5    6 1   
    10    5   33 1   
    11    5   34 1   
    12    6    7 1   
    13    6   35 1   
    14    6   36 1   
    15    7    8 2   
    16    7   10 1   
    17   10   11 1   
    18   10   37 1   
    19   11   12 1   
    20   11   14 1   
    21   11   38 1   
    22   12   13 1   
    23   12   39 1   
    24   12   40 1   
    25   13   16 1   
    26   14   15 2   
    27   14   25 1   
    28   16   17 1   
    29   16   41 1   
    30   16   42 1   
    31   17   18 1   
    32   17   43 1   
    33   17   44 1   
    34   18   19 1   
    35   18   45 1   
    36   18   46 1   
    37   19   20 1   
    38   19   47 1   
    39   19   48 1   
    40   20   21 1   
    41   20   49 1   
    42   20   50 1   
    43   21   22 1   
    44   21   51 1   
    45   21   52 1   
    46   22   23 1   
    47   22   53 1   
    48   22   54 1   
    49   23   24 1   
    50   23   55 1   
    51   23   56 1   
    52   24   57 1   
    53   24   58 1   
    54   24   59 1   
    55   25   26 1   
    56   25   60 1   
    57   26   27 1   
    58   26   61 1   
    59   26   62 1   
    60   27   28 1   
    61   27   29 1   
@<TRIPOS>SUBSTRUCTURE
     1 0HH         1 TEMP              0 ****  ****    0 ROOT
