@<TRIPOS>MOLECULE
0HH
   62    61     1     0     0
SMALL
bcc


@<TRIPOS>ATOM
      1 N          -7.6660    2.6630   -0.5700 n3        1 0HH     -0.894800
      2 CA         -6.9260    2.3970    0.6570 c3        1 0HH      0.020500
      3 C          -7.2360    3.3940    1.8240 c         1 0HH      0.888600
      4 O          -8.1000    4.2960    1.6220 o         1 0HH     -0.845800
      5 CB         -5.4090    2.3400    0.4570 c3        1 0HH     -0.063400
      6 CG         -5.0070    1.2100   -0.4660 c3        1 0HH     -0.145400
      7 CD         -3.5060    1.1590   -0.6910 c         1 0HH      0.663100
      8 OE1        -2.9980    1.5220   -1.7740 o         1 0HH     -0.642100
      9 OXT        -6.6280    3.2260    2.9160 o         1 0HH     -0.845800
     10 N1         -2.7210    0.6910    0.3440 n         1 0HH     -0.562900
     11 CA1        -1.2990    0.4900    0.2330 c3        1 0HH      0.039700
     12 CB1        -0.4940    1.3800    1.1960 c3        1 0HH     -0.021300
     13 SG          1.0090    1.9980    0.5010 ss        1 0HH     -0.348200
     14 C1         -0.9400   -0.9890    0.5680 c         1 0HH      0.614100
     15 O1         -1.4360   -1.5250    1.5870 o         1 0HH     -0.652100
     16 C11         2.2330    0.7870    0.9370 c3        1 0HH     -0.022300
     17 C2          3.5760    1.3440    0.5410 c3        1 0HH     -0.050400
     18 C3          4.6290    0.2540    0.5980 c3        1 0HH     -0.101400
     19 C4          5.9610    0.7510    0.0800 c3        1 0HH     -0.068400
     20 C5          7.0050   -0.3440    0.1330 c3        1 0HH     -0.082400
     21 C6          8.3330    0.1310   -0.4150 c3        1 0HH     -0.076400
     22 C7          9.3760   -0.9650   -0.3580 c3        1 0HH     -0.080400
     23 C8         10.7040   -0.4950   -0.9120 c3        1 0HH     -0.080400
     24 C9         11.7450   -1.5830   -0.8560 c3        1 0HH     -0.090100
     25 N2         -0.1370   -1.6650   -0.3150 n         1 0HH     -0.505900
     26 CA2         0.4740   -2.9260    0.0270 c3        1 0HH     -0.060000
     27 CC          1.9930   -3.0090   -0.2820 c         1 0HH      0.901600
     28 O2          2.5960   -1.9800   -0.7100 o         1 0HH     -0.845800
     29 OXT1        2.5490   -4.1230   -0.0820 o         1 0HH     -0.845800
     30 H          -8.5760    3.0040   -0.3010 hn        1 0HH      0.331300
     31 H2         -7.2160    3.4160   -1.0600 hn        1 0HH      0.331300
     32 HA         -7.2690    1.3820    1.0160 h1        1 0HH      0.040700
     33 HB2        -5.0390    3.3140    0.0440 hc        1 0HH      0.055200
     34 HB3        -4.9470    2.2040    1.4710 hc        1 0HH      0.055200
     35 HG2        -5.3640    0.2320   -0.0490 hc        1 0HH      0.064700
     36 HG3        -5.4840    1.3460   -1.4730 hc        1 0HH      0.064700
     37 H1         -3.1530    0.3570    1.1750 hn        1 0HH      0.326500
     38 HA1        -0.9950    0.7470   -0.8290 h1        1 0HH      0.110700
     39 HB21       -1.0760    2.3050    1.4430 h1        1 0HH      0.083700
     40 HB31       -0.2980    0.8310    2.1480 h1        1 0HH      0.083700
     41 H11         2.1930    0.5780    2.0320 h1        1 0HH      0.090200
     42 H12         2.0540   -0.1800    0.3910 h1        1 0HH      0.090200
     43 H21         3.5200    1.7520   -0.5040 hc        1 0HH      0.033200
     44 H22         3.8630    2.1920    1.2160 hc        1 0HH      0.033200
     45 H31         4.7440   -0.0990    1.6560 hc        1 0HH      0.076200
     46 H32         4.2790   -0.6310   -0.0100 hc        1 0HH      0.076200
     47 H41         5.8430    1.1040   -0.9790 hc        1 0HH      0.024700
     48 H42         6.3040    1.6300    0.6860 hc        1 0HH      0.024700
     49 H51         7.1360   -0.6870    1.1930 hc        1 0HH      0.049200
     50 H52         6.6440   -1.2290   -0.4570 hc        1 0HH      0.049200
     51 H61         8.2010    0.4690   -1.4770 hc        1 0HH      0.031200
     52 H62         8.6880    1.0190    0.1720 hc        1 0HH      0.031200
     53 H71         9.5090   -1.3010    0.7030 hc        1 0HH      0.041700
     54 H72         9.0170   -1.8530   -0.9430 hc        1 0HH      0.041700
     55 H81        10.5670   -0.1590   -1.9740 hc        1 0HH      0.033700
     56 H82        11.0580    0.3960   -0.3290 hc        1 0HH      0.033700
     57 H91        11.9120   -1.9140    0.1970 hc        1 0HH      0.027033
     58 H92        11.4180   -2.4700   -1.4520 hc        1 0HH      0.027033
     59 H93        12.7150   -1.2180   -1.2700 hc        1 0HH      0.027033
     60 H3          0.4010   -1.1200   -0.9590 hn        1 0HH      0.321500
     61 HA2         0.3260   -3.1490    1.1200 h1        1 0HH      0.048200
     62 HA3        -0.0440   -3.7330   -0.5630 h1        1 0HH      0.048200
@<TRIPOS>BOND
     1    1    2 1   
     2    1   30 1   
     3    1   31 1   
     4    2    3 1   
     5    2    5 1   
     6    2   32 1   
     7    3    4 1   
     8    3    9 1   
     9    5    6 1   
    10    5   33 1   
    11    5   34 1   
    12    6    7 1   
    13    6   35 1   
    14    6   36 1   
    15    7    8 2   
    16    7   10 1   
    17   10   11 1   
    18   10   37 1   
    19   11   12 1   
    20   11   14 1   
    21   11   38 1   
    22   12   13 1   
    23   12   39 1   
    24   12   40 1   
    25   13   16 1   
    26   14   15 2   
    27   14   25 1   
    28   16   17 1   
    29   16   41 1   
    30   16   42 1   
    31   17   18 1   
    32   17   43 1   
    33   17   44 1   
    34   18   19 1   
    35   18   45 1   
    36   18   46 1   
    37   19   20 1   
    38   19   47 1   
    39   19   48 1   
    40   20   21 1   
    41   20   49 1   
    42   20   50 1   
    43   21   22 1   
    44   21   51 1   
    45   21   52 1   
    46   22   23 1   
    47   22   53 1   
    48   22   54 1   
    49   23   24 1   
    50   23   55 1   
    51   23   56 1   
    52   24   57 1   
    53   24   58 1   
    54   24   59 1   
    55   25   26 1   
    56   25   60 1   
    57   26   27 1   
    58   26   61 1   
    59   26   62 1   
    60   27   28 1   
    61   27   29 1   
@<TRIPOS>SUBSTRUCTURE
     1 0HH         1 TEMP              0 ****  ****    0 ROOT
