@<TRIPOS>MOLECULE
0HK
   48    48     1     0     0
SMALL
bcc


@<TRIPOS>ATOM
      1 C28         0.3130   -0.3250   -0.1860 c2        1 0HK      0.282000
      2 O29         1.4810   -0.4320    0.1790 o         1 0HK     -0.331000
      3 C31         0.4840    0.5930   -2.4730 c2        1 0HK     -0.509000
      4 C32        -0.1620   -1.7560   -2.1090 c2        1 0HK     -0.113000
      5 C34         0.0670    1.7990   -2.9160 c2        1 0HK     -0.087000
      6 C35         1.0830    2.4890   -3.8210 c3        1 0HK     -0.097000
      7 C36         2.1680    1.5340   -3.8640 c1        1 0HK     -0.740000
      8 C41        -1.1760   -2.4970   -2.4970 cu        1 0HK     -0.170000
      9 C42        -2.6110   -2.6830   -2.7430 cx        1 0HK     -0.173000
     10 C43        -1.6220   -3.7630   -3.0370 cu        1 0HK     -0.222000
     11 O10        -3.0140   -0.7040    5.8990 o         1 0HK     -0.227000
     12 O11        -0.6640   -0.1900    0.7670 os        1 0HK     -0.284000
     13 O33        -1.6200    0.1320   -1.5370 oh        1 0HK     -0.299000
     14 S37         2.1140    0.2640   -3.1470 ss        1 0HK      0.983000
     15 S44        -1.3180   -5.1220   -3.5230 s         1 0HK      0.233000
     16 C3         -1.1020   -0.7760    4.4010 c3        1 0HK     -0.202000
     17 C4         -1.4670   -0.5000    2.9530 c3        1 0HK     -0.165000
     18 C5         -0.2480   -0.0720    2.1390 c3        1 0HK      0.040000
     19 C6          0.2260    1.3480    2.4360 c3        1 0HK     -0.163000
     20 C7         -0.7840    2.4290    2.3430 c2        1 0HK     -0.216000
     21 C8         -1.8030    2.4720    1.4860 c2        1 0HK     -0.192000
     22 C9         -2.0850   -0.1400    5.3330 c2        1 0HK      0.237000
     23 C30        -0.2810   -0.3400   -1.6060 c3        1 0HK      0.232000
     24 N2         -2.7860    2.0600    6.2770 n2        1 0HK     -0.002000
     25 H1         -0.8900    2.2800   -2.6990 ha        1 0HK      0.161000
     26 H2          1.3950    3.4780   -3.3930 hc        1 0HK      0.153000
     27 H3          0.6440    2.6820   -4.8360 hc        1 0HK      0.153000
     28 H4          0.8740   -2.1390   -2.1430 ha        1 0HK      0.162000
     29 H5         -3.0930   -2.1450   -3.5840 hc        1 0HK      0.140000
     30 H6         -3.3050   -2.8040   -1.8880 hc        1 0HK      0.140000
     31 H7         -2.1500   -0.5670   -1.1300 ho        1 0HK      0.215000
     32 H8          1.2260    1.1130    5.6980 ha        1 0HK      0.002000
     33 H9         -4.3990    3.0630    7.4700 ha        1 0HK      0.355000
     34 H10         1.8910    1.0100    5.6100 ha        1 0HK      0.002000
     35 H11        -0.0690   -0.3980    4.6370 hc        1 0HK      0.138000
     36 H12        -1.8990   -1.4290    2.4920 hc        1 0HK      0.111500
     37 H13        -1.1030   -1.8860    4.5890 hc        1 0HK      0.138000
     38 H14        -2.2510    0.2980    2.8710 hc        1 0HK      0.111500
     39 H15         0.6760    1.3480    3.4670 hc        1 0HK      0.107000
     40 H16         0.6110   -0.7820    2.3210 h1        1 0HK      0.122000
     41 H17         1.0600    1.5810    1.7130 hc        1 0HK      0.107000
     42 H18        -2.4830    3.3330    1.4310 ha        1 0HK      0.133500
     43 H19        -2.0120    1.6640    0.7650 ha        1 0HK      0.133500
     44 H20        -0.8150    1.4720    6.0780 h1        1 0HK      0.195000
     45 H21        -1.7180    1.8540    4.5090 h1        1 0HK      0.195000
     46 H22        -0.5780    3.2890    3.0060 ha        1 0HK      0.108000
     47 C12        -1.8050    1.3610    5.5340 c3        1 0HK     -0.107000
     48 C1         -3.6230    2.5660    6.8930 c1        1 0HK      0.208000
@<TRIPOS>BOND
     1    1    2 1   
     2    1   12 1   
     3    1   23 1   
     4    3    5 1   
     5    3   14 1   
     6    3   23 1   
     7    4    8 1   
     8    4   23 1   
     9    4   28 1   
    10    5    6 1   
    11    5   25 1   
    12    6    7 1   
    13    6   26 1   
    14    6   27 1   
    15    7   14 1   
    16    8    9 1   
    17    8   10 1   
    18    9   10 1   
    19    9   29 1   
    20    9   30 1   
    21   10   15 1   
    22   11   22 1   
    23   12   18 1   
    24   13   23 1   
    25   13   31 1   
    26   16   17 1   
    27   16   22 1   
    28   16   35 1   
    29   16   37 1   
    30   17   18 1   
    31   17   36 1   
    32   17   38 1   
    33   18   19 1   
    34   18   40 1   
    35   19   20 1   
    36   19   39 1   
    37   19   41 1   
    38   20   21 1   
    39   20   46 1   
    40   21   42 1   
    41   21   43 1   
    42   22   47 1   
    43   24   47 1   
    44   24   48 1   
    45   32   34 1   
    46   33   48 1   
    47   44   47 1   
    48   45   47 1   
@<TRIPOS>SUBSTRUCTURE
     1 0HK         1 TEMP              0 ****  ****    0 ROOT
