@<TRIPOS>MOLECULE
0HK
   48    45     1     0     0
SMALL
bcc


@<TRIPOS>ATOM
      1 C28         0.0160   -0.2260   -0.4790 c2        1 0HK      0.275000
      2 O29         0.7800   -1.1490   -0.1920 o         1 0HK     -0.336000
      3 C31         0.7090    0.2130   -2.8380 c2        1 0HK     -0.025000
      4 C32        -1.4170   -0.9390   -2.3990 c2        1 0HK     -0.251000
      5 C34         1.5430    1.4110   -2.5630 c3        1 0HK     -0.090000
      6 C35         2.7600    1.5100   -3.3870 c2        1 0HK     -0.526000
      7 C36         4.0100    1.5990   -2.9780 c1        1 0HK      0.285000
      8 C41        -1.5410   -2.1790   -1.9080 c2        1 0HK     -0.106000
      9 C42        -1.9640   -3.2680   -2.8580 c3        1 0HK     -0.079000
     10 C43        -0.9990   -3.1480   -3.9280 c1        1 0HK     -0.614000
     11 O10        -6.8920    1.8240    4.9260 o         1 0HK     -0.176000
     12 O11        -0.4850    0.6070    0.4520 os        1 0HK     -0.264000
     13 O33        -1.1010    1.3980   -1.9240 oh        1 0HK     -0.299000
     14 S37         1.0820   -0.7690   -4.0180 s         1 0HK      0.009000
     15 S44         0.0120   -2.7550   -4.7440 s         1 0HK      1.132000
     16 C3         -2.3490   -0.4360    2.7910 c2        1 0HK     -0.188000
     17 C4         -0.9720   -0.8090    2.3890 c3        1 0HK     -0.147000
     18 C5         -0.1500    0.3550    1.8550 c3        1 0HK      0.054000
     19 C6         -0.4410    1.6640    2.5710 c3        1 0HK     -0.174000
     20 C7         -1.9170    1.9990    2.6070 c3        1 0HK     -0.129000
     21 C8         -5.9810    1.5820    4.2330 c1        1 0HK      0.177000
     22 C9         -2.7720    0.8260    2.9070 c2        1 0HK     -0.153000
     23 C30        -0.4920    0.1180   -1.8850 c3        1 0HK      0.123000
     24 N2          1.7930    1.5000    6.5970 n2        1 0HK     -0.313000
     25 H1          0.8870    2.3240   -2.7330 hc        1 0HK      0.164500
     26 H2          1.7960    1.4210   -1.4600 hc        1 0HK      0.164500
     27 H3          2.5960    1.5420   -4.4880 ha        1 0HK      0.208000
     28 H4         -1.9470   -0.6270   -3.3180 ha        1 0HK      0.153000
     29 H5         -3.0190   -3.1280   -3.2310 hc        1 0HK      0.166500
     30 H6         -1.9270   -4.2820   -2.3690 hc        1 0HK      0.166500
     31 H7         -1.7280    1.4530   -1.1840 ho        1 0HK      0.261000
     32 H8          2.9320    0.7330    8.1470 h1        1 0HK      0.100667
     33 H9          3.0300    2.5430    7.8900 h1        1 0HK      0.100667
     34 H10         1.5270    1.8030    8.6280 h1        1 0HK      0.100667
     35 H11        -3.0110   -1.2850    3.0240 ha        1 0HK      0.129000
     36 H12        -0.4330   -1.2240    3.2860 hc        1 0HK      0.103500
     37 H13        -1.1750   -2.4920   -0.9160 ha        1 0HK      0.179000
     38 H14        -1.0040   -1.6210    1.6130 hc        1 0HK      0.103500
     39 H15        -0.0380    1.5570    3.6190 hc        1 0HK      0.122000
     40 H16         0.9480    0.1080    1.9000 h1        1 0HK      0.117000
     41 H17         0.1200    2.4960    2.0710 hc        1 0HK      0.122000
     42 H18        -2.2310    2.4210    1.6120 hc        1 0HK      0.094000
     43 H19        -3.8040    1.0570    3.2270 ha        1 0HK      0.150000
     44 H20        -8.5630    2.2120    6.7130 ha        1 0HK      0.000500
     45 H21        -8.9350    2.4270    6.1900 ha        1 0HK      0.000500
     46 H22        -2.0910    2.8000    3.3760 hc        1 0HK      0.094000
     47 C12         1.3260    1.3730    5.5220 c1        1 0HK      0.064000
     48 C1          2.3440    1.6510    7.8710 c3        1 0HK     -0.049000
@<TRIPOS>BOND
     1    1    2 1   
     2    1   12 1   
     3    1   23 1   
     4    3    5 1   
     5    3   14 1   
     6    3   23 1   
     7    4    8 1   
     8    4   23 1   
     9    4   28 1   
    10    5    6 1   
    11    5   25 1   
    12    5   26 1   
    13    6    7 1   
    14    6   27 1   
    15    8    9 1   
    16    8   37 1   
    17    9   10 1   
    18    9   29 1   
    19    9   30 1   
    20   10   15 1   
    21   11   21 1   
    22   12   18 1   
    23   13   23 1   
    24   13   31 1   
    25   16   17 1   
    26   16   22 1   
    27   16   35 1   
    28   17   18 1   
    29   17   36 1   
    30   17   38 1   
    31   18   19 1   
    32   18   40 1   
    33   19   20 1   
    34   19   39 1   
    35   19   41 1   
    36   20   22 1   
    37   20   42 1   
    38   20   46 1   
    39   22   43 1   
    40   24   47 1   
    41   24   48 1   
    42   32   48 1   
    43   33   48 1   
    44   34   48 1   
    45   44   45 1   
@<TRIPOS>SUBSTRUCTURE
     1 0HK         1 TEMP              0 ****  ****    0 ROOT
