@<TRIPOS>MOLECULE
0HK
   48    43     1     0     0
SMALL
bcc


@<TRIPOS>ATOM
      1 C28         1.0650   -0.5130   -0.2260 c1        1 0HK      0.330000
      2 O29         1.3270   -1.6470    0.1420 o         1 0HK     -0.263000
      3 C31         3.5500   -0.2490   -0.4220 c1        1 0HK     -0.462500
      4 C32         2.0390    0.9170   -2.0430 c1        1 0HK     -0.462500
      5 C34         4.7990   -0.0190    0.2900 c1        1 0HK     -0.146250
      6 C35         5.7230   -1.3060    0.1110 c1        1 0HK     -0.146250
      7 C36         5.0040   -2.2740   -0.7030 c1        1 0HK     -0.462500
      8 C41         2.1160    0.7600   -3.4870 c1        1 0HK     -0.146250
      9 C42         2.8400    2.0460   -4.0930 c1        1 0HK     -0.146250
     10 C43         3.1780    2.9390   -2.9990 c1        1 0HK     -0.462500
     11 O10        -4.0930    0.6020    3.1570 os        1 0HK     -0.218000
     12 O11        -0.3010   -0.1220   -0.4200 os        1 0HK     -0.311000
     13 O33         2.1510    1.5870    0.2730 oh        1 0HK     -0.332000
     14 S37         3.6230   -1.6590   -1.0700 ss        1 0HK      0.672500
     15 S44         2.6950    2.2770   -1.6750 ss        1 0HK      0.672500
     16 C1         -2.5240   -1.2680   -0.3310 c3        1 0HK     -0.194000
     17 C3         -3.3800    0.6630    0.7140 c3        1 0HK     -0.050000
     18 C4         -2.3140    1.1720   -0.0430 c3        1 0HK     -0.205500
     19 C5         -0.7550    0.3060    0.4430 c3        1 0HK      0.054000
     20 C6         -1.1120   -1.0230    1.6810 c3        1 0HK     -0.205500
     21 C7         -2.4730   -0.9890    2.0140 c3        1 0HK     -0.050000
     22 C8         -2.7410    0.1960    2.9350 cx        1 0HK     -0.060000
     23 C9         -3.2980    1.2130    2.1390 cx        1 0HK     -0.060000
     24 C12        -4.5270   -1.3780    0.9250 c3        1 0HK     -0.194000
     25 C30         2.2010    0.4590   -0.5880 c1        1 0HK      0.259000
     26 N2         -3.2330   -0.7530    0.8200 n4        1 0HK      0.021000
     27 H1          5.0320    0.7890    0.7930 DU        1 0HK      0.169500
     28 H2          6.6210   -1.4250    0.4860 DU        1 0HK      0.169500
     29 H3          5.3330   -3.1580   -0.9740 DU        1 0HK      0.169500
     30 H4          1.7800   -0.0040   -4.0000 DU        1 0HK      0.169500
     31 H5          3.0250    2.2070   -5.0430 DU        1 0HK      0.169500
     32 H6          3.6300    3.8060   -3.0790 DU        1 0HK      0.169500
     33 H7          2.8220    1.5450    0.8590 ho        1 0HK      0.233000
     34 H8         -2.2470   -2.1970   -0.1580 hx        1 0HK      0.147000
     35 H9         -3.1160   -1.2430   -1.1200 hx        1 0HK      0.147000
     36 H10        -1.7370   -0.7210   -0.4990 hx        1 0HK      0.147000
     37 H11        -4.2450    0.8950    0.3000 hx        1 0HK      0.166000
     38 H12        -2.4890    1.0220   -1.0000 hc        1 0HK      0.141750
     39 H13        -2.2210    2.1370    0.1270 hc        1 0HK      0.141750
     40 H14        -0.1380    0.9570    0.8400 h1        1 0HK      0.133000
     41 H15        -0.8900   -1.8990    1.2950 hc        1 0HK      0.141750
     42 H16        -0.5720   -0.8720    2.4900 hc        1 0HK      0.141750
     43 H17        -2.7490   -1.8330    2.4420 hx        1 0HK      0.166000
     44 H18        -2.0380    0.5290    3.5380 h1        1 0HK      0.200500
     45 H19        -2.8960    2.0940    2.3130 h1        1 0HK      0.200500
     46 H20        -4.4150   -2.3230    1.1790 hx        1 0HK      0.147000
     47 H21        -5.0610   -0.9150    1.6110 hx        1 0HK      0.147000
     48 H22        -4.9880   -1.3240    0.0580 hx        1 0HK      0.147000
@<TRIPOS>BOND
     1    1    2 1   
     2    1   12 1   
     3    3    5 1   
     4    3   14 1   
     5    4    8 1   
     6    4   15 1   
     7    5    6 1   
     8    6    7 1   
     9    7   14 1   
    10    8    9 1   
    11    9   10 1   
    12   10   15 1   
    13   11   22 1   
    14   11   23 1   
    15   12   19 1   
    16   13   25 1   
    17   13   33 1   
    18   16   26 1   
    19   16   34 1   
    20   16   35 1   
    21   16   36 1   
    22   17   18 1   
    23   17   23 1   
    24   17   26 1   
    25   17   37 1   
    26   18   19 1   
    27   18   38 1   
    28   18   39 1   
    29   19   20 1   
    30   19   40 1   
    31   20   21 1   
    32   20   41 1   
    33   20   42 1   
    34   21   22 1   
    35   21   26 1   
    36   21   43 1   
    37   22   23 1   
    38   22   44 1   
    39   23   45 1   
    40   24   26 1   
    41   24   46 1   
    42   24   47 1   
    43   24   48 1   
@<TRIPOS>SUBSTRUCTURE
     1 0HK         1 TEMP              0 ****  ****    0 ROOT
