@<TRIPOS>MOLECULE
0HK
   48    52     1     0     0
SMALL
bcc


@<TRIPOS>ATOM
      1 C28        -0.3970    0.0750   -0.6410 c         1 0HK      0.649100
      2 O29        -0.4180   -0.1680   -1.8440 o         1 0HK     -0.514000
      3 C31        -2.5230    1.0400    0.1390 cc        1 0HK     -0.216900
      4 C32        -2.1600   -1.3810    0.2890 cc        1 0HK     -0.216900
      5 C34        -2.3010    2.4020    0.2360 cd        1 0HK     -0.108500
      6 C35        -3.4690    3.1510   -0.1030 cd        1 0HK     -0.160500
      7 C36        -4.5210    2.3240   -0.4410 cc        1 0HK     -0.147600
      8 C41        -1.8630   -2.4780    1.0780 cd        1 0HK     -0.108500
      9 C42        -2.7160   -3.5850    0.7850 cd        1 0HK     -0.160500
     10 C43        -3.6280   -3.2760   -0.2030 cc        1 0HK     -0.147600
     11 O10         3.9460   -0.7330    2.1920 os        1 0HK     -0.369600
     12 O11         0.7860    0.5110   -0.0940 os        1 0HK     -0.427900
     13 O33        -0.8890    0.1280    1.6610 oh        1 0HK     -0.582800
     14 S37        -4.1110    0.7160   -0.3260 ss        1 0HK      0.080700
     15 S44        -3.4320   -1.7200   -0.7670 ss        1 0HK      0.080700
     16 C3          3.7180   -0.9760   -0.3140 c3        1 0HK      0.144500
     17 C4          2.5680   -0.6420   -1.2720 c3        1 0HK     -0.114400
     18 C5          1.8970    0.7110   -0.9850 c3        1 0HK      0.135100
     19 C6          2.7570    1.7810   -0.2930 c3        1 0HK     -0.114400
     20 C7          3.8850    1.1960    0.5650 c3        1 0HK      0.144500
     21 C8          3.1810    0.3520    1.6510 cx        1 0HK      0.066600
     22 C9          3.0800   -1.0380    1.0910 cx        1 0HK      0.066600
     23 C30        -1.5230   -0.0360    0.3950 c3        1 0HK      0.318400
     24 N2          4.7050    0.2040   -0.2780 n4        1 0HK     -0.618800
     25 H1         -1.3570    2.8600    0.5370 ha        1 0HK      0.156500
     26 H2         -3.5050    4.2420   -0.0880 ha        1 0HK      0.165000
     27 H3         -5.5140    2.6650   -0.7380 h4        1 0HK      0.185000
     28 H4         -1.0890   -2.4960    1.8490 ha        1 0HK      0.156500
     29 H5         -2.6460   -4.5460    1.2990 ha        1 0HK      0.165000
     30 H6         -4.3870   -3.9540   -0.5930 h4        1 0HK      0.185000
     31 H7         -1.5960    0.1650    2.3200 ho        1 0HK      0.432000
     32 H8          5.7130    1.6190   -1.5120 hx        1 0HK      0.103200
     33 H9          5.5830   -0.0810   -2.1980 hx        1 0HK      0.103200
     34 H10         4.1340    1.0260   -2.2080 hx        1 0HK      0.103200
     35 H11         4.2660   -1.9100   -0.6020 hx        1 0HK      0.123700
     36 H12         2.9240   -0.6730   -2.3340 hc        1 0HK      0.098950
     37 H13         1.7910   -1.4510   -1.1720 hc        1 0HK      0.098950
     38 H14         1.5110    1.1240   -1.9630 h1        1 0HK      0.100700
     39 H15         3.1700    2.4870   -1.0590 hc        1 0HK      0.098950
     40 H16         2.0940    2.3840    0.3890 hc        1 0HK      0.098950
     41 H17         4.5670    1.9820    0.9790 hx        1 0HK      0.123700
     42 H18         2.4850    0.8660    2.3300 h1        1 0HK      0.168700
     43 H19         2.2990   -1.7920    1.2660 h1        1 0HK      0.168700
     44 H20         6.6380    0.7560    0.4400 hx        1 0HK      0.103200
     45 H21         5.8340   -0.5640    1.4130 hx        1 0HK      0.103200
     46 H22         6.5050   -0.9430   -0.2430 hx        1 0HK      0.103200
     47 C12         5.9920   -0.1600    0.3770 c3        1 0HK      0.087100
     48 C1          5.0440    0.7230   -1.6280 c3        1 0HK      0.087100
@<TRIPOS>BOND
     1    1    2 2   
     2    1   12 1   
     3    1   23 1   
     4    3    5 2   
     5    3   14 1   
     6    3   23 1   
     7    4    8 2   
     8    4   15 1   
     9    4   23 1   
    10    5    6 1   
    11    5   25 1   
    12    6    7 2   
    13    6   26 1   
    14    7   14 1   
    15    7   27 1   
    16    8    9 1   
    17    8   28 1   
    18    9   10 2   
    19    9   29 1   
    20   10   15 1   
    21   10   30 1   
    22   11   21 1   
    23   11   22 1   
    24   12   18 1   
    25   13   23 1   
    26   13   31 1   
    27   16   17 1   
    28   16   22 1   
    29   16   24 1   
    30   16   35 1   
    31   17   18 1   
    32   17   36 1   
    33   17   37 1   
    34   18   19 1   
    35   18   38 1   
    36   19   20 1   
    37   19   39 1   
    38   19   40 1   
    39   20   21 1   
    40   20   24 1   
    41   20   41 1   
    42   21   22 1   
    43   21   42 1   
    44   22   43 1   
    45   24   47 1   
    46   24   48 1   
    47   32   48 1   
    48   33   48 1   
    49   34   48 1   
    50   44   47 1   
    51   45   47 1   
    52   46   47 1   
@<TRIPOS>SUBSTRUCTURE
     1 0HK         1 TEMP              0 ****  ****    0 ROOT
