@<TRIPOS>MOLECULE
0HK
   48    45     1     0     0
SMALL
bcc


@<TRIPOS>ATOM
      1 C28        -0.6490   -1.0000    0.0210 c2        1 0HK      0.289000
      2 O29         0.4140   -1.3930    0.5030 o         1 0HK     -0.354000
      3 C31         0.0130    0.7860   -1.5820 c2        1 0HK     -0.356000
      4 C32        -0.9430   -1.3860   -2.4380 c3        1 0HK     -0.488000
      5 C34        -0.3320    2.0660   -1.4160 c2        1 0HK     -0.125000
      6 C35         2.6190    2.2200   -3.7690 c1        1 0HK     -0.068000
      7 C36         2.1150    1.3950   -3.0480 c1        1 0HK     -0.478000
      8 C41        -1.7580   -2.5170   -2.1670 c1        1 0HK     -0.182000
      9 C42        -2.4350   -3.4890   -1.9870 c1        1 0HK     -0.194000
     10 C43         1.2280   -3.1230   -2.6930 c1        1 0HK     -0.947000
     11 O10        -3.8950    1.2990    2.0300 o         1 0HK     -0.280000
     12 O11        -1.7660   -1.1340    0.8230 os        1 0HK     -0.278000
     13 O33        -2.2580    0.2580   -1.2040 oh        1 0HK     -0.318000
     14 S37         1.5490    0.2430   -2.1110 ss        1 0HK      0.565000
     15 S44         0.7370   -1.9010   -3.0010 ss        1 0HK      1.220000
     16 C3         -1.0240    0.5530    4.7920 c3        1 0HK     -0.125000
     17 C4         -0.8660   -1.3240    3.0880 c3        1 0HK     -0.314000
     18 C5         -1.6630   -1.9800    1.9610 c3        1 0HK     -0.007000
     19 C6         -0.6640    3.9300    3.7480 c1        1 0HK     -0.205000
     20 C7         -0.9000    5.0590    3.1580 c2        1 0HK     -0.109000
     21 C8         -4.7300    1.6210    1.2670 c1        1 0HK      0.282000
     22 C9         -1.3040   -0.0080    3.4620 c2        1 0HK      0.240000
     23 C30        -0.9710   -0.3360   -1.3220 c3        1 0HK      0.217000
     24 N2         -1.2490    1.9500    5.0400 n3        1 0HK     -0.216000
     25 H1         -1.3370    2.3690   -1.0850 ha        1 0HK      0.140500
     26 H2          0.3640    2.8910   -1.6310 ha        1 0HK      0.140500
     27 H3          3.0690    2.9410   -4.4090 ha        1 0HK      0.239000
     28 H4         -1.3320   -0.8630   -3.3620 h1        1 0HK      0.156000
     29 H5         -3.0240   -4.3600   -1.8410 ha        1 0HK      0.232000
     30 H6          1.6170   -4.0860   -2.4540 ha        1 0HK      0.213000
     31 H7         -2.9100   -0.4450   -1.3310 ho        1 0HK      0.235000
     32 H8          2.3890   -1.3850    1.8040 ha        1 0HK      0.004000
     33 H9          0.7150    2.5420    4.5230 h4        1 0HK      0.162000
     34 H10         0.2150   -1.1930    2.6850 hc        1 0HK      0.219000
     35 H11         0.0510    0.3050    5.0770 h1        1 0HK      0.190000
     36 H12         2.1660   -1.1020    2.3790 ha        1 0HK      0.004000
     37 H13        -1.6710   -0.0440    5.5240 h1        1 0HK      0.190000
     38 H14        -0.7670   -2.0310    3.9600 hc        1 0HK      0.219000
     39 H15        -1.1670   -2.9500    1.6860 h1        1 0HK      0.138000
     40 H16        -2.7300   -2.1530    2.2650 h1        1 0HK      0.138000
     41 H17        -0.9740    6.0080    3.7150 ha        1 0HK      0.149000
     42 H18        -1.0350    5.1410    2.0680 ha        1 0HK      0.149000
     43 H19        -1.8600    0.6000    2.7060 ha        1 0HK      0.213000
     44 H20        -3.1770    2.2080    4.1280 h1        1 0HK      0.098667
     45 H21        -3.1490    1.7520    5.9020 h1        1 0HK      0.098667
     46 H22        -2.6790    3.4380    5.3850 h1        1 0HK      0.098667
     47 C12        -2.6350    2.3520    5.1040 c3        1 0HK     -0.130000
     48 C1         -0.3490    2.8240    4.3800 c2        1 0HK     -0.068000
@<TRIPOS>BOND
     1    1    2 1   
     2    1   12 1   
     3    1   23 1   
     4    3    5 1   
     5    3   14 1   
     6    3   23 1   
     7    4    8 1   
     8    4   15 1   
     9    4   23 1   
    10    4   28 1   
    11    5   25 1   
    12    5   26 1   
    13    6    7 1   
    14    6   27 1   
    15    7   14 1   
    16    8    9 1   
    17    9   29 1   
    18   10   15 1   
    19   10   30 1   
    20   11   21 1   
    21   12   18 1   
    22   13   23 1   
    23   13   31 1   
    24   16   22 1   
    25   16   24 1   
    26   16   35 1   
    27   16   37 1   
    28   17   18 1   
    29   17   22 1   
    30   17   34 1   
    31   17   38 1   
    32   18   39 1   
    33   18   40 1   
    34   19   20 1   
    35   19   48 1   
    36   20   41 1   
    37   20   42 1   
    38   22   43 1   
    39   24   47 1   
    40   24   48 1   
    41   32   36 1   
    42   33   48 1   
    43   44   47 1   
    44   45   47 1   
    45   46   47 1   
@<TRIPOS>SUBSTRUCTURE
     1 0HK         1 TEMP              0 ****  ****    0 ROOT
