@<TRIPOS>MOLECULE
0HL
   63    67     1     0     0
SMALL
bcc


@<TRIPOS>ATOM
      1 CAN        -1.6200    1.2200   -0.4860 ca        1 0HL      0.033000
      2 CAS        -2.9420    1.7300   -0.6080 ca        1 0HL     -0.044000
      3 CAY        -3.9390    1.4160    0.3470 ca        1 0HL     -0.135000
      4 CBC        -5.2190    1.9270    0.1930 ca        1 0HL      0.111100
      5 OBG        -6.1240    1.5600    1.1710 os        1 0HL     -0.324900
      6 CBI        -7.4370    2.0950    1.0520 c3        1 0HL      0.112700
      7 CBF        -5.5430    2.7640   -0.9080 ca        1 0HL     -0.159000
      8 CBB        -4.5770    3.0750   -1.8340 ca        1 0HL     -0.103000
      9 CAX        -3.2570    2.5680   -1.7080 ca        1 0HL     -0.019000
     10 CAT        -2.2390    2.8780   -2.6520 ca        1 0HL     -0.128000
     11 CAO        -0.9750    2.3730   -2.5040 ca        1 0HL     -0.064000
     12 CAG        -0.6440    1.5220   -1.4110 ca        1 0HL     -0.378500
     13 SAC         0.9100    0.8710   -1.3360 sy        1 0HL      1.506200
     14 OAH         0.8360   -0.5370   -1.3310 o         1 0HL     -0.656300
     15 OAI         1.6780    1.4230   -2.3860 o         1 0HL     -0.656300
     16 N           1.4730    1.4150    0.1080 n3        1 0HL     -0.785500
     17 CAD         1.5070    2.8390    0.3700 c3        1 0HL      0.290100
     18 CAJ         2.8630    3.4550    0.3330 cc        1 0HL     -0.150300
     19 CAP         3.6940    3.4670   -0.8370 cc        1 0HL     -0.137000
     20 CAU         4.8720    4.1390   -0.6080 cd        1 0HL     -0.171100
     21 SAV         4.9540    4.7250    0.9590 ss        1 0HL      0.018200
     22 CAQ         3.4610    4.1160    1.3870 cd        1 0HL     -0.163100
     23 CA          1.9970    0.5880    1.1590 c3        1 0HL      0.174500
     24 C           0.9220   -0.2370    1.9270 c         1 0HL      0.673500
     25 O          -0.1990    0.1780    2.2600 o         1 0HL     -0.638500
     26 CB          3.0470   -0.4740    0.7480 c3        1 0HL     -0.110400
     27 CAM         2.7050   -1.7310    1.5720 c3        1 0HL      0.079000
     28 NAK         1.4560   -1.4780    2.2710 n         1 0HL     -0.448800
     29 CAR         0.6540   -2.5760    2.7440 c3        1 0HL      0.164300
     30 CAW         0.0890   -3.4680    1.6930 cc        1 0HL     -0.164300
     31 CAZ         0.7900   -4.5860    1.1420 cc        1 0HL     -0.093000
     32 CBA        -1.1700   -3.3380    1.1360 cd        1 0HL     -0.144100
     33 SBE        -1.4750   -4.5120    0.0040 ss        1 0HL      0.083200
     34 CBD         0.0310   -5.2360    0.1860 cd        1 0HL     -0.194000
     35 CBH         0.4700   -6.4260   -0.5720 cf        1 0HL      0.681800
     36 NBK         1.1630   -7.3380    0.0420 n2        1 0HL     -0.821100
     37 NBJ         0.0020   -6.4580   -1.9110 nh        1 0HL     -0.951800
     38 H1         -1.3910    0.5740    0.3850 ha        1 0HL      0.170000
     39 H2         -3.6950    0.7740    1.2070 ha        1 0HL      0.162000
     40 H3         -7.4150    3.2110    1.0940 h1        1 0HL      0.045367
     41 H4         -7.9220    1.7460    0.1090 h1        1 0HL      0.045367
     42 H5         -7.9670    1.6780    1.9460 h1        1 0HL      0.045367
     43 H6         -6.5620    3.1620   -1.0180 ha        1 0HL      0.141000
     44 H7         -4.8150    3.7230   -2.6910 ha        1 0HL      0.139000
     45 H8         -2.4880    3.5310   -3.5020 ha        1 0HL      0.139000
     46 H9         -0.1850    2.6140   -3.2380 ha        1 0HL      0.162000
     47 H10         0.8690    3.3480   -0.4150 h1        1 0HL      0.063700
     48 H11         1.0360    3.0420    1.3760 h1        1 0HL      0.063700
     49 H12         3.3970    2.9890   -1.7780 ha        1 0HL      0.186000
     50 H13         5.6680    4.2890   -1.3350 h4        1 0HL      0.173000
     51 H14         3.0310    4.2430    2.3790 h4        1 0HL      0.171000
     52 H15         2.4710    1.2600    1.9390 h1        1 0HL      0.093700
     53 H16         3.0050   -0.7160   -0.3430 hc        1 0HL      0.071200
     54 H17         4.0750   -0.1100    0.9860 hc        1 0HL      0.071200
     55 H18         2.6110   -2.6310    0.9030 h1        1 0HL      0.056200
     56 H19         3.5060   -1.9370    2.3340 h1        1 0HL      0.056200
     57 H20         1.3080   -3.1930    3.4290 h1        1 0HL      0.070200
     58 H21        -0.1920   -2.1360    3.3490 h1        1 0HL      0.070200
     59 H22         1.7950   -4.8850    1.4520 ha        1 0HL      0.165000
     60 H23        -1.8860   -2.5560    1.3940 h4        1 0HL      0.180000
     61 H24         1.4490   -8.1200   -0.5090 hn        1 0HL      0.381400
     62 H25        -0.1760   -5.5650   -2.3130 hn        1 0HL      0.395800
     63 H26         0.4820   -7.0770   -2.5230 hn        1 0HL      0.395800
@<TRIPOS>BOND
     1    1    2 ar  
     2    1   12 ar  
     3    1   38 1   
     4    2    3 ar  
     5    2    9 ar  
     6    3    4 ar  
     7    3   39 1   
     8    4    5 1   
     9    4    7 ar  
    10    5    6 1   
    11    6   40 1   
    12    6   41 1   
    13    6   42 1   
    14    7    8 ar  
    15    7   43 1   
    16    8    9 ar  
    17    8   44 1   
    18    9   10 ar  
    19   10   11 ar  
    20   10   45 1   
    21   11   12 ar  
    22   11   46 1   
    23   12   13 1   
    24   13   14 2   
    25   13   15 2   
    26   13   16 1   
    27   16   17 1   
    28   16   23 1   
    29   17   18 1   
    30   17   47 1   
    31   17   48 1   
    32   18   19 1   
    33   18   22 2   
    34   19   20 2   
    35   19   49 1   
    36   20   21 1   
    37   20   50 1   
    38   21   22 1   
    39   22   51 1   
    40   23   24 1   
    41   23   26 1   
    42   23   52 1   
    43   24   25 2   
    44   24   28 1   
    45   26   27 1   
    46   26   53 1   
    47   26   54 1   
    48   27   28 1   
    49   27   55 1   
    50   27   56 1   
    51   28   29 1   
    52   29   30 1   
    53   29   57 1   
    54   29   58 1   
    55   30   31 1   
    56   30   32 2   
    57   31   34 2   
    58   31   59 1   
    59   32   33 1   
    60   32   60 1   
    61   33   34 1   
    62   34   35 1   
    63   35   36 2   
    64   35   37 1   
    65   36   61 1   
    66   37   62 1   
    67   37   63 1   
@<TRIPOS>SUBSTRUCTURE
     1 0HL         1 TEMP              0 ****  ****    0 ROOT
