@<TRIPOS>MOLECULE
0HL
   65    68     1     0     0
SMALL
bcc


@<TRIPOS>ATOM
      1 CAN         0.7920    0.3970   -1.3150 ca        1 0HL      0.125000
      2 CAS         2.0740   -0.0690   -0.9670 ca        1 0HL     -0.070000
      3 CAY         2.7570    0.4500    0.1630 ca        1 0HL     -0.136000
      4 CBC         4.0270   -0.0210    0.4750 ca        1 0HL      0.141100
      5 OBG         4.6030    0.5350    1.5900 os        1 0HL     -0.314900
      6 CBI         5.9370    0.1300    1.8990 c3        1 0HL      0.104700
      7 CBF         4.6480   -1.0180   -0.3290 ca        1 0HL     -0.106000
      8 CBB         3.9890   -1.5280   -1.4240 ca        1 0HL     -0.109000
      9 CAX         2.6950   -1.0710   -1.7690 ca        1 0HL      0.024000
     10 CAT         1.9910   -1.5780   -2.9000 ca        1 0HL     -0.094000
     11 CAO         0.7510   -1.1100   -3.2200 ca        1 0HL     -0.069000
     12 CAG         0.1040   -0.0870   -2.4380 ca        1 0HL     -0.606500
     13 SAC        -1.2680    0.4590   -2.9080 s4        1 0HL      1.677300
     14 OAH        -1.8020    1.5530   -2.3100 o         1 0HL     -0.431400
     15 OAI        -1.7410    0.0290   -4.1080 o         1 0HL     -0.431400
     16 N          -2.9590   -1.0050   -1.7620 n7        1 0HL     -0.887200
     17 CAD        -3.3420   -2.0960   -2.6720 c3        1 0HL      0.197100
     18 CAJ        -4.8010   -2.3200   -2.8270 cc        1 0HL     -0.187300
     19 CAP        -5.7230   -1.3010   -3.2260 cc        1 0HL     -0.161000
     20 CAU        -6.9970   -1.8120   -3.3710 cd        1 0HL     -0.180100
     21 SAV        -7.0480   -3.4420   -3.0490 ss        1 0HL      0.158200
     22 CAQ        -5.4340   -3.5460   -2.6920 cd        1 0HL     -0.184100
     23 CA         -2.6770   -1.4690   -0.4040 c3        1 0HL      0.077500
     24 C          -2.4430   -0.2820    0.5710 c         1 0HL      0.695500
     25 O          -1.6000    0.6120    0.3880 o         1 0HL     -0.658500
     26 CB         -3.7650   -2.3160    0.2960 c3        1 0HL     -0.121400
     27 CAM        -4.1080   -1.5860    1.6070 c3        1 0HL      0.085000
     28 NAK        -3.2820   -0.3930    1.6620 n         1 0HL     -0.462800
     29 CAR        -3.2110    0.4350    2.8320 c3        1 0HL      0.169300
     30 CAW        -4.3380    1.4010    2.9970 cc        1 0HL     -0.136300
     31 CAZ        -4.1710    2.8120    2.9550 cc        1 0HL     -0.073000
     32 CBA        -5.6620    1.0640    3.2610 cd        1 0HL     -0.143100
     33 SBE        -6.6230    2.3850    3.4440 ss        1 0HL      0.226200
     34 CBD        -5.3780    3.4730    3.1990 cd        1 0HL     -0.382000
     35 CBH        -5.5370    4.9190    3.1670 cf        1 0HL      0.630800
     36 NBK        -6.0370    5.7090    2.2970 n2        1 0HL     -0.696100
     37 NBJ        -4.9770    5.5690    4.4110 nz        1 0HL     -0.822600
     38 H1          0.3140    1.1710   -0.6770 ha        1 0HL      0.186000
     39 H2          2.2860    1.2230    0.7890 ha        1 0HL      0.167000
     40 H3          6.1800    0.7420    2.8060 h1        1 0HL      0.063033
     41 H4          5.9690   -0.9600    2.1390 h1        1 0HL      0.063033
     42 H5          6.6290    0.3780    1.0580 h1        1 0HL      0.063033
     43 H6          5.6580   -1.3800   -0.0730 ha        1 0HL      0.171000
     44 H7          4.4670   -2.3000   -2.0500 ha        1 0HL      0.167000
     45 H8          2.4740   -2.3550   -3.5170 ha        1 0HL      0.173000
     46 H9          0.2210   -1.5020   -4.1080 ha        1 0HL      0.168000
     47 H10        -2.8470   -3.0530   -2.3380 h1        1 0HL      0.085200
     48 H11        -2.9270   -1.8270   -3.6910 h1        1 0HL      0.085200
     49 H12        -5.4390   -0.2650   -3.4180 ha        1 0HL      0.151000
     50 H13        -7.8710   -1.2370   -3.6800 h4        1 0HL      0.189000
     51 H14        -4.9420   -4.4780   -2.4130 h4        1 0HL      0.181000
     52 H15        -1.7160   -2.0600   -0.4460 h1        1 0HL      0.101700
     53 H16        -3.3680   -3.3380    0.5150 hc        1 0HL      0.088700
     54 H17        -4.6800   -2.4340   -0.3380 hc        1 0HL      0.088700
     55 H18        -5.1940   -1.2940    1.6310 h1        1 0HL      0.062700
     56 H19        -3.9000   -2.2420    2.4980 h1        1 0HL      0.062700
     57 H20        -3.1900   -0.2340    3.7440 h1        1 0HL      0.081200
     58 H21        -2.2390    1.0140    2.7890 h1        1 0HL      0.081200
     59 H22        -3.2150    3.2980    2.7370 ha        1 0HL      0.171000
     60 H23        -6.0310    0.0370    3.3470 h4        1 0HL      0.203000
     61 H24        -6.4100    5.3260    1.4520 hn        1 0HL      0.491400
     62 H25        -4.0200    5.2250    4.5460 hn        1 0HL      0.472133
     63 H26        -4.9700    6.5950    4.3400 hn        1 0HL      0.472133
     64 H          -3.7150   -0.3330   -1.7260 hn        1 0HL      0.391800
     65 HBJ3       -5.5520    5.2900    5.2120 hn        1 0HL      0.472133
@<TRIPOS>BOND
     1    1    2 ar  
     2    1   12 ar  
     3    1   38 1   
     4    2    3 ar  
     5    2    9 ar  
     6    3    4 ar  
     7    3   39 1   
     8    4    5 1   
     9    4    7 ar  
    10    5    6 1   
    11    6   40 1   
    12    6   41 1   
    13    6   42 1   
    14    7    8 ar  
    15    7   43 1   
    16    8    9 ar  
    17    8   44 1   
    18    9   10 ar  
    19   10   11 ar  
    20   10   45 1   
    21   11   12 ar  
    22   11   46 1   
    23   12   13 1   
    24   13   14 1   
    25   13   15 1   
    26   16   17 1   
    27   16   23 1   
    28   16   64 1   
    29   17   18 1   
    30   17   47 1   
    31   17   48 1   
    32   18   19 1   
    33   18   22 2   
    34   19   20 2   
    35   19   49 1   
    36   20   21 1   
    37   20   50 1   
    38   21   22 1   
    39   22   51 1   
    40   23   24 1   
    41   23   26 1   
    42   23   52 1   
    43   24   25 2   
    44   24   28 1   
    45   26   27 1   
    46   26   53 1   
    47   26   54 1   
    48   27   28 1   
    49   27   55 1   
    50   27   56 1   
    51   28   29 1   
    52   29   30 1   
    53   29   57 1   
    54   29   58 1   
    55   30   31 1   
    56   30   32 2   
    57   31   34 2   
    58   31   59 1   
    59   32   33 1   
    60   32   60 1   
    61   33   34 1   
    62   34   35 1   
    63   35   36 2   
    64   35   37 1   
    65   36   61 1   
    66   37   62 1   
    67   37   63 1   
    68   37   65 1   
@<TRIPOS>SUBSTRUCTURE
     1 0HL         1 TEMP              0 ****  ****    0 ROOT
