@<TRIPOS>MOLECULE
0HL
   63    53     1     0     0
SMALL
bcc


@<TRIPOS>ATOM
      1 CAN         2.5630    1.5970   -1.6940 c1        1 0HL      0.019000
      2 CAS         3.8720    1.6960   -2.2260 c1        1 0HL     -0.044000
      3 CAY         4.2480    2.8310   -2.9630 c2        1 0HL     -0.140000
      4 CBC         5.5190    2.9140   -3.5060 c1        1 0HL      0.068000
      5 OBG         5.4850    3.9400   -4.4460 os        1 0HL     -0.209000
      6 CBI         6.6900    4.6450   -4.5620 c3        1 0HL     -0.076000
      7 CBF         6.4240    1.8750   -3.3220 c1        1 0HL     -0.130500
      8 CBB         6.0550    0.7560   -2.5950 c1        1 0HL     -0.130500
      9 CAX         4.7660    0.6690   -2.0440 c1        1 0HL     -0.416000
     10 CAT         4.3790   -0.4870   -1.3240 c1        1 0HL     -0.086500
     11 CAO         3.0930   -0.5840   -0.8010 c1        1 0HL     -0.086500
     12 CAG         2.1830    0.4610   -0.9860 c1        1 0HL     -0.416000
     13 SAC         0.5960    0.3870   -0.1280 ss        1 0HL      2.844000
     14 OAH         0.7740    0.4120    1.3070 o         1 0HL     -0.934000
     15 OAI        -0.1670    1.5900   -0.3360 o         1 0HL     -0.934000
     16 N          -0.2560   -0.9600   -0.6070 n2        1 0HL     -0.806000
     17 CAD        -0.1690   -1.4260   -1.9970 c3        1 0HL      0.054000
     18 CAJ        -0.4950   -2.9110   -2.0550 c2        1 0HL     -0.146000
     19 CAP        -1.9020   -3.5390   -2.4450 c1        1 0HL     -0.151000
     20 CAU        -1.7790   -4.9910   -2.4150 c1        1 0HL     -0.443000
     21 SAV        -0.3220   -5.3390   -2.0150 ss        1 0HL      0.569000
     22 CAQ         0.4370   -4.0000   -1.8020 c1        1 0HL     -0.423000
     23 CA         -0.9710   -1.7310    0.3620 c3        1 0HL      0.023000
     24 C          -1.1020   -0.8990    1.7200 c2        1 0HL      0.297000
     25 O          -0.3370   -0.9530    2.6690 o         1 0HL     -0.374000
     26 CB         -2.2410   -1.8500   -0.0110 c3        1 0HL     -0.193000
     27 CAM        -2.9690   -0.5910    0.5850 c3        1 0HL     -0.026000
     28 NAK        -2.0280    0.0100    1.5280 n         1 0HL     -0.311000
     29 CAR        -2.2850    1.1580    2.3770 c3        1 0HL      0.047000
     30 CAW        -3.6310    0.9770    3.0930 c2        1 0HL     -0.128000
     31 CAZ        -3.8520    0.2530    4.4980 c1        1 0HL     -0.114000
     32 CBA        -4.9130    1.4970    2.6390 c1        1 0HL     -0.449000
     33 SBE        -5.9840    1.1360    3.7140 ss        1 0HL      0.650000
     34 CBD        -5.2640    0.3600    4.8520 c1        1 0HL     -0.438000
     35 CBH        -5.9130   -0.1430    6.1580 c1        1 0HL      0.142000
     36 NBK        -6.6420   -1.2500    6.1530 n1        1 0HL     -0.291000
     37 NBJ        -5.7270    0.5910    7.3840 n3        1 0HL     -0.326000
     38 H1          1.9280    2.3270   -1.8230 ha        1 0HL      0.159000
     39 H2          3.6110    3.5610   -3.0950 ha        1 0HL      0.155000
     40 H3          7.2480    4.2290   -5.2540 h1        1 0HL      0.084667
     41 H4          6.5030    5.5660   -4.8060 h1        1 0HL      0.084667
     42 H5          7.1650    4.6250   -3.7030 h1        1 0HL      0.084667
     43 H6          7.3260    1.9360   -3.7070 ha        1 0HL      0.140500
     44 H7          6.6970    0.0180   -2.4660 ha        1 0HL      0.140500
     45 H8          5.0190   -1.2220   -1.1930 ha        1 0HL      0.155000
     46 H9          2.8270   -1.3790   -0.3070 ha        1 0HL      0.155000
     47 H10         0.7410   -1.2760   -2.3370 h1        1 0HL      0.098000
     48 H11        -0.8120   -0.9280   -2.5500 h1        1 0HL      0.098000
     49 H12        -2.7150   -3.0360   -2.6680 DU        1 0HL      0.169833
     50 H13        -2.4930   -5.6360   -2.6130 DU        1 0HL      0.169833
     51 H14         1.3640   -3.9060   -1.5460 DU        1 0HL      0.169833
     52 H15        -0.4330   -2.5450    0.3860 h1        1 0HL      0.139000
     53 H16        -2.6270   -2.6700    0.3560 hc        1 0HL      0.105500
     54 H17        -2.3080   -1.8500   -0.9910 hc        1 0HL      0.105500
     55 H18        -3.1830    0.0440   -0.1290 h1        1 0HL      0.094500
     56 H19        -3.7910   -0.8640    1.0530 h1        1 0HL      0.094500
     57 H20        -2.3130    1.9730    1.8260 h1        1 0HL      0.110500
     58 H21        -1.5720    1.2380    3.0400 h1        1 0HL      0.110500
     59 H22        -3.1640   -0.1830    5.0290 DU        1 0HL      0.169833
     60 H23        -5.0750    1.9890    1.8050 DU        1 0HL      0.169833
     61 H24        -6.7610   -1.7200    5.3690 DU        1 0HL      0.169833
     62 H25        -6.2060    0.3550    8.1420 hn        1 0HL      0.187500
     63 H26        -5.1120    1.2500    7.4250 hn        1 0HL      0.187500
@<TRIPOS>BOND
     1    1    2 1   
     2    1   38 1   
     3    2    3 1   
     4    3    4 1   
     5    3   39 1   
     6    4    5 1   
     7    5    6 1   
     8    6   40 1   
     9    6   41 1   
    10    6   42 1   
    11    7    8 1   
    12    7   43 1   
    13    8   44 1   
    14    9   10 1   
    15   10   45 1   
    16   11   12 1   
    17   11   46 1   
    18   13   14 1   
    19   13   15 1   
    20   16   17 1   
    21   16   23 1   
    22   17   18 1   
    23   17   47 1   
    24   17   48 1   
    25   18   19 1   
    26   18   22 1   
    27   19   20 1   
    28   20   21 1   
    29   21   22 1   
    30   23   24 1   
    31   23   26 1   
    32   23   52 1   
    33   24   25 1   
    34   24   28 1   
    35   26   27 1   
    36   26   53 1   
    37   26   54 1   
    38   27   28 1   
    39   27   55 1   
    40   27   56 1   
    41   28   29 1   
    42   29   30 1   
    43   29   57 1   
    44   29   58 1   
    45   30   31 1   
    46   30   32 1   
    47   31   34 1   
    48   32   33 1   
    49   33   34 1   
    50   35   36 1   
    51   35   37 1   
    52   37   62 1   
    53   37   63 1   
@<TRIPOS>SUBSTRUCTURE
     1 0HL         1 TEMP              0 ****  ****    0 ROOT
