@<TRIPOS>MOLECULE
0HL
   65    68     1     0     0
SMALL
bcc


@<TRIPOS>ATOM
      1 CAN         0.7980    0.4000   -1.3080 ca        1 0HL      0.125000
      2 CAS         2.0770   -0.0730   -0.9580 ca        1 0HL     -0.070000
      3 CAY         2.7570    0.4330    0.1790 ca        1 0HL     -0.136000
      4 CBC         4.0240   -0.0450    0.4910 ca        1 0HL      0.141100
      5 OBG         4.5980    0.4990    1.6130 os        1 0HL     -0.314900
      6 CBI         5.9300    0.0870    1.9240 c3        1 0HL      0.104700
      7 CBF         4.6440   -1.0370   -0.3190 ca        1 0HL     -0.106000
      8 CBB         3.9880   -1.5360   -1.4210 ca        1 0HL     -0.109000
      9 CAX         2.6960   -1.0710   -1.7670 ca        1 0HL      0.024000
     10 CAT         1.9950   -1.5660   -2.9050 ca        1 0HL     -0.094000
     11 CAO         0.7580   -1.0910   -3.2250 ca        1 0HL     -0.069000
     12 CAG         0.1120   -0.0720   -2.4370 ca        1 0HL     -0.606500
     13 SAC        -1.2570    0.4820   -2.9070 s4        1 0HL      1.677300
     14 OAH        -1.7890    1.5740   -2.3020 o         1 0HL     -0.431400
     15 OAI        -1.7270    0.0650   -4.1120 o         1 0HL     -0.431400
     16 N          -2.9570   -0.9840   -1.7790 n3        1 0HL     -0.887200
     17 CAD        -3.3450   -2.0640   -2.7000 c3        1 0HL      0.197100
     18 CAJ        -4.8050   -2.2770   -2.8590 cc        1 0HL     -0.187300
     19 CAP        -5.7210   -1.2490   -3.2480 cc        1 0HL     -0.161000
     20 CAU        -6.9980   -1.7510   -3.4000 cd        1 0HL     -0.180100
     21 SAV        -7.0580   -3.3840   -3.0950 ss        1 0HL      0.158200
     22 CAQ        -5.4450   -3.5010   -2.7370 cd        1 0HL     -0.184100
     23 CA         -2.6790   -1.4640   -0.4250 c3        1 0HL      0.077500
     24 C          -2.4430   -0.2890    0.5630 c         1 0HL      0.695500
     25 O          -1.5970    0.6060    0.3910 o         1 0HL     -0.658500
     26 CB         -3.7700   -2.3160    0.2640 c3        1 0HL     -0.121400
     27 CAM        -4.1120   -1.6010    1.5840 c3        1 0HL      0.085000
     28 NAK        -3.2830   -0.4100    1.6530 n         1 0HL     -0.462800
     29 CAR        -3.2110    0.4060    2.8310 c3        1 0HL      0.169300
     30 CAW        -4.3380    1.3710    3.0050 cc        1 0HL     -0.136300
     31 CAZ        -4.1700    2.7820    2.9760 cc        1 0HL     -0.073000
     32 CBA        -5.6620    1.0330    3.2680 cd        1 0HL     -0.143100
     33 SBE        -6.6220    2.3520    3.4630 ss        1 0HL      0.226200
     34 CBD        -5.3760    3.4410    3.2270 cd        1 0HL     -0.382000
     35 CBH        -5.5350    4.8880    3.2070 cf        1 0HL      0.630800
     36 NBK        -6.0360    5.6850    2.3450 n2        1 0HL     -0.696100
     37 NBJ        -4.9710    5.5270    4.4550 n4        1 0HL     -0.822600
     38 H1          0.3200    1.1700   -0.6650 ha        1 0HL      0.186000
     39 H2          2.2870    1.2030    0.8090 ha        1 0HL      0.167000
     40 H3          6.6250    0.3390    1.0880 h1        1 0HL      0.062700
     41 H4          5.9560   -1.0060    2.1540 h1        1 0HL      0.062700
     42 H5          6.1710    0.6900    2.8370 h1        1 0HL      0.062700
     43 H6          5.6520   -1.4050   -0.0630 ha        1 0HL      0.171000
     44 H7          4.4660   -2.3040   -2.0520 ha        1 0HL      0.167000
     45 H8          2.4780   -2.3400   -3.5270 ha        1 0HL      0.173000
     46 H9          0.2300   -1.4730   -4.1180 ha        1 0HL      0.168000
     47 H10        -2.8560   -3.0270   -2.3760 h1        1 0HL      0.085200
     48 H11        -2.9270   -1.7860   -3.7150 h1        1 0HL      0.085200
     49 H12        -5.4300   -0.2120   -3.4280 ha        1 0HL      0.151000
     50 H13        -7.8680   -1.1680   -3.7030 h4        1 0HL      0.189000
     51 H14        -4.9590   -4.4390   -2.4680 h4        1 0HL      0.181000
     52 H15        -1.7180   -2.0570   -0.4720 h1        1 0HL      0.101700
     53 H16        -3.3760   -3.3420    0.4710 hc        1 0HL      0.088700
     54 H17        -4.6850   -2.4240   -0.3720 hc        1 0HL      0.088700
     55 H18        -3.9050   -2.2670    2.4660 h1        1 0HL      0.062700
     56 H19        -5.1970   -1.3060    1.6110 h1        1 0HL      0.062700
     57 H20        -2.2390    0.9830    2.7950 h1        1 0HL      0.081200
     58 H21        -3.1920   -0.2730    3.7360 h1        1 0HL      0.081200
     59 H22        -3.2140    3.2690    2.7610 ha        1 0HL      0.171000
     60 H23        -6.0310    0.0050    3.3460 h4        1 0HL      0.203000
     61 H24        -6.4100    5.3100    1.4980 hn        1 0HL      0.491400
     62 H25        -5.5450    5.2410    5.2560 hn        1 0HL      0.472133
     63 H26        -4.0150    5.1810    4.5860 hn        1 0HL      0.472133
     64 H          -3.7090   -0.3080   -1.7350 hn        1 0HL      0.391800
     65 HBJ3       -4.9640    6.5540    4.3930 hn        1 0HL      0.472133
@<TRIPOS>BOND
     1    1    2 ar  
     2    1   12 ar  
     3    1   38 1   
     4    2    3 ar  
     5    2    9 ar  
     6    3    4 ar  
     7    3   39 1   
     8    4    5 1   
     9    4    7 ar  
    10    5    6 1   
    11    6   40 1   
    12    6   41 1   
    13    6   42 1   
    14    7    8 ar  
    15    7   43 1   
    16    8    9 ar  
    17    8   44 1   
    18    9   10 ar  
    19   10   11 ar  
    20   10   45 1   
    21   11   12 ar  
    22   11   46 1   
    23   12   13 1   
    24   13   14 1   
    25   13   15 1   
    26   16   17 1   
    27   16   23 1   
    28   16   64 1   
    29   17   18 1   
    30   17   47 1   
    31   17   48 1   
    32   18   19 1   
    33   18   22 2   
    34   19   20 2   
    35   19   49 1   
    36   20   21 1   
    37   20   50 1   
    38   21   22 1   
    39   22   51 1   
    40   23   24 1   
    41   23   26 1   
    42   23   52 1   
    43   24   25 2   
    44   24   28 1   
    45   26   27 1   
    46   26   53 1   
    47   26   54 1   
    48   27   28 1   
    49   27   55 1   
    50   27   56 1   
    51   28   29 1   
    52   29   30 1   
    53   29   57 1   
    54   29   58 1   
    55   30   31 1   
    56   30   32 2   
    57   31   34 2   
    58   31   59 1   
    59   32   33 1   
    60   32   60 1   
    61   33   34 1   
    62   34   35 1   
    63   35   36 2   
    64   35   37 1   
    65   36   61 1   
    66   37   62 1   
    67   37   63 1   
    68   37   65 1   
@<TRIPOS>SUBSTRUCTURE
     1 0HL         1 TEMP              0 ****  ****    0 ROOT
