@<TRIPOS>MOLECULE
0HL
   65    68     1     0     0
SMALL
bcc


@<TRIPOS>ATOM
      1 CAN         0.6690    0.3600   -1.2520 ca        1 0HL      0.120000
      2 CAS         1.9800   -0.1070   -1.0340 ca        1 0HL     -0.069000
      3 CAY         2.7460    0.3570    0.0660 ca        1 0HL     -0.136000
      4 CBC         4.0410   -0.1130    0.2480 ca        1 0HL      0.142100
      5 OBG         4.7000    0.3900    1.3430 os        1 0HL     -0.313900
      6 CBI         6.0550   -0.0230    1.5280 c3        1 0HL      0.104700
      7 CBF         4.6040   -1.0570   -0.6560 ca        1 0HL     -0.106000
      8 CBB         3.8640   -1.5150   -1.7220 ca        1 0HL     -0.108000
      9 CAX         2.5420   -1.0560   -1.9370 ca        1 0HL      0.023000
     10 CAT         1.7540   -1.5120   -3.0340 ca        1 0HL     -0.093000
     11 CAO         0.4880   -1.0440   -3.2270 ca        1 0HL     -0.071000
     12 CAG        -0.1010   -0.0720   -2.3420 ca        1 0HL     -0.603500
     13 SAC        -1.5160    0.4780   -2.6660 s4        1 0HL      1.675300
     14 OAH        -2.0070    1.5360   -1.9730 o         1 0HL     -0.435400
     15 OAI        -2.0840    0.1120   -3.8470 o         1 0HL     -0.435400
     16 N          -2.9810   -1.1140   -1.4740 n3        1 0HL     -0.893200
     17 CAD        -3.1870   -2.2790   -2.3580 c3        1 0HL      0.210100
     18 CAJ        -4.5420   -2.3590   -2.9520 cc        1 0HL     -0.196300
     19 CAP        -4.9630   -1.5360   -4.0450 cc        1 0HL     -0.146000
     20 CAU        -6.2460   -1.8550   -4.4400 cd        1 0HL     -0.179100
     21 SAV        -6.8810   -3.0940   -3.5290 ss        1 0HL      0.154200
     22 CAQ        -5.5340   -3.2550   -2.5820 cd        1 0HL     -0.186100
     23 CA         -2.6980   -1.5130   -0.0960 c3        1 0HL      0.076500
     24 C          -2.4890   -0.2900    0.8370 c         1 0HL      0.696500
     25 O          -1.6370    0.5930    0.6440 o         1 0HL     -0.649500
     26 CB         -3.7940   -2.3440    0.6150 c3        1 0HL     -0.121400
     27 CAM        -4.1750   -1.5600    1.8850 c3        1 0HL      0.085000
     28 NAK        -3.3590   -0.3580    1.9080 n         1 0HL     -0.463800
     29 CAR        -3.2990    0.5010    3.0570 c3        1 0HL      0.169300
     30 CAW        -4.4190    1.4820    3.1740 cc        1 0HL     -0.135300
     31 CAZ        -4.2340    2.8900    3.1040 cc        1 0HL     -0.073000
     32 CBA        -5.7530    1.1660    3.4160 cd        1 0HL     -0.143100
     33 SBE        -6.7020    2.5020    3.5470 ss        1 0HL      0.225200
     34 CBD        -5.4380    3.5690    3.3060 cd        1 0HL     -0.381000
     35 CBH        -5.5790    5.0160    3.2370 cf        1 0HL      0.630800
     36 NBK        -6.0540    5.7910    2.3410 n2        1 0HL     -0.696100
     37 NBJ        -5.0320    5.6880    4.4750 n4        1 0HL     -0.822600
     38 H1          0.2360    1.0900   -0.5360 ha        1 0HL      0.186000
     39 H2          2.3210    1.0890    0.7690 ha        1 0HL      0.167000
     40 H3          6.6810    0.2760    0.6530 h1        1 0HL      0.063033
     41 H4          6.1070   -1.1240    1.7040 h1        1 0HL      0.063033
     42 H5          6.3640    0.5400    2.4470 h1        1 0HL      0.063033
     43 H6          5.6340   -1.4190   -0.5020 ha        1 0HL      0.170000
     44 H7          4.2970   -2.2460   -2.4250 ha        1 0HL      0.167000
     45 H8          2.1920   -2.2490   -3.7280 ha        1 0HL      0.172000
     46 H9         -0.1120   -1.3960   -4.0870 ha        1 0HL      0.167000
     47 H10        -2.9630   -3.2380   -1.8080 h1        1 0HL      0.073200
     48 H11        -2.4300   -2.1790   -3.1930 h1        1 0HL      0.073200
     49 H12        -4.3230   -0.7790   -4.5070 ha        1 0HL      0.171000
     50 H13        -6.7880   -1.3780   -5.2590 h4        1 0HL      0.192000
     51 H14        -5.4440   -4.0000   -1.7910 h4        1 0HL      0.174000
     52 H15        -1.7290   -2.0930   -0.1010 h1        1 0HL      0.106700
     53 H16        -3.3910   -3.3500    0.8880 hc        1 0HL      0.085200
     54 H17        -4.6920   -2.4990   -0.0340 hc        1 0HL      0.085200
     55 H18        -3.9850   -2.1760    2.8070 h1        1 0HL      0.063200
     56 H19        -5.2630   -1.2750    1.8680 h1        1 0HL      0.063200
     57 H20        -2.3210    1.0680    3.0160 h1        1 0HL      0.081700
     58 H21        -3.3020   -0.1430    3.9880 h1        1 0HL      0.081700
     59 H22        -3.2680    3.3580    2.8960 ha        1 0HL      0.172000
     60 H23        -6.1360    0.1460    3.5160 h4        1 0HL      0.202000
     61 H24        -6.4160    5.3930    1.4980 hn        1 0HL      0.491400
     62 H25        -5.0110    6.7120    4.3800 hn        1 0HL      0.472133
     63 H26        -5.6240    5.4350    5.2730 hn        1 0HL      0.472133
     64 H          -3.8170   -0.5440   -1.4790 hn        1 0HL      0.394800
     65 HBJ3       -4.0820    5.3360    4.6350 hn        1 0HL      0.472133
@<TRIPOS>BOND
     1    1    2 ar  
     2    1   12 ar  
     3    1   38 1   
     4    2    3 ar  
     5    2    9 ar  
     6    3    4 ar  
     7    3   39 1   
     8    4    5 1   
     9    4    7 ar  
    10    5    6 1   
    11    6   40 1   
    12    6   41 1   
    13    6   42 1   
    14    7    8 ar  
    15    7   43 1   
    16    8    9 ar  
    17    8   44 1   
    18    9   10 ar  
    19   10   11 ar  
    20   10   45 1   
    21   11   12 ar  
    22   11   46 1   
    23   12   13 1   
    24   13   14 1   
    25   13   15 1   
    26   16   17 1   
    27   16   23 1   
    28   16   64 1   
    29   17   18 1   
    30   17   47 1   
    31   17   48 1   
    32   18   19 1   
    33   18   22 2   
    34   19   20 2   
    35   19   49 1   
    36   20   21 1   
    37   20   50 1   
    38   21   22 1   
    39   22   51 1   
    40   23   24 1   
    41   23   26 1   
    42   23   52 1   
    43   24   25 2   
    44   24   28 1   
    45   26   27 1   
    46   26   53 1   
    47   26   54 1   
    48   27   28 1   
    49   27   55 1   
    50   27   56 1   
    51   28   29 1   
    52   29   30 1   
    53   29   57 1   
    54   29   58 1   
    55   30   31 1   
    56   30   32 2   
    57   31   34 2   
    58   31   59 1   
    59   32   33 1   
    60   32   60 1   
    61   33   34 1   
    62   34   35 1   
    63   35   36 2   
    64   35   37 1   
    65   36   61 1   
    66   37   62 1   
    67   37   63 1   
    68   37   65 1   
@<TRIPOS>SUBSTRUCTURE
     1 0HL         1 TEMP              0 ****  ****    0 ROOT
