@<TRIPOS>MOLECULE
0HM
   56    59     1     0     0
SMALL
bcc


@<TRIPOS>ATOM
      1 CAB        -1.1350   -1.5340    0.4430 ca        1 0HM     -0.133000
      2 CAC         0.0430   -2.1040   -0.0340 ca        1 0HM     -0.117000
      3 CAD         1.2750   -1.5200    0.2660 ca        1 0HM     -0.102000
      4 CAE         1.3250   -0.3670    1.0500 ca        1 0HM     -0.117000
      5 CAF         0.1470    0.2040    1.5340 ca        1 0HM     -0.133000
      6 CAA        -1.0880   -0.3750    1.2280 ca        1 0HM     -0.152300
      7 CAL        -2.3650    0.1580    1.8060 c3        1 0HM      0.071600
      8 NAG        -2.5500    1.5850    1.7320 na        1 0HM     -0.156900
      9 CAK        -2.8720    2.4040    2.8060 cc        1 0HM     -0.194600
     10 CAJ        -2.9800    3.7210    2.2950 cd        1 0HM      0.302200
     11 NAI        -2.7270    3.7240    0.9400 nd        1 0HM     -0.634000
     12 CAH        -2.4580    2.4270    0.6030 cc        1 0HM      0.279800
     13 CBD        -2.0710    1.9920   -0.7650 c3        1 0HM     -0.011000
     14 NAN        -3.2210    1.5580   -1.5940 na        1 0HM      0.086900
     15 CAM        -3.4160    0.2230   -1.7900 ca        1 0HM     -0.068300
     16 CAQ        -4.4610   -0.2660   -2.5940 ca        1 0HM     -0.088000
     17 CAR        -5.3200    0.6230   -3.2250 ca        1 0HM     -0.101000
     18 CAP        -5.1190    2.0050   -3.0220 ca        1 0HM      0.158100
     19 OBE        -5.8600    2.9790   -3.6160 oh        1 0HM     -0.454100
     20 CAO        -4.0740    2.4590   -2.1750 ca        1 0HM     -0.106900
     21 CAS        -4.0440    3.9490   -1.8590 c         1 0HM      0.700700
     22 OAU        -4.8490    4.3950   -1.0390 o         1 0HM     -0.475100
     23 NAT        -3.1210    4.6900   -2.5830 ns        1 0HM     -0.455100
     24 CAX        -2.9990    6.0890   -2.5260 ca        1 0HM      0.110600
     25 CAY        -3.4780    6.8510   -1.4350 ca        1 0HM     -0.153500
     26 CAZ        -3.3390    8.2330   -1.4360 ca        1 0HM     -0.064500
     27 CAW        -2.3520    6.7610   -3.5940 ca        1 0HM     -0.153500
     28 CAV        -2.2160    8.1420   -3.5740 ca        1 0HM     -0.064500
     29 CBA        -2.7150    8.8920   -2.5020 ca        1 0HM     -0.219300
     30 CBB        -2.6570   10.3770   -2.5340 c3        1 0HM      0.177100
     31 NBC        -1.4540   10.9030   -1.8040 nz        1 0HM     -0.844600
     32 H1         -2.0980   -2.0290    0.2430 ha        1 0HM      0.138000
     33 H2          0.0050   -3.0290   -0.6310 ha        1 0HM      0.154500
     34 H3          2.2070   -1.9780   -0.1020 ha        1 0HM      0.159000
     35 H4          2.2970    0.0860    1.3030 ha        1 0HM      0.154500
     36 H5          0.2000    1.0980    2.1750 ha        1 0HM      0.138000
     37 H6         -3.2460   -0.3300    1.2900 h1        1 0HM      0.080700
     38 H7         -2.4050   -0.1360    2.8990 h1        1 0HM      0.080700
     39 H8         -3.0020    2.0240    3.8210 h4        1 0HM      0.206000
     40 H9         -3.2290    4.6320    2.8430 h4        1 0HM      0.063100
     41 H10        -1.5700    2.8470   -1.3070 h1        1 0HM      0.120700
     42 H11        -1.3440    1.1250   -0.7050 h1        1 0HM      0.120700
     43 H12        -2.7090   -0.4740   -1.2840 h4        1 0HM      0.220000
     44 H13        -4.5780   -1.3590   -2.7140 ha        1 0HM      0.207000
     45 H14        -6.1440    0.2640   -3.8670 ha        1 0HM      0.199000
     46 H15        -6.6330    2.5750   -4.0530 ho        1 0HM      0.472000
     47 H16        -2.6640    4.2440   -3.3500 hn        1 0HM      0.332500
     48 H17        -3.9730    6.3590   -0.5770 ha        1 0HM      0.176500
     49 H18        -3.7460    8.8090   -0.5880 ha        1 0HM      0.149500
     50 H19        -1.9590    6.2000   -4.4570 ha        1 0HM      0.176500
     51 H20        -1.7320    8.6450   -4.4280 ha        1 0HM      0.149500
     52 H21        -2.5980   10.7570   -3.5960 hx        1 0HM      0.117200
     53 H22        -3.5700   10.8230   -2.0390 hx        1 0HM      0.117200
     54 H23        -1.4730   10.5880   -0.8280 hn        1 0HM      0.460467
     55 H24        -1.4460   11.9270   -1.8270 hn        1 0HM      0.460467
     56 HBC3       -0.5960   10.5500   -2.2400 hn        1 0HM      0.460467
@<TRIPOS>BOND
     1    1    2 ar  
     2    1    6 ar  
     3    1   32 1   
     4    2    3 ar  
     5    2   33 1   
     6    3    4 ar  
     7    3   34 1   
     8    4    5 ar  
     9    4   35 1   
    10    5    6 ar  
    11    5   36 1   
    12    6    7 1   
    13    7    8 1   
    14    7   37 1   
    15    7   38 1   
    16    8    9 1   
    17    8   12 1   
    18    9   10 2   
    19    9   39 1   
    20   10   11 1   
    21   10   40 1   
    22   11   12 2   
    23   12   13 1   
    24   13   14 1   
    25   13   41 1   
    26   13   42 1   
    27   14   15 1   
    28   14   20 2   
    29   15   16 ar  
    30   15   43 1   
    31   16   17 ar  
    32   16   44 1   
    33   17   18 ar  
    34   17   45 1   
    35   18   19 1   
    36   18   20 ar  
    37   19   46 1   
    38   20   21 1   
    39   21   22 2   
    40   21   23 1   
    41   23   24 1   
    42   23   47 1   
    43   24   25 ar  
    44   24   27 ar  
    45   25   26 ar  
    46   25   48 1   
    47   26   29 ar  
    48   26   49 1   
    49   27   28 ar  
    50   27   50 1   
    51   28   29 ar  
    52   28   51 1   
    53   29   30 1   
    54   30   31 1   
    55   30   52 1   
    56   30   53 1   
    57   31   54 1   
    58   31   55 1   
    59   31   56 1   
@<TRIPOS>SUBSTRUCTURE
     1 0HM         1 TEMP              0 ****  ****    0 ROOT
