@<TRIPOS>MOLECULE
0HM
   56    59     1     0     0
SMALL
bcc


@<TRIPOS>ATOM
      1 CAB        -1.1600   -1.5400    0.4400 ca        1 0HM     -0.133000
      2 CAC         0.0160   -2.1160   -0.0370 ca        1 0HM     -0.117000
      3 CAD         1.2510   -1.5380    0.2640 ca        1 0HM     -0.102000
      4 CAE         1.3070   -0.3870    1.0500 ca        1 0HM     -0.117000
      5 CAF         0.1320    0.1890    1.5350 ca        1 0HM     -0.133000
      6 CAA        -1.1060   -0.3830    1.2270 ca        1 0HM     -0.152300
      7 CAL        -2.3810    0.1560    1.8060 c3        1 0HM      0.071600
      8 NAG        -2.5580    1.5840    1.7320 na        1 0HM     -0.156900
      9 CAK        -2.8750    2.4040    2.8070 cc        1 0HM     -0.194600
     10 CAJ        -2.9770    3.7230    2.2960 cd        1 0HM      0.302200
     11 NAI        -2.7250    3.7250    0.9410 nd        1 0HM     -0.634000
     12 CAH        -2.4630    2.4260    0.6030 cc        1 0HM      0.279800
     13 CBD        -2.0800    1.9890   -0.7650 c3        1 0HM     -0.011000
     14 NAN        -3.2340    1.5620   -1.5930 na        1 0HM      0.086900
     15 CAM        -3.4370    0.2280   -1.7900 ca        1 0HM     -0.068300
     16 CAQ        -4.4850   -0.2550   -2.5920 ca        1 0HM     -0.088000
     17 CAR        -5.3390    0.6400   -3.2220 ca        1 0HM     -0.101000
     18 CAP        -5.1300    2.0200   -3.0200 ca        1 0HM      0.158100
     19 OBE        -5.8660    2.9990   -3.6130 oh        1 0HM     -0.454100
     20 CAO        -4.0820    2.4680   -2.1730 ca        1 0HM     -0.106900
     21 CAS        -4.0430    3.9580   -1.8570 c         1 0HM      0.700700
     22 OAU        -4.8440    4.4090   -1.0360 o         1 0HM     -0.475100
     23 NAT        -3.1160    4.6930   -2.5830 n         1 0HM     -0.455100
     24 CAX        -2.9860    6.0920   -2.5260 ca        1 0HM      0.110600
     25 CAY        -3.4590    6.8560   -1.4340 ca        1 0HM     -0.153500
     26 CAZ        -3.3120    8.2380   -1.4360 ca        1 0HM     -0.064500
     27 CAW        -2.3360    6.7600   -3.5940 ca        1 0HM     -0.153500
     28 CAV        -2.1930    8.1400   -3.5750 ca        1 0HM     -0.064500
     29 CBA        -2.6860    8.8930   -2.5030 ca        1 0HM     -0.219300
     30 CBB        -2.6190   10.3780   -2.5350 c3        1 0HM      0.177100
     31 NBC        -1.4120   10.8960   -1.8070 n4        1 0HM     -0.844600
     32 H1         -2.1250   -2.0300    0.2390 ha        1 0HM      0.138000
     33 H2         -0.0270   -3.0390   -0.6360 ha        1 0HM      0.154500
     34 H3          2.1810   -2.0010   -0.1050 ha        1 0HM      0.159000
     35 H4          2.2810    0.0600    1.3040 ha        1 0HM      0.154500
     36 H5          0.1890    1.0820    2.1770 ha        1 0HM      0.138000
     37 H6         -3.2640   -0.3280    1.2900 h1        1 0HM      0.080700
     38 H7         -2.4220   -0.1380    2.8980 h1        1 0HM      0.080700
     39 H8         -3.0070    2.0250    3.8220 h4        1 0HM      0.206000
     40 H9         -3.2210    4.6340    2.8450 h4        1 0HM      0.063100
     41 H10        -1.5740    2.8410   -1.3070 h1        1 0HM      0.120700
     42 H11        -1.3580    1.1180   -0.7060 h1        1 0HM      0.120700
     43 H12        -2.7330   -0.4730   -1.2840 h4        1 0HM      0.220000
     44 H13        -4.6090   -1.3470   -2.7120 ha        1 0HM      0.207000
     45 H14        -6.1670    0.2850   -3.8630 ha        1 0HM      0.199000
     46 H15        -6.6410    2.6000   -4.0490 ho        1 0HM      0.472000
     47 H16        -2.6630    4.2440   -3.3490 hn        1 0HM      0.332500
     48 H17        -3.9550    6.3680   -0.5760 ha        1 0HM      0.176500
     49 H18        -3.7150    8.8160   -0.5880 ha        1 0HM      0.149500
     50 H19        -1.9470    6.1960   -4.4590 ha        1 0HM      0.176500
     51 H20        -1.7060    8.6400   -4.4300 ha        1 0HM      0.149500
     52 H21        -2.5600   10.7570   -3.5970 hx        1 0HM      0.117200
     53 H22        -3.5290   10.8290   -2.0380 hx        1 0HM      0.117200
     54 H23        -1.3980   11.9210   -1.8310 hn        1 0HM      0.460467
     55 H24        -1.4300   10.5830   -0.8320 hn        1 0HM      0.460467
     56 HBC3       -0.5570   10.5390   -2.2450 hn        1 0HM      0.460467
@<TRIPOS>BOND
     1    1    2 ar  
     2    1    6 ar  
     3    1   32 1   
     4    2    3 ar  
     5    2   33 1   
     6    3    4 ar  
     7    3   34 1   
     8    4    5 ar  
     9    4   35 1   
    10    5    6 ar  
    11    5   36 1   
    12    6    7 1   
    13    7    8 1   
    14    7   37 1   
    15    7   38 1   
    16    8    9 1   
    17    8   12 1   
    18    9   10 2   
    19    9   39 1   
    20   10   11 1   
    21   10   40 1   
    22   11   12 2   
    23   12   13 1   
    24   13   14 1   
    25   13   41 1   
    26   13   42 1   
    27   14   15 1   
    28   14   20 2   
    29   15   16 ar  
    30   15   43 1   
    31   16   17 ar  
    32   16   44 1   
    33   17   18 ar  
    34   17   45 1   
    35   18   19 1   
    36   18   20 ar  
    37   19   46 1   
    38   20   21 1   
    39   21   22 2   
    40   21   23 1   
    41   23   24 1   
    42   23   47 1   
    43   24   25 ar  
    44   24   27 ar  
    45   25   26 ar  
    46   25   48 1   
    47   26   29 ar  
    48   26   49 1   
    49   27   28 ar  
    50   27   50 1   
    51   28   29 ar  
    52   28   51 1   
    53   29   30 1   
    54   30   31 1   
    55   30   52 1   
    56   30   53 1   
    57   31   54 1   
    58   31   55 1   
    59   31   56 1   
@<TRIPOS>SUBSTRUCTURE
     1 0HM         1 TEMP              0 ****  ****    0 ROOT
