@<TRIPOS>MOLECULE
0HM
   57    60     1     0     0
SMALL
bcc


@<TRIPOS>ATOM
      1 CAB        -1.5830   -1.6380    0.5280 ca        1 0HM     -0.134000
      2 CAC        -0.6350   -2.5040   -0.0130 ca        1 0HM     -0.115000
      3 CAD         0.7200   -2.3330    0.2820 ca        1 0HM     -0.086000
      4 CAE         1.1250   -1.2960    1.1220 ca        1 0HM     -0.115000
      5 CAF         0.1780   -0.4310    1.6730 ca        1 0HM     -0.134000
      6 CAA        -1.1780   -0.5980    1.3770 ca        1 0HM     -0.171300
      7 CAL        -2.2160    0.2400    2.0550 c3        1 0HM      0.061600
      8 NAG        -2.1330    1.6660    1.8030 na        1 0HM     -0.107900
      9 CAK        -2.1560    2.6430    2.7840 cc        1 0HM     -0.165600
     10 CAJ        -2.0780    3.9000    2.1180 cd        1 0HM      0.332200
     11 NAI        -2.0000    3.6960    0.7650 nd        1 0HM     -0.772000
     12 CAH        -2.0280    2.3340    0.5710 cc        1 0HM      0.265800
     13 CBD        -1.8320    1.6940   -0.7530 c3        1 0HM     -0.024000
     14 NAN        -3.0640    1.5400   -1.5670 na        1 0HM      0.083900
     15 CAM        -3.4090    0.2910   -1.9620 ca        1 0HM     -0.018300
     16 CAQ        -4.5120    0.0400   -2.8210 ca        1 0HM     -0.063000
     17 CAR        -5.2600    1.0950   -3.2960 ca        1 0HM     -0.088000
     18 CAP        -4.9120    2.4090   -2.8780 ca        1 0HM      0.211100
     19 OBE        -5.5540    3.5280   -3.2940 oh        1 0HM     -0.464100
     20 CAO        -3.8290    2.6160   -1.9880 ca        1 0HM     -0.194900
     21 CAS        -3.7120    3.9970   -1.4270 c         1 0HM      0.590700
     22 OAU        -4.5690    4.5320   -0.7490 o         1 0HM     -0.335100
     23 NAT        -2.4640    4.7760   -1.7600 n4        1 0HM     -0.555200
     24 CAX        -2.7040    6.1830   -2.1030 ca        1 0HM     -0.006400
     25 CAY        -3.1730    7.0740   -1.1200 ca        1 0HM     -0.084000
     26 CAZ        -3.3800    8.4140   -1.4510 ca        1 0HM     -0.076000
     27 CAW        -2.4400    6.6410   -3.4070 ca        1 0HM     -0.084000
     28 CAV        -2.6470    7.9850   -3.7170 ca        1 0HM     -0.076000
     29 CBA        -3.1220    8.8760   -2.7460 ca        1 0HM     -0.124300
     30 CBB        -3.4560   10.2860   -3.1230 c3        1 0HM      0.149100
     31 NBC        -2.3690   11.2640   -2.8160 n4        1 0HM     -0.839600
     32 H1         -2.6530   -1.8190    0.3480 ha        1 0HM      0.136500
     33 H2         -0.9550   -3.3470   -0.6470 ha        1 0HM      0.164500
     34 H3          1.4670   -3.0330   -0.1320 ha        1 0HM      0.173000
     35 H4          2.1920   -1.1730    1.3730 ha        1 0HM      0.164500
     36 H5          0.5030    0.3630    2.3640 ha        1 0HM      0.136500
     37 H6         -2.1200    0.0930    3.1750 h1        1 0HM      0.098200
     38 H7         -3.2520   -0.0980    1.7530 h1        1 0HM      0.098200
     39 H8         -2.2260    2.4170    3.8540 h4        1 0HM      0.230000
     40 H9         -2.0660    4.8920    2.5770 h4        1 0HM      0.075100
     41 H10        -1.3780    0.6600   -0.6070 h1        1 0HM      0.127200
     42 H11        -1.1120    2.3010   -1.3790 h1        1 0HM      0.127200
     43 H12        -2.7900   -0.5620   -1.5880 h4        1 0HM      0.241000
     44 H13        -4.7420   -1.0100   -3.0950 ha        1 0HM      0.234000
     45 H14        -6.1210    0.9350   -3.9760 ha        1 0HM      0.222000
     46 H15        -6.3550    3.2880   -3.8030 ho        1 0HM      0.499000
     47 H16        -1.9570    4.3220   -2.5260 hn        1 0HM      0.494800
     48 H17        -3.4030    6.7280   -0.0950 ha        1 0HM      0.183500
     49 H18        -3.7730    9.0960   -0.6750 ha        1 0HM      0.180500
     50 H19        -2.0700    5.9650   -4.1970 ha        1 0HM      0.183500
     51 H20        -2.4490    8.3290   -4.7480 ha        1 0HM      0.180500
     52 H21        -3.6710   10.3530   -4.2330 hx        1 0HM      0.135700
     53 H22        -4.3840   10.6230   -2.5660 hx        1 0HM      0.135700
     54 H23        -2.6710   12.2100   -3.0880 hn        1 0HM      0.473467
     55 H24        -2.1530   11.2640   -1.8130 hn        1 0HM      0.473467
     56 HAT2       -1.8760    4.7410   -0.8770 hn        1 0HM      0.494800
     57 HBC3       -1.5140   11.0310   -3.3350 hn        1 0HM      0.473467
@<TRIPOS>BOND
     1    1    2 ar  
     2    1    6 ar  
     3    1   32 1   
     4    2    3 ar  
     5    2   33 1   
     6    3    4 ar  
     7    3   34 1   
     8    4    5 ar  
     9    4   35 1   
    10    5    6 ar  
    11    5   36 1   
    12    6    7 1   
    13    7    8 1   
    14    7   37 1   
    15    7   38 1   
    16    8    9 1   
    17    8   12 1   
    18    9   10 2   
    19    9   39 1   
    20   10   11 1   
    21   10   40 1   
    22   11   12 2   
    23   12   13 1   
    24   13   14 1   
    25   13   41 1   
    26   13   42 1   
    27   14   15 1   
    28   14   20 2   
    29   15   16 ar  
    30   15   43 1   
    31   16   17 ar  
    32   16   44 1   
    33   17   18 ar  
    34   17   45 1   
    35   18   19 1   
    36   18   20 ar  
    37   19   46 1   
    38   20   21 1   
    39   21   22 2   
    40   21   23 1   
    41   23   24 1   
    42   23   47 1   
    43   23   56 1   
    44   24   25 ar  
    45   24   27 ar  
    46   25   26 ar  
    47   25   48 1   
    48   26   29 ar  
    49   26   49 1   
    50   27   28 ar  
    51   27   50 1   
    52   28   29 ar  
    53   28   51 1   
    54   29   30 1   
    55   30   31 1   
    56   30   52 1   
    57   30   53 1   
    58   31   54 1   
    59   31   55 1   
    60   31   57 1   
@<TRIPOS>SUBSTRUCTURE
     1 0HM         1 TEMP              0 ****  ****    0 ROOT
