@<TRIPOS>MOLECULE
0HM
   55    58     1     0     0
SMALL
bcc


@<TRIPOS>ATOM
      1 CAB        -2.3770   -1.8320   -1.4080 ca        1 0HM     -0.119000
      2 CAC        -1.4990   -2.8970   -1.5970 ca        1 0HM     -0.121000
      3 CAD        -1.2710   -3.8090   -0.5650 ca        1 0HM     -0.103000
      4 CAE        -1.9290   -3.6570    0.6560 ca        1 0HM     -0.121000
      5 CAF        -2.8170   -2.5980    0.8460 ca        1 0HM     -0.119000
      6 CAA        -3.0410   -1.6810   -0.1850 ca        1 0HM     -0.146300
      7 CAL        -4.0410   -0.5750   -0.0240 c3        1 0HM      0.074600
      8 NAG        -3.8330    0.2870    1.1110 na        1 0HM     -0.161900
      9 CAK        -4.7250    0.4770    2.1610 cc        1 0HM     -0.212600
     10 CAJ        -4.1080    1.3800    3.0590 cd        1 0HM      0.303200
     11 NAI        -2.8550    1.7280    2.5940 nd        1 0HM     -0.637000
     12 CAH        -2.6920    1.0560    1.4160 cc        1 0HM      0.280800
     13 CBD        -1.4350    1.0710    0.6090 c3        1 0HM     -0.008000
     14 NAN        -0.9570    2.4410    0.3310 na        1 0HM      0.088900
     15 CAM        -1.8390    3.4660    0.2150 ca        1 0HM     -0.028300
     16 CAQ        -1.4070    4.7990    0.0440 ca        1 0HM     -0.113000
     17 CAR        -0.0580    5.0930    0.0320 ca        1 0HM     -0.049000
     18 CAP         0.8680    4.0210    0.1600 ca        1 0HM      0.183100
     19 OBE         2.1790    4.3620    0.1380 oh        1 0HM     -0.450100
     20 CAO         0.3970    2.6930    0.2570 ca        1 0HM     -0.182900
     21 CAS         1.4280    1.5800    0.3280 c         1 0HM      0.658700
     22 OAU         2.2710    1.6310    1.2390 o         1 0HM     -0.543100
     23 NAT         1.3510    0.6200   -0.6500 n         1 0HM     -0.436100
     24 CAX         2.3170   -0.4020   -0.8440 ca        1 0HM      0.006600
     25 CAY         3.0500   -0.9500    0.2270 ca        1 0HM     -0.143500
     26 CAZ         3.9640   -1.9740   -0.0110 ca        1 0HM     -0.095000
     27 CAW         2.5190   -0.9040   -2.1480 ca        1 0HM     -0.143500
     28 CAV         3.4300   -1.9310   -2.3640 ca        1 0HM     -0.095000
     29 CBA         4.1630   -2.4720   -1.3020 ca        1 0HM     -0.075300
     30 CBB         5.1830   -3.5440   -1.5630 c3        1 0HM      0.201100
     31 NBC         5.1190   -4.6340   -0.6190 n3        1 0HM     -0.920800
     32 H1         -2.5670   -1.1280   -2.2320 ha        1 0HM      0.136500
     33 H2         -0.9910   -3.0250   -2.5650 ha        1 0HM      0.148000
     34 H3         -0.5780   -4.6510   -0.7170 ha        1 0HM      0.150000
     35 H4         -1.7560   -4.3790    1.4690 ha        1 0HM      0.148000
     36 H5         -3.3440   -2.4920    1.8070 ha        1 0HM      0.136500
     37 H6         -4.0460    0.0710   -0.9520 h1        1 0HM      0.077700
     38 H7         -5.0690   -1.0360    0.0810 h1        1 0HM      0.077700
     39 H8         -5.6990   -0.0120    2.2010 h4        1 0HM      0.200000
     40 H9         -4.5050    1.7740    3.9970 h4        1 0HM      0.067100
     41 H10        -0.6350    0.5340    1.2060 h1        1 0HM      0.118200
     42 H11        -1.5830    0.5430   -0.3810 h1        1 0HM      0.118200
     43 H12        -2.9220    3.2260    0.2780 h4        1 0HM      0.219000
     44 H13        -2.1700    5.5920   -0.0540 ha        1 0HM      0.201000
     45 H14         0.3240    6.1250   -0.0640 ha        1 0HM      0.206000
     46 H15         2.7310    3.6310    0.4830 ho        1 0HM      0.480000
     47 H16         0.7330    0.7740   -1.4160 hn        1 0HM      0.322500
     48 H17         2.9220   -0.5680    1.2530 ha        1 0HM      0.147500
     49 H18         4.5370   -2.3940    0.8330 ha        1 0HM      0.157500
     50 H19         1.9630   -0.4930   -3.0050 ha        1 0HM      0.147500
     51 H20         3.5780   -2.3130   -3.3860 ha        1 0HM      0.157500
     52 H21         5.0740   -3.8900   -2.6350 h1        1 0HM      0.042700
     53 H22         6.2060   -3.0700   -1.4720 h1        1 0HM      0.042700
     54 H23         4.2540   -5.1290   -0.6910 hn        1 0HM      0.360800
     55 H24         5.8810   -5.2660   -0.7630 hn        1 0HM      0.360800
@<TRIPOS>BOND
     1    1    2 ar  
     2    1    6 ar  
     3    1   32 1   
     4    2    3 ar  
     5    2   33 1   
     6    3    4 ar  
     7    3   34 1   
     8    4    5 ar  
     9    4   35 1   
    10    5    6 ar  
    11    5   36 1   
    12    6    7 1   
    13    7    8 1   
    14    7   37 1   
    15    7   38 1   
    16    8    9 1   
    17    8   12 1   
    18    9   10 2   
    19    9   39 1   
    20   10   11 1   
    21   10   40 1   
    22   11   12 2   
    23   12   13 1   
    24   13   14 1   
    25   13   41 1   
    26   13   42 1   
    27   14   15 1   
    28   14   20 2   
    29   15   16 ar  
    30   15   43 1   
    31   16   17 ar  
    32   16   44 1   
    33   17   18 ar  
    34   17   45 1   
    35   18   19 1   
    36   18   20 ar  
    37   19   46 1   
    38   20   21 1   
    39   21   22 2   
    40   21   23 1   
    41   23   24 1   
    42   23   47 1   
    43   24   25 ar  
    44   24   27 ar  
    45   25   26 ar  
    46   25   48 1   
    47   26   29 ar  
    48   26   49 1   
    49   27   28 ar  
    50   27   50 1   
    51   28   29 ar  
    52   28   51 1   
    53   29   30 1   
    54   30   31 1   
    55   30   52 1   
    56   30   53 1   
    57   31   54 1   
    58   31   55 1   
@<TRIPOS>SUBSTRUCTURE
     1 0HM         1 TEMP              0 ****  ****    0 ROOT
