@<TRIPOS>MOLECULE
0HM
   55    47     1     0     0
SMALL
bcc


@<TRIPOS>ATOM
      1 CAB         4.9000   -3.6390    1.3390 c1        1 0HM     -0.105000
      2 CAC         5.8800   -4.3850    1.9900 c1        1 0HM     -0.114250
      3 CAD         5.5130   -5.4050    2.8590 c1        1 0HM     -0.114250
      4 CAE         4.1660   -5.6810    3.0770 c1        1 0HM     -0.114250
      5 CAF         3.1850   -4.9340    2.4240 c1        1 0HM     -0.114250
      6 CAA         3.5500   -3.9180    1.5590 c1        1 0HM     -0.136000
      7 CAL         2.4410   -3.1490    0.7350 c3        1 0HM      0.014000
      8 NAG         1.5340   -2.4730    1.6530 n3        1 0HM     -0.109000
      9 CAK         1.3960   -2.7410    2.9550 c1        1 0HM     -0.105000
     10 CAJ         0.3240   -2.0340    3.4210 c1        1 0HM     -0.173000
     11 NAI        -0.1880   -1.3370    2.4000 n2        1 0HM     -0.117000
     12 CAH         0.5520   -1.6000    1.2990 c1        1 0HM     -0.189000
     13 CBD         0.4350   -0.8880   -0.0390 c2        1 0HM      0.030000
     14 NAN        -0.7210   -1.3820   -0.7470 n3        1 0HM      0.033000
     15 CAM        -0.9100   -2.7400   -0.8860 c2        1 0HM     -0.006000
     16 CAQ        -2.0730   -3.2250   -1.4720 c1        1 0HM     -0.099000
     17 CAR        -3.0320   -2.3560   -1.9130 c1        1 0HM     -0.107000
     18 CAP        -2.8460   -0.9970   -1.7750 c1        1 0HM      0.097000
     19 OBE        -3.7790   -0.1090   -2.3150 oh        1 0HM     -0.220000
     20 CAO        -1.6800   -0.5100   -1.1870 c1        1 0HM     -0.061000
     21 CAS        -1.4180    0.9940   -1.1510 c1        1 0HM      0.353000
     22 OAU        -0.3620    1.4150   -0.7340 o         1 0HM     -0.333000
     23 NAT        -2.4520    1.9120   -1.5410 n3        1 0HM     -0.266000
     24 CAX        -2.2250    3.3610   -1.4330 c2        1 0HM      0.029000
     25 CAY        -3.1240    4.1520   -0.7380 c2        1 0HM     -0.152000
     26 CAZ        -2.9420    5.5400   -0.6860 c1        1 0HM     -0.103000
     27 CAW        -1.1320    3.9470   -2.0850 c1        1 0HM     -0.137000
     28 CAV        -0.9490    5.3310   -2.0340 c1        1 0HM     -0.098000
     29 CBA        -1.8540    6.1270   -1.3350 c1        1 0HM     -0.115000
     30 CBB        -1.6100    7.6560   -1.2080 c3        1 0HM     -0.048000
     31 NBC        -2.5640    8.3550   -1.9950 n3        1 0HM     -0.333000
     32 H1          5.1560   -2.9240    0.7310 ha        1 0HM      0.140000
     33 H2          6.8410   -4.1870    1.8340 ha        1 0HM      0.145250
     34 H3          6.2040   -5.9330    3.3200 ha        1 0HM      0.145250
     35 H4          3.9100   -6.3890    3.6800 ha        1 0HM      0.145250
     36 H5          2.2450   -5.1270    2.5760 ha        1 0HM      0.145250
     37 H6          1.9370   -3.7890    0.1910 h1        1 0HM      0.107000
     38 H7          2.8630   -2.4940    0.1570 h1        1 0HM      0.107000
     39 H8          1.9530   -3.3280    3.4740 DU        1 0HM      0.204500
     40 H9         -0.0120   -2.0370    4.3380 DU        1 0HM      0.204500
     41 H10         0.3400    0.0810    0.1120 h4        1 0HM      0.163500
     42 H11         1.2450   -1.0590   -0.5740 h4        1 0HM      0.163500
     43 H12        -0.2130   -3.3740   -0.5650 h4        1 0HM      0.227000
     44 H13        -2.2080   -4.2070   -1.5720 ha        1 0HM      0.201000
     45 H14        -3.8460   -2.6970   -2.3230 ha        1 0HM      0.189000
     46 H15        -4.5750   -0.5010   -2.3480 ho        1 0HM      0.264000
     47 H16        -3.2810    1.5950   -1.7750 hn        1 0HM      0.250000
     48 H17        -3.8890    3.7400   -0.2810 ha        1 0HM      0.136000
     49 H18        -3.5760    6.0970   -0.1970 ha        1 0HM      0.146000
     50 H19        -0.5040    3.3930   -2.5700 ha        1 0HM      0.167000
     51 H20        -0.1650    5.7510   -2.5030 ha        1 0HM      0.150000
     52 H21        -0.6940    7.8750   -1.5270 h1        1 0HM      0.107000
     53 H22        -1.7020    7.9220   -0.2740 h1        1 0HM      0.107000
     54 H23        -3.3640    8.3860   -1.5480 hn        1 0HM      0.148500
     55 H24        -2.6780    7.9210   -2.7930 hn        1 0HM      0.148500
@<TRIPOS>BOND
     1    1    6 1   
     2    1   32 1   
     3    2    3 1   
     4    2   33 1   
     5    3   34 1   
     6    4    5 1   
     7    4   35 1   
     8    5   36 1   
     9    6    7 1   
    10    7    8 1   
    11    7   37 1   
    12    7   38 1   
    13    8    9 1   
    14    8   12 1   
    15    9   10 1   
    16   10   11 1   
    17   11   12 1   
    18   13   14 1   
    19   13   41 1   
    20   13   42 1   
    21   14   15 1   
    22   14   20 1   
    23   15   16 1   
    24   15   43 1   
    25   16   44 1   
    26   17   18 1   
    27   17   45 1   
    28   18   19 1   
    29   19   46 1   
    30   21   22 1   
    31   21   23 1   
    32   23   24 1   
    33   23   47 1   
    34   24   25 1   
    35   24   27 1   
    36   25   26 1   
    37   25   48 1   
    38   26   49 1   
    39   27   50 1   
    40   28   29 1   
    41   28   51 1   
    42   29   30 1   
    43   30   31 1   
    44   30   52 1   
    45   30   53 1   
    46   31   54 1   
    47   31   55 1   
@<TRIPOS>SUBSTRUCTURE
     1 0HM         1 TEMP              0 ****  ****    0 ROOT
