@<TRIPOS>MOLECULE
0HN
   17    15     1     0     0
SMALL
bcc


@<TRIPOS>ATOM
      1 OAA        -2.8360   -0.1500    2.6350 o         1 0HN     -0.561000
      2 CAI        -1.5990   -0.3850    2.6350 c1        1 0HN      0.359000
      3 OAB        -1.0070   -0.6430    3.7150 os        1 0HN     -0.562000
      4 CAJ        -0.8270   -0.3730    1.3330 c2        1 0HN     -0.107000
      5 CAE        -0.2820    0.8140    0.8600 c1        1 0HN     -0.078000
      6 CAL         0.4050    0.8320   -0.3620 c1        1 0HN     -0.027500
      7 OAH         1.0130    1.8900   -1.0990 os        1 0HN     -0.236500
      8 CAF         1.5930    1.3380   -2.2500 c3        1 0HN      0.103000
      9 OAG         1.3110   -0.0350   -2.2580 os        1 0HN     -0.236500
     10 CAK         0.5400   -0.3340   -1.0960 c1        1 0HN     -0.027500
     11 CAD        -0.0110   -1.5300   -0.6180 c1        1 0HN     -0.139000
     12 CAC        -0.6920   -1.5470    0.5940 c2        1 0HN     -0.114000
     13 H2         -0.3720    1.6340    1.3800 ha        1 0HN      0.173000
     14 H3          1.1920    1.7540   -3.0440 h2        1 0HN      0.085000
     15 H4          0.0840   -2.3520   -1.1360 ha        1 0HN      0.128000
     16 H5         -1.0750   -2.3800    0.9260 ha        1 0HN      0.159000
     17 H6          2.5640    1.4680   -2.2160 h2        1 0HN      0.085000
@<TRIPOS>BOND
     1    1    2 1   
     2    2    4 1   
     3    4    5 1   
     4    4   12 1   
     5    5   13 1   
     6    6    7 1   
     7    6   10 1   
     8    7    8 1   
     9    8    9 1   
    10    8   14 1   
    11    8   17 1   
    12    9   10 1   
    13   11   12 1   
    14   11   15 1   
    15   12   16 1   
@<TRIPOS>SUBSTRUCTURE
     1 0HN         1 TEMP              0 ****  ****    0 ROOT
