@<TRIPOS>MOLECULE
0HN
   17    18     1     0     0
SMALL
bcc


@<TRIPOS>ATOM
      1 OAA        -0.0310    0.1110    0.0410 o         1 0HN     -0.826800
      2 CAI         1.2310    0.1060    0.0650 c         1 0HN      0.910200
      3 OAB         1.9250    0.1810    1.1180 o         1 0HN     -0.826800
      4 CAJ         1.9680    0.0030   -1.2660 ca        1 0HN     -0.127600
      5 CAE         1.2200   -0.0840   -2.4570 ca        1 0HN     -0.078000
      6 CAL         1.9410   -0.1750   -3.6310 ca        1 0HN      0.016100
      7 OAH         1.4710   -0.2720   -4.9470 os        1 0HN     -0.349900
      8 CAF         2.6310   -0.3410   -5.7960 c3        1 0HN      0.325200
      9 OAG         3.8070   -0.2830   -4.9660 os        1 0HN     -0.356900
     10 CAK         3.3570   -0.1820   -3.6450 ca        1 0HN      0.019100
     11 CAD         4.0980   -0.0970   -2.4830 ca        1 0HN     -0.139000
     12 CAC         3.3650   -0.0040   -1.2880 ca        1 0HN     -0.114000
     13 H2          0.1220   -0.0760   -2.4150 ha        1 0HN      0.173000
     14 H3          2.6310    0.5450   -6.4790 h2        1 0HN      0.045700
     15 H4          5.1930   -0.1020   -2.4910 ha        1 0HN      0.128000
     16 H5          3.8930    0.0670   -0.3220 ha        1 0HN      0.159000
     17 H6          2.6230   -1.3190   -6.3380 h2        1 0HN      0.045700
@<TRIPOS>BOND
     1    1    2 1   
     2    2    3 1   
     3    2    4 1   
     4    4    5 ar  
     5    4   12 ar  
     6    5    6 ar  
     7    5   13 1   
     8    6    7 1   
     9    6   10 ar  
    10    7    8 1   
    11    8    9 1   
    12    8   14 1   
    13    8   17 1   
    14    9   10 1   
    15   10   11 ar  
    16   11   12 ar  
    17   11   15 1   
    18   12   16 1   
@<TRIPOS>SUBSTRUCTURE
     1 0HN         1 TEMP              0 ****  ****    0 ROOT
