@<TRIPOS>MOLECULE
0HN
   17    18     1     0     0
SMALL
bcc


@<TRIPOS>ATOM
      1 OAA         2.9980   -1.4850    0.0800 o         1 0HN     -0.826800
      2 CAI         2.6740   -0.2650    0.0880 c         1 0HN      0.910200
      3 OAB         3.4960    0.6920    0.1490 o         1 0HN     -0.826800
      4 CAJ         1.1890    0.0780    0.0200 ca        1 0HN     -0.127600
      5 CAE         0.2480   -0.9690   -0.0490 ca        1 0HN     -0.078000
      6 CAL        -1.0810   -0.5990   -0.1100 ca        1 0HN      0.016100
      7 OAH        -2.2180   -1.4140   -0.1840 os        1 0HN     -0.349900
      8 CAF        -3.3550   -0.5320   -0.2240 c3        1 0HN      0.325200
      9 OAG        -2.8800    0.8270   -0.1720 os        1 0HN     -0.356900
     10 CAK        -1.4840    0.7580   -0.1030 ca        1 0HN      0.019100
     11 CAD        -0.5690    1.7900   -0.0350 ca        1 0HN     -0.139000
     12 CAC         0.7840    1.4140    0.0260 ca        1 0HN     -0.114000
     13 H2          0.5910   -2.0140   -0.0530 ha        1 0HN      0.173000
     14 H3         -3.8960   -0.6860   -1.1910 h2        1 0HN      0.045700
     15 H4         -0.8790    2.8400   -0.0300 ha        1 0HN      0.128000
     16 H5          1.5680    2.1870    0.0810 ha        1 0HN      0.159000
     17 H6         -3.9910   -0.7240    0.6760 h2        1 0HN      0.045700
@<TRIPOS>BOND
     1    1    2 1   
     2    2    3 1   
     3    2    4 1   
     4    4    5 ar  
     5    4   12 ar  
     6    5    6 ar  
     7    5   13 1   
     8    6    7 1   
     9    6   10 ar  
    10    7    8 1   
    11    8    9 1   
    12    8   14 1   
    13    8   17 1   
    14    9   10 1   
    15   10   11 ar  
    16   11   12 ar  
    17   11   15 1   
    18   12   16 1   
@<TRIPOS>SUBSTRUCTURE
     1 0HN         1 TEMP              0 ****  ****    0 ROOT
