@<TRIPOS>MOLECULE
0HN
   17    18     1     0     0
SMALL
bcc


@<TRIPOS>ATOM
      1 OAA        -0.0540    0.1020    0.0210 o         1 0HN     -0.826800
      2 CAI         1.2080    0.1160    0.0540 c         1 0HN      0.910200
      3 OAB         1.8930    0.2100    1.1110 o         1 0HN     -0.826800
      4 CAJ         1.9560    0.0100   -1.2710 ca        1 0HN     -0.127600
      5 CAE         1.2180   -0.0970   -2.4670 ca        1 0HN     -0.078000
      6 CAL         1.9480   -0.1890   -3.6340 ca        1 0HN      0.016100
      7 OAH         1.4890   -0.3040   -4.9530 os        1 0HN     -0.349900
      8 CAF         2.6560   -0.3650   -5.7930 c3        1 0HN      0.325200
      9 OAG         3.8250   -0.2840   -4.9550 os        1 0HN     -0.356900
     10 CAK         3.3640   -0.1770   -3.6380 ca        1 0HN      0.019100
     11 CAD         4.0950   -0.0730   -2.4710 ca        1 0HN     -0.139000
     12 CAC         3.3520    0.0210   -1.2820 ca        1 0HN     -0.114000
     13 H2          0.1190   -0.1040   -2.4320 ha        1 0HN      0.173000
     14 H3          2.6490    0.5150   -6.4830 h2        1 0HN      0.045700
     15 H4          5.1900   -0.0630   -2.4720 ha        1 0HN      0.128000
     16 H5          3.8720    0.1070   -0.3130 ha        1 0HN      0.159000
     17 H6          2.6650   -1.3480   -6.3260 h2        1 0HN      0.045700
@<TRIPOS>BOND
     1    1    2 1   
     2    2    3 1   
     3    2    4 1   
     4    4    5 ar  
     5    4   12 ar  
     6    5    6 ar  
     7    5   13 1   
     8    6    7 1   
     9    6   10 ar  
    10    7    8 1   
    11    8    9 1   
    12    8   14 1   
    13    8   17 1   
    14    9   10 1   
    15   10   11 ar  
    16   11   12 ar  
    17   11   15 1   
    18   12   16 1   
@<TRIPOS>SUBSTRUCTURE
     1 0HN         1 TEMP              0 ****  ****    0 ROOT
