@<TRIPOS>MOLECULE
0HN
   17    18     1     0     0
SMALL
bcc


@<TRIPOS>ATOM
      1 OAA        -0.0580    0.1100    0.0170 o         1 0HN     -0.826800
      2 CAI         1.2040    0.1120    0.0530 c         1 0HN      0.910200
      3 OAB         1.8890    0.1960    1.1110 o         1 0HN     -0.826800
      4 CAJ         1.9540    0.0070   -1.2710 ca        1 0HN     -0.127600
      5 CAE         1.2170   -0.0890   -2.4690 ca        1 0HN     -0.078000
      6 CAL         1.9500   -0.1810   -3.6350 ca        1 0HN      0.016100
      7 OAH         1.4920   -0.2870   -4.9550 os        1 0HN     -0.349900
      8 CAF         2.6590   -0.3530   -5.7930 c3        1 0HN      0.325200
      9 OAG         3.8280   -0.2850   -4.9530 os        1 0HN     -0.356900
     10 CAK         3.3650   -0.1810   -3.6360 ca        1 0HN      0.019100
     11 CAD         4.0950   -0.0870   -2.4680 ca        1 0HN     -0.139000
     12 CAC         3.3510    0.0070   -1.2800 ca        1 0HN     -0.114000
     13 H2          0.1190   -0.0870   -2.4360 ha        1 0HN      0.173000
     14 H3          2.6620   -1.3340   -6.3310 h2        1 0HN      0.045700
     15 H4          5.1900   -0.0860   -2.4670 ha        1 0HN      0.128000
     16 H5          3.8690    0.0850   -0.3100 ha        1 0HN      0.159000
     17 H6          2.6600    0.5300   -6.4800 h2        1 0HN      0.045700
@<TRIPOS>BOND
     1    1    2 1   
     2    2    3 1   
     3    2    4 1   
     4    4    5 ar  
     5    4   12 ar  
     6    5    6 ar  
     7    5   13 1   
     8    6    7 1   
     9    6   10 ar  
    10    7    8 1   
    11    8    9 1   
    12    8   14 1   
    13    8   17 1   
    14    9   10 1   
    15   10   11 ar  
    16   11   12 ar  
    17   11   15 1   
    18   12   16 1   
@<TRIPOS>SUBSTRUCTURE
     1 0HN         1 TEMP              0 ****  ****    0 ROOT
