@<TRIPOS>MOLECULE
0HO
   15    16     1     0     0
SMALL
bcc


@<TRIPOS>ATOM
      1 OAA         3.2830   -1.5340    0.0010 o         1 0HO     -0.819300
      2 CAI         2.9650   -0.3150    0.0020 c         1 0HO      0.910200
      3 OAB         3.7840    0.6460    0.0020 o         1 0HO     -0.819300
      4 CAJ         1.4760    0.0340    0.0010 ca        1 0HO     -0.121600
      5 CAE         0.5250   -0.9400    0.0000 ca        1 0HO     -0.099000
      6 CAL        -0.8670   -0.5840   -0.0000 ca        1 0HO     -0.059000
      7 NAG        -1.9340   -1.3820   -0.0010 nc        1 0HO     -0.264500
      8 SAH        -3.2660   -0.4090   -0.0010 ss        1 0HO      0.353000
      9 NAF        -2.5530    1.0780    0.0000 nc        1 0HO     -0.277500
     10 CAK        -1.2370    0.8760    0.0010 ca        1 0HO     -0.061000
     11 CAD        -0.1770    1.8460    0.0010 ca        1 0HO     -0.163000
     12 CAC         1.1150    1.4260    0.0020 ca        1 0HO     -0.055000
     13 H2          0.8160   -2.0030    0.0000 ha        1 0HO      0.174000
     14 H3         -0.4470    2.9110    0.0020 ha        1 0HO      0.133000
     15 H4          1.9580    2.1410    0.0020 ha        1 0HO      0.169000
@<TRIPOS>BOND
     1    1    2 1   
     2    2    3 1   
     3    2    4 1   
     4    4    5 ar  
     5    4   12 ar  
     6    5    6 ar  
     7    5   13 1   
     8    6    7 2   
     9    6   10 ar  
    10    7    8 1   
    11    8    9 1   
    12    9   10 2   
    13   10   11 ar  
    14   11   12 ar  
    15   11   14 1   
    16   12   15 1   
@<TRIPOS>SUBSTRUCTURE
     1 0HO         1 TEMP              0 ****  ****    0 ROOT
