@<TRIPOS>MOLECULE
0HO
   15    16     1     0     0
SMALL
bcc


@<TRIPOS>ATOM
      1 OAA        -0.0540   -0.0230    0.0540 o         1 0HO     -0.819300
      2 CAI         1.2060   -0.0110    0.0640 c         1 0HO      0.910200
      3 OAB         1.9210    0.0020    1.1050 o         1 0HO     -0.819300
      4 CAJ         1.9310   -0.0140   -1.2820 ca        1 0HO     -0.121600
      5 CAE         1.2370   -0.0280   -2.4540 ca        1 0HO     -0.099000
      6 CAL         1.9430   -0.0300   -3.7060 ca        1 0HO     -0.059000
      7 NAG         1.4510   -0.0420   -4.9440 nc        1 0HO     -0.264500
      8 SAH         2.7370   -0.0380   -5.9770 ss        1 0HO      0.353000
      9 NAF         3.9870   -0.0200   -4.9010 nc        1 0HO     -0.277500
     10 CAK         3.4490   -0.0160   -3.6830 ca        1 0HO     -0.061000
     11 CAD         4.1100   -0.0020   -2.4080 ca        1 0HO     -0.163000
     12 CAC         3.3680   -0.0010   -1.2690 ca        1 0HO     -0.055000
     13 H2          0.1350   -0.0370   -2.4500 ha        1 0HO      0.174000
     14 H3          5.2080    0.0080   -2.3910 ha        1 0HO      0.133000
     15 H4          3.8400    0.0100   -0.2690 ha        1 0HO      0.169000
@<TRIPOS>BOND
     1    1    2 1   
     2    2    3 1   
     3    2    4 1   
     4    4    5 ar  
     5    4   12 ar  
     6    5    6 ar  
     7    5   13 1   
     8    6    7 2   
     9    6   10 ar  
    10    7    8 1   
    11    8    9 1   
    12    9   10 2   
    13   10   11 ar  
    14   11   12 ar  
    15   11   14 1   
    16   12   15 1   
@<TRIPOS>SUBSTRUCTURE
     1 0HO         1 TEMP              0 ****  ****    0 ROOT
