@<TRIPOS>MOLECULE
0HO
   15    16     1     0     0
SMALL
bcc


@<TRIPOS>ATOM
      1 OAA        -0.0560   -0.0190    0.0520 o         1 0HO     -0.819300
      2 CAI         1.2050   -0.0110    0.0630 c         1 0HO      0.910200
      3 OAB         1.9190   -0.0000    1.1050 o         1 0HO     -0.819300
      4 CAJ         1.9300   -0.0140   -1.2830 ca        1 0HO     -0.121600
      5 CAE         1.2370   -0.0260   -2.4550 ca        1 0HO     -0.099000
      6 CAL         1.9440   -0.0290   -3.7070 ca        1 0HO     -0.059000
      7 NAG         1.4530   -0.0400   -4.9440 nc        1 0HO     -0.264500
      8 SAH         2.7390   -0.0370   -5.9760 ss        1 0HO      0.353000
      9 NAF         3.9890   -0.0210   -4.9000 nc        1 0HO     -0.277500
     10 CAK         3.4500   -0.0170   -3.6820 ca        1 0HO     -0.061000
     11 CAD         4.1100   -0.0040   -2.4070 ca        1 0HO     -0.163000
     12 CAC         3.3680   -0.0030   -1.2680 ca        1 0HO     -0.055000
     13 H2          0.1350   -0.0340   -2.4510 ha        1 0HO      0.174000
     14 H3          5.2080    0.0040   -2.3890 ha        1 0HO      0.133000
     15 H4          3.8380    0.0070   -0.2680 ha        1 0HO      0.169000
@<TRIPOS>BOND
     1    1    2 1   
     2    2    3 1   
     3    2    4 1   
     4    4    5 ar  
     5    4   12 ar  
     6    5    6 ar  
     7    5   13 1   
     8    6    7 2   
     9    6   10 ar  
    10    7    8 1   
    11    8    9 1   
    12    9   10 2   
    13   10   11 ar  
    14   11   12 ar  
    15   11   14 1   
    16   12   15 1   
@<TRIPOS>SUBSTRUCTURE
     1 0HO         1 TEMP              0 ****  ****    0 ROOT
