@<TRIPOS>MOLECULE
0HO
   15    12     1     0     0
SMALL
bcc


@<TRIPOS>ATOM
      1 OAA        -3.1200   -0.0830    1.8150 o         1 0HO     -0.560000
      2 CAI        -1.8610   -0.0830    1.8150 c1        1 0HO      0.359000
      3 OAB        -1.2320   -0.0830    2.9050 os        1 0HO     -0.548000
      4 CAJ        -1.1050   -0.0830    0.5050 c2        1 0HO     -0.101000
      5 CAE        -0.4240    1.1170    0.1910 c1        1 0HO     -0.099000
      6 CAL         0.7280    1.0770   -0.5650 c1        1 0HO     -0.059000
      7 NAG         1.5930    2.0970   -1.0190 n1        1 0HO     -0.296000
      8 SAH         2.6730    1.4630   -1.7920 ss        1 0HO      0.416000
      9 NAF         2.4300    0.0110   -1.7920 n2        1 0HO     -0.309000
     10 CAK         1.2530   -0.2320   -1.0500 c1        1 0HO     -0.061000
     11 CAD         0.5850   -1.3970   -0.7400 c1        1 0HO     -0.163000
     12 CAC        -0.5970   -1.3500    0.0360 c2        1 0HO     -0.055000
     13 H2         -0.7780    1.9740    0.4950 ha        1 0HO      0.174000
     14 H3          0.9270   -2.2540   -1.0570 ha        1 0HO      0.133000
     15 H4         -1.0720   -2.1750    0.2510 ha        1 0HO      0.169000
@<TRIPOS>BOND
     1    1    2 1   
     2    2    4 1   
     3    4    5 1   
     4    4   12 1   
     5    5   13 1   
     6    6   10 1   
     7    7    8 1   
     8    8    9 1   
     9    9   10 1   
    10   11   12 1   
    11   11   14 1   
    12   12   15 1   
@<TRIPOS>SUBSTRUCTURE
     1 0HO         1 TEMP              0 ****  ****    0 ROOT
