@<TRIPOS>MOLECULE
0HQ
    5     3     1     0     0
SMALL
bcc


@<TRIPOS>ATOM
      1 C1         -0.4520    0.0000   -0.2150 c1        1 0HQ     -0.403000
      2 N1          0.8560    0.0000   -0.2150 n2        1 0HQ      0.141000
      3 N2          1.4760    0.0000    0.8580 n1        1 0HQ     -0.080000
      4 H1         -0.9400    0.0000    0.6310 DU        1 0HQ      0.171000
      5 H2         -0.9400   -0.0000   -1.0600 ha        1 0HQ      0.171000
@<TRIPOS>BOND
     1    1    2 1   
     2    1    5 1   
     3    2    3 1   
@<TRIPOS>SUBSTRUCTURE
     1 0HQ         1 TEMP              0 ****  ****    0 ROOT
