@<TRIPOS>MOLECULE
0HQ
    5     4     1     0     0
SMALL
bcc


@<TRIPOS>ATOM
      1 C1          1.2060   -0.0000    0.0010 c2        1 0HQ     -0.403000
      2 N1         -0.0920    0.0000    0.0000 n2        1 0HQ      0.141000
      3 N2         -1.2310    0.0000   -0.0010 n1        1 0HQ     -0.080000
      4 H1          1.7420    0.9550    0.0020 h4        1 0HQ      0.171000
      5 H2          1.7420   -0.9550    0.0020 h4        1 0HQ      0.171000
@<TRIPOS>BOND
     1    1    2 1   
     2    1    4 1   
     3    1    5 1   
     4    2    3 1   
@<TRIPOS>SUBSTRUCTURE
     1 0HQ         1 TEMP              0 ****  ****    0 ROOT
