@<TRIPOS>MOLECULE
0HQ
    5     4     1     0     0
SMALL
bcc


@<TRIPOS>ATOM
      1 C1         -0.0240   -0.0000    0.0020 c2        1 0HQ     -0.403000
      2 N1          1.2730    0.0000    0.0070 n2        1 0HQ      0.141000
      3 N2          2.4120    0.0000    0.0130 n1        1 0HQ     -0.080000
      4 H1         -0.5650    0.0000    0.9540 h4        1 0HQ      0.171000
      5 H2         -0.5560   -0.0000   -0.9560 h4        1 0HQ      0.171000
@<TRIPOS>BOND
     1    1    2 1   
     2    1    4 1   
     3    1    5 1   
     4    2    3 1   
@<TRIPOS>SUBSTRUCTURE
     1 0HQ         1 TEMP              0 ****  ****    0 ROOT
