@<TRIPOS>MOLECULE
0HT
   85    83     1     0     0
SMALL
bcc


@<TRIPOS>ATOM
      1 O          -0.7910   -1.7700   -5.2060 oh        1 0HT     -0.327000
      2 C           0.5690   -1.5630   -4.9930 c3        1 0HT     -0.017000
      3 CZ          0.8680   -1.6320   -3.4870 c3        1 0HT     -0.074000
      4 CA          1.3620   -2.6330   -5.7160 c3        1 0HT     -0.068000
      5 N           0.6940   -3.8780   -5.5970 n3        1 0HT     -0.324000
      6 CB          1.4910   -2.2660   -7.1850 c3        1 0HT     -0.149000
      7 CG          2.4960   -3.2120   -7.8630 c3        1 0HT     -0.107000
      8 CD2         1.8570   -3.8320   -9.0970 c3        1 0HT     -0.208000
      9 CD1         3.7310   -2.4310   -8.2710 c3        1 0HT     -0.208000
     10 N1          0.6030   -0.3450   -2.8830 n3        1 0HT     -0.281000
     11 CA1         0.9740   -0.3800   -1.5040 c3        1 0HT     -0.024000
     12 C1         -0.2400   -0.0450   -0.6410 c2        1 0HT      0.258000
     13 O1         -1.2180    0.4900   -1.1440 o         1 0HT     -0.370000
     14 CB1         2.0620    0.6270   -1.2500 c3        1 0HT     -0.097000
     15 CG1         3.3770   -0.0910   -1.0560 c3        1 0HT     -0.212500
     16 CG2         2.1700    1.5650   -2.4350 c3        1 0HT     -0.212500
     17 N2         -0.1950   -0.2740    0.8020 n         1 0HT     -0.358000
     18 CA2        -1.3400    0.0200    1.6090 c3        1 0HT      0.009000
     19 C2         -0.8840    0.5160    2.9760 c2        1 0HT      0.287000
     20 O2          0.1500    0.1020    3.4580 o         1 0HT     -0.372000
     21 CB2        -2.1690   -1.2270    1.7770 c3        1 0HT     -0.108000
     22 CG11       -3.5490   -0.8520    2.2830 c3        1 0HT     -0.170000
     23 CG21       -1.4960   -2.1500    2.7780 c3        1 0HT     -0.216000
     24 CD11       -4.5560   -1.9040    1.8380 c3        1 0HT     -0.208000
     25 N3         -1.6760    1.4910    3.6930 n         1 0HT     -0.354000
     26 CA3        -1.1970    2.0350    4.9260 c3        1 0HT      0.037000
     27 C3         -1.1620    0.9490    5.9760 c2        1 0HT      0.270000
     28 CB3        -2.1200    3.1430    5.3780 c3        1 0HT     -0.124000
     29 CG3        -1.2980    4.3850    5.7180 c2        1 0HT     -0.078000
     30 CD12       -1.4940    5.5640    4.9990 c2        1 0HT     -0.117000
     31 CD21       -0.4750    4.3840    6.8390 c1        1 0HT     -0.121000
     32 CE1        -0.8670    6.7370    5.4010 c1        1 0HT     -0.126000
     33 CE2         0.1540    5.5590    7.2420 c1        1 0HT     -0.126500
     34 CZ1        -0.0420    6.7370    6.5230 c1        1 0HT     -0.126500
     35 O3         -2.1150    0.2040    6.1130 o         1 0HT     -0.356000
     36 CM         -0.3090    0.0370    7.9790 c3        1 0HT     -0.065000
     37 OXT        -0.0750    0.8690    6.8650 os        1 0HT     -0.272000
     38 HZA         0.2950   -2.3150   -3.0690 h1        1 0HT      0.083000
     39 HZB         1.8110   -1.8690   -3.3510 h1        1 0HT      0.083000
     40 HA          2.2490   -2.7020   -5.3200 h1        1 0HT      0.106000
     41 HN          0.8610   -4.2360   -4.7750 hn        1 0HT      0.146500
     42 HNA        -0.2080   -3.7520   -5.6980 hn        1 0HT      0.146500
     43 HB          1.8060   -1.3450   -7.2640 hc        1 0HT      0.077500
     44 HBA         0.6200   -2.3500   -7.6200 hc        1 0HT      0.077500
     45 HG          2.7490   -3.9180   -7.2390 hc        1 0HT      0.112000
     46 HD2         1.1050   -4.3950   -8.8270 hc        1 0HT      0.071833
     47 HD2A        2.5230   -4.3790   -9.5710 hc        1 0HT      0.071833
     48 HD2B        1.5350   -3.1200   -9.6920 hc        1 0HT      0.071833
     49 HD1         4.2280   -2.1620   -7.4680 hc        1 0HT      0.071833
     50 HD1A        4.3010   -2.9920   -8.8350 hc        1 0HT      0.071833
     51 HD1B        3.4620   -1.6320   -8.7700 hc        1 0HT      0.071833
     52 H          -0.2850   -0.1530   -2.9540 hn        1 0HT      0.185000
     53 HA1         1.2960   -1.2680   -1.2780 h1        1 0HT      0.109000
     54 HB1         1.8500    1.1380   -0.4490 hc        1 0HT      0.093000
     55 HG11        4.0210    0.5150   -0.6340 hc        1 0HT      0.081333
     56 HG12        3.7230   -0.3810   -1.9280 hc        1 0HT      0.081333
     57 HG13        3.2410   -0.8730   -0.4830 hc        1 0HT      0.081333
     58 HG21        1.3270    2.0550   -2.5420 hc        1 0HT      0.081333
     59 HG22        2.3530    1.0480   -3.2440 hc        1 0HT      0.081333
     60 HG23        2.9010    2.2020   -2.2820 hc        1 0HT      0.081333
     61 H1          0.5500   -0.6610    1.1830 hn        1 0HT      0.235000
     62 HA2        -1.8770    0.7110    1.1740 h1        1 0HT      0.143000
     63 HB2        -2.2510   -1.6850    0.9120 hc        1 0HT      0.106000
     64 HG14       -3.8040    0.0180    1.9170 hc        1 0HT      0.089000
     65 HG15       -3.5360   -0.8050    3.2620 hc        1 0HT      0.089000
     66 HG24       -1.6870   -1.8390    3.6880 hc        1 0HT      0.081667
     67 HG25       -0.5290   -2.1450    2.6270 hc        1 0HT      0.081667
     68 HG26       -1.8410   -3.0630    2.6650 hc        1 0HT      0.081667
     69 HD11       -4.5980   -1.9230    0.8560 hc        1 0HT      0.075333
     70 HD12       -4.2760   -2.7870    2.1710 hc        1 0HT      0.075333
     71 HD13       -5.4370   -1.6840    2.1990 hc        1 0HT      0.075333
     72 HN2        -2.4730    1.7720    3.3500 hn        1 0HT      0.234000
     73 HA3        -0.2980    2.3920    4.7960 h1        1 0HT      0.165000
     74 HBC1       -2.6150    2.8520    6.1710 hc        1 0HT      0.105000
     75 HBC2       -2.7500    3.3560    4.6600 hc        1 0HT      0.105000
     76 HD14       -2.0790    5.5650    4.2040 ha        1 0HT      0.131000
     77 HD21       -0.3360    3.5490    7.3480 ha        1 0HT      0.134000
     78 HE1        -1.0060    7.5710    4.8920 ha        1 0HT      0.134000
     79 HE2         0.7360    5.5580    8.0330 ha        1 0HT      0.132500
     80 HZ          0.4020    7.5660    6.8070 ha        1 0HT      0.132500
     81 HMC1       -1.2160    0.1930    8.3190 h1        1 0HT      0.092667
     82 HMC2       -0.2190   -0.8990    7.7110 h1        1 0HT      0.092667
     83 HMC3        0.3450    0.2410    8.6850 h1        1 0HT      0.092667
     84 H47        -1.0800   -1.2170   -5.8440 ho        1 0HT      0.202000
     85 H48         0.8230   -0.6780   -5.3380 h1        1 0HT      0.093000
@<TRIPOS>BOND
     1    1    2 1   
     2    1   84 1   
     3    2    3 1   
     4    2    4 1   
     5    2   85 1   
     6    3   10 1   
     7    3   38 1   
     8    3   39 1   
     9    4    5 1   
    10    4    6 1   
    11    4   40 1   
    12    5   41 1   
    13    5   42 1   
    14    6    7 1   
    15    6   43 1   
    16    6   44 1   
    17    7    8 1   
    18    7    9 1   
    19    7   45 1   
    20    8   46 1   
    21    8   47 1   
    22    8   48 1   
    23    9   49 1   
    24    9   50 1   
    25    9   51 1   
    26   10   11 1   
    27   10   52 1   
    28   11   12 1   
    29   11   14 1   
    30   11   53 1   
    31   12   13 1   
    32   12   17 1   
    33   14   15 1   
    34   14   16 1   
    35   14   54 1   
    36   15   55 1   
    37   15   56 1   
    38   15   57 1   
    39   16   58 1   
    40   16   59 1   
    41   16   60 1   
    42   17   18 1   
    43   17   61 1   
    44   18   19 1   
    45   18   21 1   
    46   18   62 1   
    47   19   20 1   
    48   19   25 1   
    49   21   22 1   
    50   21   23 1   
    51   21   63 1   
    52   22   24 1   
    53   22   64 1   
    54   22   65 1   
    55   23   66 1   
    56   23   67 1   
    57   23   68 1   
    58   24   69 1   
    59   24   70 1   
    60   24   71 1   
    61   25   26 1   
    62   25   72 1   
    63   26   27 1   
    64   26   28 1   
    65   26   73 1   
    66   27   35 1   
    67   27   37 1   
    68   28   29 1   
    69   28   74 1   
    70   28   75 1   
    71   29   30 1   
    72   29   31 1   
    73   30   32 1   
    74   30   76 1   
    75   31   77 1   
    76   32   78 1   
    77   33   34 1   
    78   33   79 1   
    79   34   80 1   
    80   36   37 1   
    81   36   81 1   
    82   36   82 1   
    83   36   83 1   
@<TRIPOS>SUBSTRUCTURE
     1 0HT         1 TEMP              0 ****  ****    0 ROOT
