@<TRIPOS>MOLECULE
0HT
   85    85     1     0     0
SMALL
bcc


@<TRIPOS>ATOM
      1 O           5.5040    1.0090    1.2610 oh        1 0HT     -0.600800
      2 C           5.2620    0.0870    0.2140 c3        1 0HT      0.117100
      3 CZ          3.8300    0.2240   -0.3400 c3        1 0HT      0.137800
      4 CA          6.2990    0.2180   -0.9320 c3        1 0HT      0.137500
      5 N           6.3470    1.5650   -1.4650 n3        1 0HT     -0.905800
      6 CB          7.6340   -0.3400   -0.4130 c3        1 0HT     -0.115400
      7 CG          8.7740   -0.2680   -1.4150 c3        1 0HT     -0.068700
      8 CD2        10.0380   -0.8200   -0.7840 c3        1 0HT     -0.092100
      9 CD1         8.4550   -1.0240   -2.6880 c3        1 0HT     -0.092100
     10 N1          2.7820    0.1650    0.6550 n3        1 0HT     -0.839200
     11 CA1         1.8760   -0.9650    0.5870 c3        1 0HT      0.121500
     12 C1          0.5300   -0.5780    1.2620 c         1 0HT      0.666100
     13 O1          0.0310   -1.2630    2.1770 o         1 0HT     -0.622100
     14 CB1         2.3550   -2.3080    1.1800 c3        1 0HT     -0.094700
     15 CG1         3.2350   -3.0470    0.1950 c3        1 0HT     -0.094600
     16 CG2         3.0540   -2.1420    2.5110 c3        1 0HT     -0.094600
     17 N2         -0.1110    0.5350    0.7650 n         1 0HT     -0.550900
     18 CA2        -1.3850    0.9850    1.2620 c3        1 0HT      0.046700
     19 C2         -2.3790    1.1250    0.0800 c         1 0HT      0.651100
     20 O2         -2.0470    1.6340   -1.0070 o         1 0HT     -0.604100
     21 CB2        -1.3060    2.3230    2.0380 c3        1 0HT     -0.075700
     22 CG11       -2.6360    2.6740    2.6870 c3        1 0HT     -0.092400
     23 CG21       -0.8260    3.4640    1.1680 c3        1 0HT     -0.101100
     24 CD11       -3.0360    1.7150    3.7790 c3        1 0HT     -0.093100
     25 N3         -3.6480    0.6030    0.2710 n         1 0HT     -0.545900
     26 CA3        -4.7000    0.8000   -0.6890 c3        1 0HT      0.063700
     27 C3         -5.5750    2.0040   -0.3360 c         1 0HT      0.598100
     28 CB3        -5.6370   -0.4170   -0.8270 c3        1 0HT     -0.038100
     29 CG3        -4.9400   -1.5910   -1.4160 ca        1 0HT     -0.082300
     30 CD12       -4.6530   -2.7130   -0.6320 ca        1 0HT     -0.119000
     31 CD21       -4.5840   -1.5880   -2.7710 ca        1 0HT     -0.119000
     32 CE1        -4.0170   -3.8190   -1.1960 ca        1 0HT     -0.127000
     33 CE2        -3.9480   -2.6940   -3.3310 ca        1 0HT     -0.127000
     34 CZ1        -3.6640   -3.8110   -2.5450 ca        1 0HT     -0.127000
     35 O3         -5.6760    2.6000    0.7390 o         1 0HT     -0.544000
     36 CM         -7.1630    3.5680   -1.1700 c3        1 0HT      0.124700
     37 OXT        -6.3250    2.4320   -1.3930 os        1 0HT     -0.434900
     38 HZA         3.7360    1.2370   -0.8310 h1        1 0HT      0.062200
     39 HZB         3.6880   -0.5570   -1.1390 h1        1 0HT      0.062200
     40 HA          5.9440   -0.4530   -1.7720 h1        1 0HT      0.060700
     41 HN          6.7280    2.1950   -0.7850 hn        1 0HT      0.350800
     42 HNA         6.9250    1.5880   -2.2830 hn        1 0HT      0.350800
     43 HB          7.9220    0.2210    0.5160 hc        1 0HT      0.053200
     44 HBA         7.4760   -1.4120   -0.1210 hc        1 0HT      0.053200
     45 HG          8.9660    0.8110   -1.6790 hc        1 0HT      0.039700
     46 HD2         9.9080   -1.8980   -0.5240 hc        1 0HT      0.035700
     47 HD2A       10.8960   -0.7270   -1.4920 hc        1 0HT      0.035700
     48 HD2B       10.2840   -0.2580    0.1490 hc        1 0HT      0.035700
     49 HD1         7.6150   -0.5350   -3.2380 hc        1 0HT      0.035700
     50 HD1A        9.3480   -1.0450   -3.3590 hc        1 0HT      0.035700
     51 HD1B        8.1630   -2.0760   -2.4570 hc        1 0HT      0.035700
     52 H           3.1560    0.2720    1.5810 hn        1 0HT      0.385800
     53 HA1         1.6320   -1.1530   -0.5040 h1        1 0HT      0.073700
     54 HB1         1.4300   -2.9330    1.3540 hc        1 0HT      0.081700
     55 HG11        4.1740   -2.4800   -0.0120 hc        1 0HT      0.037533
     56 HG12        3.5140   -4.0450    0.6120 hc        1 0HT      0.037533
     57 HG13        2.6980   -3.2070   -0.7710 hc        1 0HT      0.037533
     58 HG21        4.0500   -1.6500    2.3940 hc        1 0HT      0.037533
     59 HG22        2.4210   -1.5300    3.1990 hc        1 0HT      0.037533
     60 HG23        3.2180   -3.1430    2.9790 hc        1 0HT      0.037533
     61 H1          0.3240    1.0960    0.0690 hn        1 0HT      0.338500
     62 HA2        -1.7600    0.1990    1.9890 h1        1 0HT      0.100700
     63 HB2        -0.5530    2.1700    2.8650 hc        1 0HT      0.063700
     64 HG14       -2.5410    3.7030    3.1310 hc        1 0HT      0.054700
     65 HG15       -3.4480    2.7360    1.9140 hc        1 0HT      0.054700
     66 HG24       -1.4780    3.5810    0.2680 hc        1 0HT      0.043700
     67 HG25       -0.8430    4.4200    1.7460 hc        1 0HT      0.043700
     68 HG26        0.2220    3.2880    0.8240 hc        1 0HT      0.043700
     69 HD11       -3.9270    2.1100    4.3250 hc        1 0HT      0.034367
     70 HD12       -3.3030    0.7130    3.3630 hc        1 0HT      0.034367
     71 HD13       -2.2040    1.5770    4.5110 hc        1 0HT      0.034367
     72 HN2        -3.9300    0.3660    1.1950 hn        1 0HT      0.318500
     73 HA3        -4.2270    1.0130   -1.6990 h1        1 0HT      0.124700
     74 HBC1       -6.0720   -0.6800    0.1730 hc        1 0HT      0.065700
     75 HBC2       -6.4840   -0.1070   -1.4980 hc        1 0HT      0.065700
     76 HD14       -4.9260   -2.7250    0.4330 ha        1 0HT      0.132500
     77 HD21       -4.8060   -0.7070   -3.3910 ha        1 0HT      0.132500
     78 HE1        -3.7920   -4.6970   -0.5730 ha        1 0HT      0.132500
     79 HE2        -3.6690   -2.6840   -4.3950 ha        1 0HT      0.132500
     80 HZ         -3.1620   -4.6830   -2.9890 ha        1 0HT      0.131000
     81 HMC1       -7.9090    3.3390   -0.3720 h1        1 0HT      0.052700
     82 HMC2       -6.5410    4.4460   -0.8720 h1        1 0HT      0.052700
     83 HMC3       -7.6560    3.7310   -2.1600 h1        1 0HT      0.052700
     84 H47         5.2030    1.8780    0.9650 ho        1 0HT      0.409000
     85 H48         5.4030   -0.9180    0.7080 h1        1 0HT      0.074700
@<TRIPOS>BOND
     1    1    2 1   
     2    1   84 1   
     3    2    3 1   
     4    2    4 1   
     5    2   85 1   
     6    3   10 1   
     7    3   38 1   
     8    3   39 1   
     9    4    5 1   
    10    4    6 1   
    11    4   40 1   
    12    5   41 1   
    13    5   42 1   
    14    6    7 1   
    15    6   43 1   
    16    6   44 1   
    17    7    8 1   
    18    7    9 1   
    19    7   45 1   
    20    8   46 1   
    21    8   47 1   
    22    8   48 1   
    23    9   49 1   
    24    9   50 1   
    25    9   51 1   
    26   10   11 1   
    27   10   52 1   
    28   11   12 1   
    29   11   14 1   
    30   11   53 1   
    31   12   13 2   
    32   12   17 1   
    33   14   15 1   
    34   14   16 1   
    35   14   54 1   
    36   15   55 1   
    37   15   56 1   
    38   15   57 1   
    39   16   58 1   
    40   16   59 1   
    41   16   60 1   
    42   17   18 1   
    43   17   61 1   
    44   18   19 1   
    45   18   21 1   
    46   18   62 1   
    47   19   20 2   
    48   19   25 1   
    49   21   22 1   
    50   21   23 1   
    51   21   63 1   
    52   22   24 1   
    53   22   64 1   
    54   22   65 1   
    55   23   66 1   
    56   23   67 1   
    57   23   68 1   
    58   24   69 1   
    59   24   70 1   
    60   24   71 1   
    61   25   26 1   
    62   25   72 1   
    63   26   27 1   
    64   26   28 1   
    65   26   73 1   
    66   27   35 2   
    67   27   37 1   
    68   28   29 1   
    69   28   74 1   
    70   28   75 1   
    71   29   30 ar  
    72   29   31 ar  
    73   30   32 ar  
    74   30   76 1   
    75   31   33 ar  
    76   31   77 1   
    77   32   34 ar  
    78   32   78 1   
    79   33   34 ar  
    80   33   79 1   
    81   34   80 1   
    82   36   37 1   
    83   36   81 1   
    84   36   82 1   
    85   36   83 1   
@<TRIPOS>SUBSTRUCTURE
     1 0HT         1 TEMP              0 ****  ****    0 ROOT
