@<TRIPOS>MOLECULE
0HV
   34    36     1     0     0
SMALL
bcc


@<TRIPOS>ATOM
      1 C01         0.0950    0.0820   -0.1200 ca        1 0HV     -0.100000
      2 C02         1.4510    0.3420    0.0700 ca        1 0HV     -0.149000
      3 C03         2.0060    0.3040    1.3450 ca        1 0HV     -0.171000
      4 C04         1.1900   -0.0050    2.4540 ca        1 0HV      0.062600
      5 C05        -0.1780   -0.2710    2.2560 ca        1 0HV     -0.103000
      6 C06        -0.7220   -0.2230    0.9710 ca        1 0HV     -0.118600
      7 N07         1.7830   -0.1050    3.7410 nu        1 0HV     -0.617000
      8 C08         1.4520    0.6840    4.8110 ca        1 0HV      0.273600
      9 C09         0.3900    1.6100    4.7390 ca        1 0HV     -0.251000
     10 C10         0.0970    2.4520    5.7990 ca        1 0HV      0.017000
     11 C11         0.8530    2.4260    6.9760 ca        1 0HV     -0.274200
     12 C12         1.8870    1.4530    7.1440 ca        1 0HV      0.067000
     13 C13         2.1790    0.5700    6.0650 ca        1 0HV     -0.113000
     14 C14         2.6170    1.3030    8.3570 ca        1 0HV     -0.139000
     15 C15         3.5830    0.3370    8.4980 ca        1 0HV     -0.111000
     16 C16         3.8660   -0.5430    7.4340 ca        1 0HV     -0.158000
     17 C17         3.1750   -0.4270    6.2530 ca        1 0HV     -0.101000
     18 C18        -2.2080   -0.5100    0.7620 c         1 0HV      0.909200
     19 O19        -2.6390   -0.5100   -0.4230 o         1 0HV     -0.819800
     20 O20        -2.9090   -0.7270    1.7880 o         1 0HV     -0.819800
     21 N21         0.5260    3.4300    8.0030 no        1 0HV      0.326200
     22 O22         1.3250    3.7410    8.8520 o         1 0HV     -0.243000
     23 O23        -0.5550    3.9660    7.9630 o         1 0HV     -0.243000
     24 H1         -0.3620    0.1070   -1.1240 ha        1 0HV      0.160000
     25 H2          2.0920    0.5820   -0.7910 ha        1 0HV      0.113000
     26 H3          3.0770    0.5130    1.4780 ha        1 0HV      0.110000
     27 H4         -0.8520   -0.5220    3.0930 ha        1 0HV      0.169000
     28 H5          2.6430   -0.6020    3.7670 hn        1 0HV      0.430800
     29 H6         -0.2230    1.6750    3.8220 ha        1 0HV      0.180000
     30 H7         -0.7410    3.1670    5.6940 ha        1 0HV      0.166000
     31 H8          2.4090    1.9680    9.2110 ha        1 0HV      0.165000
     32 H9          4.1370    0.2380    9.4440 ha        1 0HV      0.128000
     33 H10         4.6320   -1.3210    7.5620 ha        1 0HV      0.127000
     34 H11         3.4020   -1.1530    5.4570 ha        1 0HV      0.124000
@<TRIPOS>BOND
     1    1    2 ar  
     2    1    6 ar  
     3    1   24 1   
     4    2    3 ar  
     5    2   25 1   
     6    3    4 ar  
     7    3   26 1   
     8    4    5 ar  
     9    4    7 1   
    10    5    6 ar  
    11    5   27 1   
    12    6   18 1   
    13    7    8 1   
    14    7   28 1   
    15    8    9 ar  
    16    8   13 ar  
    17    9   10 ar  
    18    9   29 1   
    19   10   11 ar  
    20   10   30 1   
    21   11   12 ar  
    22   11   21 1   
    23   12   13 ar  
    24   12   14 ar  
    25   13   17 ar  
    26   14   15 ar  
    27   14   31 1   
    28   15   16 ar  
    29   15   32 1   
    30   16   17 ar  
    31   16   33 1   
    32   17   34 1   
    33   18   19 1   
    34   18   20 1   
    35   21   22 1   
    36   21   23 1   
@<TRIPOS>SUBSTRUCTURE
     1 0HV         1 TEMP              0 ****  ****    0 ROOT
