@<TRIPOS>MOLECULE
0HV
   34    27     1     0     0
SMALL
bcc


@<TRIPOS>ATOM
      1 C01        -2.5430   -2.0340   -2.9540 c1        1 0HV     -0.101000
      2 C02        -1.1940   -1.9850   -3.3530 c1        1 0HV     -0.142750
      3 C03        -0.1610   -1.8340   -2.3820 c1        1 0HV     -0.142750
      4 C04        -0.4650   -1.7380   -1.0920 c1        1 0HV     -0.024000
      5 C05        -1.8260   -1.7860   -0.6750 c1        1 0HV     -0.110000
      6 C06        -2.8620   -1.9380   -1.6520 c1        1 0HV     -0.099000
      7 N07         0.5780   -1.6400   -0.1240 n3        1 0HV     -0.248000
      8 C08         0.7210   -0.4600    0.6680 c2        1 0HV      0.201000
      9 C09         0.2230   -0.7640    1.8920 c2        1 0HV     -0.293000
     10 C10         0.3190    0.1570    2.9180 c1        1 0HV      0.011000
     11 C11         0.9480    1.4330    2.6840 c1        1 0HV     -0.220000
     12 C12         1.4330    1.7200    1.4790 c1        1 0HV      0.061000
     13 C13         1.3330    0.7880    0.4440 c1        1 0HV     -0.097000
     14 C14         2.0810    2.9710    1.2520 c1        1 0HV     -0.156000
     15 C15         2.6130    3.2610   -0.0080 c1        1 0HV     -0.142750
     16 C16         2.5120    2.3310   -1.0370 c1        1 0HV     -0.142750
     17 C17         1.8640    1.0810   -0.8080 c1        1 0HV     -0.078000
     18 C18        -4.2840   -2.0430   -1.2260 c1        1 0HV      0.358000
     19 O19        -5.0130   -0.9660   -1.1090 os        1 0HV     -0.553000
     20 O20        -4.7930   -3.1680   -1.0250 o         1 0HV     -0.558000
     21 N21         0.8610    2.2480    3.8740 no        1 0HV      0.580000
     22 O22        -0.1920    2.3170    4.4940 o         1 0HV     -0.393500
     23 O23         1.9390    2.9060    4.3110 o         1 0HV     -0.393500
     24 H1         -3.2280   -2.1350   -3.6080 ha        1 0HV      0.160000
     25 H2         -0.9660   -2.0550   -4.3030 ha        1 0HV      0.126250
     26 H3          0.8440   -1.8370   -2.6860 ha        1 0HV      0.126250
     27 H4         -2.0570   -1.8220    0.3340 ha        1 0HV      0.166000
     28 H5          1.1060   -2.3250    0.0190 hn        1 0HV      0.230000
     29 H6         -0.2250   -1.6950    2.0600 ha        1 0HV      0.138000
     30 H7         -0.0590   -0.0690    3.8470 ha        1 0HV      0.156000
     31 H8          2.1040    3.9420    1.6520 ha        1 0HV      0.161000
     32 H9          3.1450    3.9940   -0.3310 ha        1 0HV      0.126250
     33 H10         2.9660    2.5530   -1.9440 ha        1 0HV      0.126250
     34 H11         2.2770    0.5950   -1.6110 ha        1 0HV      0.169000
@<TRIPOS>BOND
     1    1    6 1   
     2    1   24 1   
     3    2    3 1   
     4    2   25 1   
     5    3   26 1   
     6    4    5 1   
     7    4    7 1   
     8    5   27 1   
     9    7    8 1   
    10    7   28 1   
    11    8    9 1   
    12    8   13 1   
    13    9   10 1   
    14    9   29 1   
    15   10   30 1   
    16   11   12 1   
    17   11   21 1   
    18   12   14 1   
    19   13   17 1   
    20   14   31 1   
    21   15   16 1   
    22   15   32 1   
    23   16   33 1   
    24   17   34 1   
    25   18   20 1   
    26   21   22 1   
    27   21   23 1   
@<TRIPOS>SUBSTRUCTURE
     1 0HV         1 TEMP              0 ****  ****    0 ROOT
