@<TRIPOS>MOLECULE
0HV
   34    36     1     0     0
SMALL
bcc


@<TRIPOS>ATOM
      1 C01         0.0960    0.0860   -0.1170 ca        1 0HV     -0.100000
      2 C02         1.4520    0.3450    0.0730 ca        1 0HV     -0.149000
      3 C03         2.0090    0.3050    1.3480 ca        1 0HV     -0.171000
      4 C04         1.1920   -0.0060    2.4570 ca        1 0HV      0.062600
      5 C05        -0.1760   -0.2700    2.2590 ca        1 0HV     -0.103000
      6 C06        -0.7210   -0.2210    0.9740 ca        1 0HV     -0.118600
      7 N07         1.7860   -0.1070    3.7440 nh        1 0HV     -0.617000
      8 C08         1.4540    0.6800    4.8160 ca        1 0HV      0.273600
      9 C09         0.3920    1.6050    4.7450 ca        1 0HV     -0.251000
     10 C10         0.0990    2.4450    5.8080 ca        1 0HV      0.017000
     11 C11         0.8560    2.4170    6.9840 ca        1 0HV     -0.274200
     12 C12         1.8900    1.4440    7.1500 ca        1 0HV      0.067000
     13 C13         2.1830    0.5640    6.0690 ca        1 0HV     -0.113000
     14 C14         2.6210    1.2920    8.3630 ca        1 0HV     -0.139000
     15 C15         3.5880    0.3260    8.5010 ca        1 0HV     -0.111000
     16 C16         3.8710   -0.5510    7.4350 ca        1 0HV     -0.158000
     17 C17         3.1790   -0.4340    6.2540 ca        1 0HV     -0.101000
     18 C18        -2.2060   -0.5070    0.7660 c         1 0HV      0.909200
     19 O19        -2.6380   -0.5080   -0.4190 o         1 0HV     -0.819800
     20 O20        -2.9080   -0.7250    1.7920 o         1 0HV     -0.819800
     21 N21         0.5290    3.4180    8.0140 no        1 0HV      0.326200
     22 O22         1.3280    3.7280    8.8630 o         1 0HV     -0.243000
     23 O23        -0.5530    3.9540    7.9760 o         1 0HV     -0.243000
     24 H1         -0.3610    0.1120   -1.1190 ha        1 0HV      0.160000
     25 H2          2.0940    0.5850   -0.7870 ha        1 0HV      0.113000
     26 H3          3.0790    0.5140    1.4820 ha        1 0HV      0.110000
     27 H4         -0.8490   -0.5230    3.0970 ha        1 0HV      0.169000
     28 H5          2.6470   -0.6030    3.7690 hn        1 0HV      0.430800
     29 H6         -0.2210    1.6720    3.8290 ha        1 0HV      0.180000
     30 H7         -0.7390    3.1590    5.7050 ha        1 0HV      0.166000
     31 H8          2.4130    1.9550    9.2180 ha        1 0HV      0.165000
     32 H9          4.1420    0.2260    9.4460 ha        1 0HV      0.128000
     33 H10         4.6370   -1.3290    7.5610 ha        1 0HV      0.127000
     34 H11         3.4060   -1.1570    5.4570 ha        1 0HV      0.124000
@<TRIPOS>BOND
     1    1    2 ar  
     2    1    6 ar  
     3    1   24 1   
     4    2    3 ar  
     5    2   25 1   
     6    3    4 ar  
     7    3   26 1   
     8    4    5 ar  
     9    4    7 1   
    10    5    6 ar  
    11    5   27 1   
    12    6   18 1   
    13    7    8 1   
    14    7   28 1   
    15    8    9 ar  
    16    8   13 ar  
    17    9   10 ar  
    18    9   29 1   
    19   10   11 ar  
    20   10   30 1   
    21   11   12 ar  
    22   11   21 1   
    23   12   13 ar  
    24   12   14 ar  
    25   13   17 ar  
    26   14   15 ar  
    27   14   31 1   
    28   15   16 ar  
    29   15   32 1   
    30   16   17 ar  
    31   16   33 1   
    32   17   34 1   
    33   18   19 1   
    34   18   20 1   
    35   21   22 1   
    36   21   23 1   
@<TRIPOS>SUBSTRUCTURE
     1 0HV         1 TEMP              0 ****  ****    0 ROOT
