@<TRIPOS>MOLECULE
0HV
   34    36     1     0     0
SMALL
bcc


@<TRIPOS>ATOM
      1 C01         4.6650    0.7000   -0.7470 ca        1 0HV     -0.100000
      2 C02         3.9870    1.7220   -1.4090 ca        1 0HV     -0.149000
      3 C03         2.6490    1.9810   -1.1290 ca        1 0HV     -0.171000
      4 C04         1.9750    1.2060   -0.1600 ca        1 0HV      0.062600
      5 C05         2.6660    0.1780    0.5080 ca        1 0HV     -0.103000
      6 C06         4.0070   -0.0750    0.2120 ca        1 0HV     -0.118600
      7 N07         0.6290    1.5240    0.1630 nh        1 0HV     -0.617000
      8 C08        -0.4310    0.6720   -0.0030 ca        1 0HV      0.273600
      9 C09        -0.2420   -0.6610   -0.4220 ca        1 0HV     -0.251000
     10 C10        -1.3190   -1.5020   -0.6520 ca        1 0HV      0.017000
     11 C11        -2.6340   -1.0560   -0.4910 ca        1 0HV     -0.274200
     12 C12        -2.8910    0.2570    0.0130 ca        1 0HV      0.067000
     13 C13        -1.7880    1.1200    0.2710 ca        1 0HV     -0.113000
     14 C14        -4.2020    0.7310    0.3020 ca        1 0HV     -0.139000
     15 C15        -4.4130    1.9870    0.8160 ca        1 0HV     -0.111000
     16 C16        -3.3210    2.8380    1.0800 ca        1 0HV     -0.158000
     17 C17        -2.0430    2.4070    0.8170 ca        1 0HV     -0.101000
     18 C18         4.7500   -1.1930    0.9400 c         1 0HV      0.909200
     19 O19         5.9750   -1.3430    0.6770 o         1 0HV     -0.819800
     20 O20         4.0930   -1.8950    1.7560 o         1 0HV     -0.819800
     21 N21        -3.7090   -1.9950   -0.8590 no        1 0HV      0.326200
     22 O22        -4.8200   -1.6040   -1.1200 o         1 0HV     -0.243000
     23 O23        -3.4490   -3.1720   -0.9250 o         1 0HV     -0.243000
     24 H1          5.7250    0.4810   -0.9560 ha        1 0HV      0.160000
     25 H2          4.5070    2.3300   -2.1630 ha        1 0HV      0.113000
     26 H3          2.1280    2.7890   -1.6610 ha        1 0HV      0.110000
     27 H4          2.1790   -0.4490    1.2760 ha        1 0HV      0.169000
     28 H5          0.4440    2.4940    0.2750 hn        1 0HV      0.430800
     29 H6          0.7800   -1.0510   -0.5760 ha        1 0HV      0.180000
     30 H7         -1.1210   -2.5380   -0.9860 ha        1 0HV      0.166000
     31 H8         -5.0750    0.0850    0.1180 ha        1 0HV      0.165000
     32 H9         -5.4340    2.3360    1.0310 ha        1 0HV      0.128000
     33 H10        -3.5000    3.8370    1.5040 ha        1 0HV      0.127000
     34 H11        -1.2160    3.0880    1.0670 ha        1 0HV      0.124000
@<TRIPOS>BOND
     1    1    2 ar  
     2    1    6 ar  
     3    1   24 1   
     4    2    3 ar  
     5    2   25 1   
     6    3    4 ar  
     7    3   26 1   
     8    4    5 ar  
     9    4    7 1   
    10    5    6 ar  
    11    5   27 1   
    12    6   18 1   
    13    7    8 1   
    14    7   28 1   
    15    8    9 ar  
    16    8   13 ar  
    17    9   10 ar  
    18    9   29 1   
    19   10   11 ar  
    20   10   30 1   
    21   11   12 ar  
    22   11   21 1   
    23   12   13 ar  
    24   12   14 ar  
    25   13   17 ar  
    26   14   15 ar  
    27   14   31 1   
    28   15   16 ar  
    29   15   32 1   
    30   16   17 ar  
    31   16   33 1   
    32   17   34 1   
    33   18   19 1   
    34   18   20 1   
    35   21   22 1   
    36   21   23 1   
@<TRIPOS>SUBSTRUCTURE
     1 0HV         1 TEMP              0 ****  ****    0 ROOT
