@<TRIPOS>MOLECULE
0HV
   34    36     1     0     0
SMALL
bcc


@<TRIPOS>ATOM
      1 C01         0.1010    0.0910   -0.1230 ca        1 0HV     -0.100000
      2 C02         1.4560    0.3500    0.0690 ca        1 0HV     -0.149000
      3 C03         2.0100    0.3090    1.3450 ca        1 0HV     -0.171000
      4 C04         1.1920   -0.0020    2.4530 ca        1 0HV      0.062600
      5 C05        -0.1760   -0.2650    2.2520 ca        1 0HV     -0.103000
      6 C06        -0.7180   -0.2150    0.9660 ca        1 0HV     -0.118600
      7 N07         1.7830   -0.1030    3.7400 nh        1 0HV     -0.617000
      8 C08         1.4510    0.6840    4.8120 ca        1 0HV      0.273600
      9 C09         0.3900    1.6090    4.7390 ca        1 0HV     -0.251000
     10 C10         0.0960    2.4500    5.8010 ca        1 0HV      0.017000
     11 C11         0.8510    2.4210    6.9790 ca        1 0HV     -0.274200
     12 C12         1.8840    1.4470    7.1460 ca        1 0HV      0.067000
     13 C13         2.1770    0.5670    6.0660 ca        1 0HV     -0.113000
     14 C14         2.6120    1.2950    8.3600 ca        1 0HV     -0.139000
     15 C15         3.5780    0.3280    8.5010 ca        1 0HV     -0.111000
     16 C16         3.8620   -0.5500    7.4350 ca        1 0HV     -0.158000
     17 C17         3.1720   -0.4320    6.2530 ca        1 0HV     -0.101000
     18 C18        -2.2040   -0.5010    0.7560 c         1 0HV      0.909200
     19 O19        -2.6340   -0.4990   -0.4300 o         1 0HV     -0.819800
     20 O20        -2.9070   -0.7190    1.7800 o         1 0HV     -0.819800
     21 N21         0.5230    3.4240    8.0080 no        1 0HV      0.326200
     22 O22         1.3210    3.7320    8.8580 o         1 0HV     -0.243000
     23 O23        -0.5580    3.9600    7.9680 o         1 0HV     -0.243000
     24 H1         -0.3550    0.1190   -1.1270 ha        1 0HV      0.160000
     25 H2          2.0990    0.5900   -0.7900 ha        1 0HV      0.113000
     26 H3          3.0810    0.5170    1.4800 ha        1 0HV      0.110000
     27 H4         -0.8510   -0.5180    3.0880 ha        1 0HV      0.169000
     28 H5          2.6430   -0.6010    3.7660 hn        1 0HV      0.430800
     29 H6         -0.2220    1.6770    3.8220 ha        1 0HV      0.180000
     30 H7         -0.7410    3.1650    5.6960 ha        1 0HV      0.166000
     31 H8          2.4040    1.9580    9.2150 ha        1 0HV      0.165000
     32 H9          4.1300    0.2270    9.4460 ha        1 0HV      0.128000
     33 H10         4.6270   -1.3280    7.5620 ha        1 0HV      0.127000
     34 H11         3.4000   -1.1560    5.4560 ha        1 0HV      0.124000
@<TRIPOS>BOND
     1    1    2 ar  
     2    1    6 ar  
     3    1   24 1   
     4    2    3 ar  
     5    2   25 1   
     6    3    4 ar  
     7    3   26 1   
     8    4    5 ar  
     9    4    7 1   
    10    5    6 ar  
    11    5   27 1   
    12    6   18 1   
    13    7    8 1   
    14    7   28 1   
    15    8    9 ar  
    16    8   13 ar  
    17    9   10 ar  
    18    9   29 1   
    19   10   11 ar  
    20   10   30 1   
    21   11   12 ar  
    22   11   21 1   
    23   12   13 ar  
    24   12   14 ar  
    25   13   17 ar  
    26   14   15 ar  
    27   14   31 1   
    28   15   16 ar  
    29   15   32 1   
    30   16   17 ar  
    31   16   33 1   
    32   17   34 1   
    33   18   19 1   
    34   18   20 1   
    35   21   22 1   
    36   21   23 1   
@<TRIPOS>SUBSTRUCTURE
     1 0HV         1 TEMP              0 ****  ****    0 ROOT
