@<TRIPOS>MOLECULE
0HW
   51    52     1     0     0
SMALL
bcc


@<TRIPOS>ATOM
      1 C11        -5.2340   -2.8770   -1.2760 c3        1 0HW      0.140400
      2 C21        -4.7910   -4.3170   -1.3710 c3        1 0HW     -0.101100
      3 O5         -4.1320   -2.1600   -0.6920 os        1 0HW     -0.420900
      4 O1         -5.3690   -0.3050   -0.8640 o         1 0HW     -0.541000
      5 C1         -4.3000   -0.8170   -0.5250 c         1 0HW      0.647100
      6 C2         -3.0910   -0.1640    0.0490 cx        1 0HW      0.015100
      7 O2         -3.3410    0.6950    1.1730 os        1 0HW     -0.368600
      8 C3         -2.9550    1.3220   -0.0590 cx        1 0HW      0.006100
      9 C4         -1.5690    1.9190   -0.1580 c         1 0HW      0.657100
     10 O4         -1.3170    2.6820   -1.1110 o         1 0HW     -0.596100
     11 N          -0.6670    1.6240    0.8470 n         1 0HW     -0.501900
     12 CA          0.7550    1.5790    0.5670 c3        1 0HW      0.014700
     13 C           1.1730    0.1870    0.0010 c         1 0HW      0.659100
     14 O           0.4540   -0.8110    0.2320 o         1 0HW     -0.643100
     15 CB          1.6420    1.8850    1.7980 c3        1 0HW     -0.083700
     16 CG1         1.1010    1.4080    3.1390 c3        1 0HW     -0.059400
     17 CG2         1.9020    3.3770    1.8580 c3        1 0HW     -0.087100
     18 CD1         1.0520   -0.0930    3.2510 c3        1 0HW     -0.123100
     19 N1          2.2640    0.1120   -0.8360 n         1 0HW     -0.419800
     20 CA1         3.1390   -1.0670   -0.8480 c3        1 0HW     -0.037300
     21 C5          3.8250   -1.4090    0.5190 c         1 0HW      0.912600
     22 O3          3.7450   -0.5880    1.4750 o         1 0HW     -0.832300
     23 CB1         4.2430   -0.7460   -1.8770 c3        1 0HW     -0.071400
     24 CG          4.2560    0.7740   -2.0160 c3        1 0HW     -0.081400
     25 CD          3.0080    1.2820   -1.2690 c3        1 0HW      0.081000
     26 OXT         4.4500   -2.5020    0.5570 o         1 0HW     -0.832300
     27 H11        -5.4570   -2.4370   -2.2820 h1        1 0HW      0.048200
     28 H12        -6.1320   -2.7550   -0.6150 h1        1 0HW      0.048200
     29 H21        -3.8760   -4.4030   -2.0040 hc        1 0HW      0.049033
     30 H22        -4.5550   -4.7220   -0.3590 hc        1 0HW      0.049033
     31 H23        -5.6120   -4.9200   -1.8270 hc        1 0HW      0.049033
     32 H2         -2.1980   -0.8230    0.1510 h1        1 0HW      0.165700
     33 H31        -3.7470    1.9340   -0.5360 h1        1 0HW      0.131700
     34 H          -0.9640    0.9390    1.5150 hn        1 0HW      0.318500
     35 HA          0.9550    2.3670   -0.2220 h1        1 0HW      0.085700
     36 HB          2.6260    1.3400    1.6350 hc        1 0HW      0.133700
     37 HG12        1.7930    1.8020    3.9350 hc        1 0HW      0.023700
     38 HG13        0.0950    1.8560    3.3480 hc        1 0HW      0.023700
     39 HG21        0.9480    3.9410    1.9930 hc        1 0HW      0.027033
     40 HG22        2.5790    3.6130    2.7140 hc        1 0HW      0.027033
     41 HG23        2.3930    3.7280    0.9180 hc        1 0HW      0.027033
     42 HD11        2.0380   -0.5390    2.9470 hc        1 0HW      0.052367
     43 HD12        0.8260   -0.3910    4.3030 hc        1 0HW      0.052367
     44 HD13        0.2680   -0.5260    2.5840 hc        1 0HW      0.052367
     45 HA1         2.5260   -1.9550   -1.1590 h1        1 0HW      0.071700
     46 HB2         5.2220   -1.1410   -1.5130 hc        1 0HW      0.048200
     47 HB3         4.0140   -1.2280   -2.8590 hc        1 0HW      0.048200
     48 HG2         5.1770    1.2080   -1.5570 hc        1 0HW      0.034200
     49 HG3         4.2210    1.0850   -3.0870 hc        1 0HW      0.034200
     50 HD2         2.3570    1.8970   -1.9490 h1        1 0HW      0.033200
     51 HD3         3.3150    1.9270   -0.3980 h1        1 0HW      0.033200
@<TRIPOS>BOND
     1    1    2 1   
     2    1    3 1   
     3    1   27 1   
     4    1   28 1   
     5    2   29 1   
     6    2   30 1   
     7    2   31 1   
     8    3    5 1   
     9    4    5 2   
    10    5    6 1   
    11    6    7 1   
    12    6    8 1   
    13    6   32 1   
    14    7    8 1   
    15    8    9 1   
    16    8   33 1   
    17    9   10 2   
    18    9   11 1   
    19   11   12 1   
    20   11   34 1   
    21   12   13 1   
    22   12   15 1   
    23   12   35 1   
    24   13   14 2   
    25   13   19 1   
    26   15   16 1   
    27   15   17 1   
    28   15   36 1   
    29   16   18 1   
    30   16   37 1   
    31   16   38 1   
    32   17   39 1   
    33   17   40 1   
    34   17   41 1   
    35   18   42 1   
    36   18   43 1   
    37   18   44 1   
    38   19   20 1   
    39   19   25 1   
    40   20   21 1   
    41   20   23 1   
    42   20   45 1   
    43   21   22 1   
    44   21   26 1   
    45   23   24 1   
    46   23   46 1   
    47   23   47 1   
    48   24   25 1   
    49   24   48 1   
    50   24   49 1   
    51   25   50 1   
    52   25   51 1   
@<TRIPOS>SUBSTRUCTURE
     1 0HW         1 TEMP              0 ****  ****    0 ROOT
