@<TRIPOS>MOLECULE
0HX
   41    40     1     0     0
SMALL
bcc


@<TRIPOS>ATOM
      1 C4          0.6010    0.6670   -0.6330 c3        1 0HX     -0.186500
      2 C5          1.8990   -0.0740   -0.8200 c3        1 0HX     -0.214000
      3 C6         -1.6480   -2.2310    3.8700 c1        1 0HX      0.003000
      4 C11        -0.9060   -3.2210    3.0620 c3        1 0HX     -0.166000
      5 C7         -0.0130   -1.4100    5.4650 c2        1 0HX     -0.167000
      6 C8          1.0280   -0.7390    4.6610 c2        1 0HX      0.321000
      7 C9          0.0610   -1.7450    6.7630 c2        1 0HX     -0.190000
      8 C10         1.0950   -1.3880    7.7210 c1        1 0HX      0.055000
      9 C13        -0.5250   -5.1250    5.5480 cx        1 0HX     -0.154000
     10 N1          0.3520   -3.7680    3.4940 n7        1 0HX     -0.316000
     11 C3         -0.1550    0.1730    0.5970 c3        1 0HX      0.018000
     12 C2         -1.4140    1.0060    0.8230 c3        1 0HX     -0.186500
     13 O1         -0.4730   -1.2080    0.4800 oh        1 0HX     -0.341000
     14 O2         -1.2980   -1.4850    4.8340 os        1 0HX     -0.009000
     15 O3          0.8750    0.2050    3.8900 o         1 0HX     -0.266000
     16 O4          2.3120   -1.2080    4.7070 oh        1 0HX     -0.289000
     17 O5          2.2710   -1.9550    7.5350 oh        1 0HX     -0.234000
     18 O6         -0.7800   -5.8030    4.3080 os        1 0HX     -0.251000
     19 H1         -0.0450    0.5350   -1.5400 hc        1 0HX      0.080000
     20 H2          0.8010    1.7640   -0.5170 hc        1 0HX      0.080000
     21 H3          2.5940    0.1310    0.0300 hc        1 0HX      0.079333
     22 H4          1.7130   -1.1750   -0.8600 hc        1 0HX      0.079333
     23 H5          2.3960    0.2420   -1.7680 hc        1 0HX      0.079333
     24 H6          0.5080    0.2180    1.5100 h1        1 0HX      0.135000
     25 H7         -1.6230   -4.0760    2.8650 h1        1 0HX      0.174500
     26 H8         -0.8250   -2.1960    7.2580 ha        1 0HX      0.184000
     27 H9         -0.7260   -2.7020    2.0610 h1        1 0HX      0.174500
     28 H10         1.3310   -5.4400    4.2890 h2        1 0HX      0.152000
     29 H11        -1.3010   -4.3890    5.8280 h1        1 0HX      0.117000
     30 H12        -0.2010   -5.7860    6.3720 h1        1 0HX      0.117000
     31 H13         1.0040   -3.0790    3.8130 hn        1 0HX      0.184000
     32 H14        -1.0390   -1.3080   -0.2940 ho        1 0HX      0.195000
     33 H15        -2.2440   -0.3760    2.2730 hc        1 0HX      0.079333
     34 H16        -1.3300    1.0100    2.9880 hc        1 0HX      0.079333
     35 H17        -2.9840    1.2830    2.2890 hc        1 0HX      0.079333
     36 H18        -2.1530    0.7880    0.0070 hc        1 0HX      0.080000
     37 H19        -1.1470    2.0930    0.7540 hc        1 0HX      0.080000
     38 H21         2.8680   -1.6420    8.2420 ho        1 0HX      0.277000
     39 C12         0.3510   -4.9090    4.3470 cx        1 0HX      0.046000
     40 C1         -2.0300    0.7180    2.1660 c3        1 0HX     -0.214000
     41 H121        2.3930   -1.9170    5.3620 ho        1 0HX      0.234000
@<TRIPOS>BOND
     1    1    2 1   
     2    1   11 1   
     3    1   19 1   
     4    1   20 1   
     5    2   21 1   
     6    2   22 1   
     7    2   23 1   
     8    3    4 1   
     9    3   14 1   
    10    4   10 1   
    11    4   25 1   
    12    4   27 1   
    13    5    6 1   
    14    5    7 1   
    15    5   14 1   
    16    6   15 1   
    17    6   16 1   
    18    7    8 1   
    19    7   26 1   
    20    8   17 1   
    21    9   18 1   
    22    9   29 1   
    23    9   30 1   
    24    9   39 1   
    25   10   31 1   
    26   10   39 1   
    27   11   12 1   
    28   11   13 1   
    29   11   24 1   
    30   12   36 1   
    31   12   37 1   
    32   12   40 1   
    33   13   32 1   
    34   16   41 1   
    35   17   38 1   
    36   18   39 1   
    37   28   39 1   
    38   33   40 1   
    39   34   40 1   
    40   35   40 1   
@<TRIPOS>SUBSTRUCTURE
     1 0HX         1 TEMP              0 ****  ****    0 ROOT
