@<TRIPOS>MOLECULE
0HX
   40    38     1     0     0
SMALL
bcc


@<TRIPOS>ATOM
      1 C4         -2.7640    0.1730    0.3590 c2        1 0HX     -0.267000
      2 C5          5.0230   -0.6950    2.2710 c3        1 0HX     -0.058000
      3 C6          0.6370   -1.5790    2.1410 c2        1 0HX     -0.281000
      4 C11         0.5640   -3.0840    2.3700 c3        1 0HX     -0.035000
      5 C7          1.8030   -0.6950    4.0920 c2        1 0HX      0.198000
      6 C8          3.1150   -1.1960    3.5910 c2        1 0HX      0.349000
      7 C9          1.7160   -0.0370    5.2980 c2        1 0HX     -0.399000
      8 C10         2.8920    0.1960    6.0610 c1        1 0HX     -0.072000
      9 C13        -2.9020   -4.6580    2.6650 c3        1 0HX     -0.246000
     10 N1         -0.7580   -3.4490    2.8260 n         1 0HX     -0.322000
     11 C3         -2.3210   -0.3370    1.5050 c2        1 0HX     -0.167000
     12 C2         -3.1770   -0.5160    2.7050 c3        1 0HX     -0.128000
     13 O1          1.7680   -1.2870    1.3870 oh        1 0HX     -0.345000
     14 O2          0.7080   -0.8340    3.3240 os        1 0HX     -0.166000
     15 O3          3.8040   -0.2580    2.8640 os        1 0HX     -0.259000
     16 O4          3.6270   -2.3060    3.7440 o         1 0HX     -0.362000
     17 O5          2.6620    0.8410    7.2190 oh        1 0HX     -0.272000
     18 O6         -0.8650   -5.4510    1.6770 o         1 0HX     -0.408000
     19 H1         -3.7960    0.5160    0.2120 ha        1 0HX      0.091000
     20 H2         -2.1130    0.2820   -0.5170 ha        1 0HX      0.091000
     21 H3          5.7340   -1.0370    3.0620 h1        1 0HX      0.077333
     22 H4         -1.2580   -0.6760    1.6360 ha        1 0HX      0.214000
     23 H5          5.4070    0.2130    1.7460 h1        1 0HX      0.077333
     24 H6          1.5960   -0.4220    0.9990 ho        1 0HX      0.195000
     25 H7          0.8080   -3.6200    1.4110 h1        1 0HX      0.086000
     26 H8          0.7220    0.2910    5.6380 ha        1 0HX      0.115000
     27 H9          1.3020   -3.4160    3.1580 h1        1 0HX      0.086000
     28 H10        -3.2910   -5.6220    2.2600 hc        1 0HX      0.090000
     29 H11        -3.4710   -3.8140    2.2060 hc        1 0HX      0.090000
     30 H12        -3.0540   -4.6390    3.7700 hc        1 0HX      0.090000
     31 H13        -1.3100   -2.6750    3.1340 hn        1 0HX      0.220000
     32 H14         4.8170   -1.5260    1.5540 h1        1 0HX      0.077333
     33 H15        -1.4660   -0.4030    4.0380 hc        1 0HX      0.080333
     34 H16        -2.4230    1.1270    3.9030 hc        1 0HX      0.080333
     35 H17        -3.0890   -0.2620    4.8560 hc        1 0HX      0.080333
     36 H18        -3.3760   -1.6170    2.8320 hc        1 0HX      0.061500
     37 H19        -4.1740   -0.0180    2.5710 hc        1 0HX      0.061500
     38 H21         3.5310    0.9290    7.6380 ho        1 0HX      0.214000
     39 C12        -1.4300   -4.5400    2.3250 c2        1 0HX      0.280000
     40 C1         -2.5030    0.0150    3.9470 c3        1 0HX     -0.219000
@<TRIPOS>BOND
     1    1   11 1   
     2    1   19 1   
     3    1   20 1   
     4    2   15 1   
     5    2   21 1   
     6    2   23 1   
     7    2   32 1   
     8    3    4 1   
     9    3   13 1   
    10    3   14 1   
    11    4   10 1   
    12    4   25 1   
    13    4   27 1   
    14    5    6 1   
    15    5    7 1   
    16    5   14 1   
    17    6   15 1   
    18    6   16 1   
    19    7    8 1   
    20    7   26 1   
    21    8   17 1   
    22    9   28 1   
    23    9   29 1   
    24    9   30 1   
    25    9   39 1   
    26   10   31 1   
    27   10   39 1   
    28   11   12 1   
    29   11   22 1   
    30   12   36 1   
    31   12   37 1   
    32   12   40 1   
    33   13   24 1   
    34   17   38 1   
    35   18   39 1   
    36   33   40 1   
    37   34   40 1   
    38   35   40 1   
@<TRIPOS>SUBSTRUCTURE
     1 0HX         1 TEMP              0 ****  ****    0 ROOT
