@<TRIPOS>MOLECULE
0HX
   40    37     1     0     0
SMALL
bcc


@<TRIPOS>ATOM
      1 C4          2.0500   -1.8830    0.9300 c3        1 0HX     -0.173000
      2 C5          1.3790   -3.2640    1.1250 c3        1 0HX     -0.207500
      3 C6         -0.5130    0.2500   -0.2460 c3        1 0HX      0.137000
      4 C11        -0.8790    1.4250    0.1270 c3        1 0HX     -0.030000
      5 C7         -1.8660    0.2550   -2.3890 c1        1 0HX      0.064000
      6 C8         -2.6140   -0.8080   -3.1200 c2        1 0HX      0.384000
      7 C9         -2.7120    1.5800   -1.6960 c1        1 0HX     -0.396000
      8 C10        -2.4200    1.8310   -0.2600 c2        1 0HX      0.078000
      9 C12        -0.2700    2.7310    2.2740 c1        1 0HX      0.313000
     10 C13        -0.2330    2.8510    3.7970 c2        1 0HX     -0.244000
     11 N1         -0.7300    1.5110    1.6600 n3        1 0HX     -0.357000
     12 C3          1.4450   -1.1920   -0.2720 c3        1 0HX      0.041000
     13 C1          2.7690   -2.2120   -2.1220 c3        1 0HX     -0.207500
     14 C2          2.5550   -0.9580   -1.3530 c3        1 0HX     -0.173000
     15 O1          0.8970    0.0650    0.1300 os        1 0HX     -0.280000
     16 O2         -0.6510   -0.0330   -1.8040 o         1 0HX     -0.224000
     17 O3         -2.3960   -1.0020   -4.3460 o         1 0HX     -0.534000
     18 O4         -3.4600   -1.5030   -2.5170 o         1 0HX     -0.534000
     19 O5         -2.6920    3.1880    0.1120 oh        1 0HX     -0.336000
     20 O6          0.0020    3.7000    1.5790 o         1 0HX     -0.378000
     21 H1          1.9060   -1.3350    1.7270 hc        1 0HX      0.091500
     22 H2          3.0190   -2.0050    0.7850 hc        1 0HX      0.091500
     23 H3          1.6510   -3.8700    0.3930 hc        1 0HX      0.068500
     24 H4          0.3990   -3.1570    1.1150 hc        1 0HX      0.068500
     25 H5          1.6600   -3.6450    1.9870 hc        1 0HX      0.068500
     26 H6         -1.0510   -0.4080    0.2340 h2        1 0HX      0.071000
     27 H7         -0.2860    2.0690   -0.2730 h1        1 0HX      0.155000
     28 H8         -3.5490    1.8680   -2.0760 ha        1 0HX      0.152000
     29 H9         -3.0560    1.3540    0.3000 h4        1 0HX      0.090000
     30 H10        -0.0580    3.7870    4.0500 ha        1 0HX      0.095667
     31 H11         0.4780    2.2780    4.1530 ha        1 0HX      0.095667
     32 H12        -1.0950    2.5680    4.1670 ha        1 0HX      0.095667
     33 H13        -0.9460    0.7890    2.1820 hn        1 0HX      0.213000
     34 H14         0.7200   -1.7650   -0.6560 h1        1 0HX      0.106000
     35 H15         3.2800   -2.8370   -1.5860 hc        1 0HX      0.068500
     36 H16         1.9090   -2.6050   -2.3450 hc        1 0HX      0.068500
     37 H17         3.2600   -2.0110   -2.9470 hc        1 0HX      0.068500
     38 H18         2.2760   -0.2530   -1.9550 hc        1 0HX      0.091500
     39 H19         3.3900   -0.6990   -0.9130 hc        1 0HX      0.091500
     40 H21        -3.5680    3.3440    0.0500 ho        1 0HX      0.207000
@<TRIPOS>BOND
     1    1    2 1   
     2    1   12 1   
     3    1   21 1   
     4    1   22 1   
     5    2   23 1   
     6    2   24 1   
     7    2   25 1   
     8    3    4 1   
     9    3   15 1   
    10    3   16 1   
    11    3   26 1   
    12    4    8 1   
    13    4   11 1   
    14    4   27 1   
    15    5    6 1   
    16    5    7 1   
    17    6   17 1   
    18    6   18 1   
    19    7   28 1   
    20    8   19 1   
    21    8   29 1   
    22    9   11 1   
    23    9   20 1   
    24   10   30 1   
    25   10   31 1   
    26   10   32 1   
    27   11   33 1   
    28   12   14 1   
    29   12   15 1   
    30   12   34 1   
    31   13   14 1   
    32   13   35 1   
    33   13   36 1   
    34   13   37 1   
    35   14   38 1   
    36   14   39 1   
    37   19   40 1   
@<TRIPOS>SUBSTRUCTURE
     1 0HX         1 TEMP              0 ****  ****    0 ROOT
