@<TRIPOS>MOLECULE
0HX
   40    40     1     0     0
SMALL
bcc


@<TRIPOS>ATOM
      1 C4          0.8080    3.2550   -1.2300 c3        1 0HX     -0.088900
      2 C5          2.0490    2.5900   -1.7650 c3        1 0HX     -0.096100
      3 C6         -0.0530    0.2850    0.4630 c3        1 0HX      0.313900
      4 C11        -1.0240   -0.8540    0.0480 c3        1 0HX      0.046700
      5 C7          1.7630   -1.2340    0.2480 ce        1 0HX      0.087900
      6 C8          3.2990   -1.3070    0.1170 c         1 0HX      0.933800
      7 C9          0.9620   -2.2720    0.5470 c2        1 0HX     -0.399200
      8 C10        -0.5060   -2.1520    0.7380 c3        1 0HX      0.194300
      9 C13        -4.7940   -0.1880    0.0000 c3        1 0HX     -0.176100
     10 N1         -2.3900   -0.5500    0.3860 n         1 0HX     -0.548900
     11 C3          0.3600    2.6170    0.0860 c3        1 0HX      0.143100
     12 C2         -0.5440    3.5710    0.8650 c3        1 0HX     -0.088900
     13 O1         -0.3990    1.4480   -0.2610 os        1 0HX     -0.417600
     14 O2          1.2880    0.0430    0.0450 os        1 0HX     -0.338900
     15 O3          3.9620   -0.7790    1.0440 o         1 0HX     -0.798800
     16 O4          3.7550   -1.9100   -0.8850 o         1 0HX     -0.798800
     17 O5         -1.2060   -3.2800    0.2390 oh        1 0HX     -0.606800
     18 O6         -3.2680   -0.9090   -1.7120 o         1 0HX     -0.616100
     19 H1          0.9980    4.3460   -1.0600 hc        1 0HX      0.037200
     20 H2         -0.0260    3.1640   -1.9740 hc        1 0HX      0.037200
     21 H3          2.2580    2.9350   -2.8060 hc        1 0HX      0.037867
     22 H4          2.9330    2.8270   -1.1260 hc        1 0HX      0.037867
     23 H5          1.9170    1.4770   -1.7680 hc        1 0HX      0.037867
     24 H6         -0.0640    0.4650    1.5750 h2        1 0HX      0.034700
     25 H7         -0.9550   -0.9870   -1.0730 h1        1 0HX      0.115700
     26 H8          1.3840   -3.2770    0.6740 ha        1 0HX      0.152000
     27 H9         -0.7660   -2.1420    1.8360 h1        1 0HX      0.051700
     28 H10        -5.5270   -0.2590   -0.8380 hc        1 0HX      0.056367
     29 H11        -5.1100   -0.8780    0.8190 hc        1 0HX      0.056367
     30 H12        -4.7830    0.8590    0.3870 hc        1 0HX      0.056367
     31 H13        -2.5700   -0.2650    1.3170 hn        1 0HX      0.298500
     32 H14         1.2580    2.3400    0.7040 h1        1 0HX      0.077700
     33 H15        -0.0060    2.7910    2.8170 hc        1 0HX      0.037867
     34 H16        -1.5290    3.7740    2.7830 hc        1 0HX      0.037867
     35 H17        -1.5180    2.0910    2.1070 hc        1 0HX      0.037867
     36 H18        -0.0060    4.5470    0.9870 hc        1 0HX      0.037200
     37 H19        -1.4710    3.7640    0.2650 hc        1 0HX      0.037200
     38 H21        -0.8940   -3.4320   -0.6610 ho        1 0HX      0.408000
     39 C12        -3.4260   -0.5760   -0.5200 c         1 0HX      0.668100
     40 C1         -0.9190    3.0290    2.2190 c3        1 0HX     -0.096100
@<TRIPOS>BOND
     1    1    2 1   
     2    1   11 1   
     3    1   19 1   
     4    1   20 1   
     5    2   21 1   
     6    2   22 1   
     7    2   23 1   
     8    3    4 1   
     9    3   13 1   
    10    3   14 1   
    11    3   24 1   
    12    4    8 1   
    13    4   10 1   
    14    4   25 1   
    15    5    6 1   
    16    5    7 2   
    17    5   14 1   
    18    6   15 1   
    19    6   16 1   
    20    7    8 1   
    21    7   26 1   
    22    8   17 1   
    23    8   27 1   
    24    9   28 1   
    25    9   29 1   
    26    9   30 1   
    27    9   39 1   
    28   10   31 1   
    29   10   39 1   
    30   11   12 1   
    31   11   13 1   
    32   11   32 1   
    33   12   36 1   
    34   12   37 1   
    35   12   40 1   
    36   17   38 1   
    37   18   39 2   
    38   33   40 1   
    39   34   40 1   
    40   35   40 1   
@<TRIPOS>SUBSTRUCTURE
     1 0HX         1 TEMP              0 ****  ****    0 ROOT
