@<TRIPOS>MOLECULE
0HY
   34    35     1     0     0
SMALL
bcc


@<TRIPOS>ATOM
      1 O1          0.0810   -1.0910    0.1050 o         1 0HY     -0.485500
      2 N1          4.0000   -0.2000   -2.3980 nz        1 0HY     -0.815600
      3 C1          1.9480   -0.1270    1.3270 cc        1 0HY     -0.357400
      4 C2          1.2240   -0.6510    0.1810 c         1 0HY      0.739700
      5 N2          3.9420    0.3030   -0.0600 nd        1 0HY     -0.633300
      6 C3          1.6840   -0.2460    7.4120 c         1 0HY      0.628100
      7 N3          3.3990    0.9180    3.5000 nc        1 0HY     -0.366400
      8 C4          2.1640    0.5100    3.7130 cd        1 0HY      0.335300
      9 C5          1.7940   -1.2630    9.5620 c3        1 0HY      0.124700
     10 C6          3.2700    0.3330    1.1850 cd        1 0HY      0.403600
     11 C7          1.2920   -0.0790    2.6400 c         1 0HY      0.477000
     12 C8          2.4370    0.0090    6.1420 c3        1 0HY     -0.127400
     13 N4          3.9450    0.8280    2.2920 na        1 0HY     -0.369100
     14 C9          3.2540   -0.1820   -1.0860 cc        1 0HY      0.593800
     15 C10         1.2660    2.1020    5.3940 c3        1 0HY     -0.101100
     16 N5          1.9620   -0.6580   -1.0710 ns        1 0HY     -0.500400
     17 O2          0.5470    0.1070    7.7280 o         1 0HY     -0.530000
     18 O3          2.4170   -0.9750    8.3070 os        1 0HY     -0.438900
     19 C11         1.5440    0.6430    5.0850 c3        1 0HY     -0.090000
     20 O4          0.1500   -0.4820    2.8530 o         1 0HY     -0.455100
     21 H1          3.4990    0.3790   -3.0840 hn        1 0HY      0.486800
     22 H2          4.0720   -1.1660   -2.7390 hn        1 0HY      0.486800
     23 H3          0.8650   -1.8600    9.3960 h1        1 0HY      0.058033
     24 H4          1.5510   -0.3120   10.0930 h1        1 0HY      0.058033
     25 H5          2.5710   -1.8530   10.1090 h1        1 0HY      0.058033
     26 H6          2.8480   -0.9700    5.7770 hc        1 0HY      0.087700
     27 H7          3.3070    0.6790    6.3800 hc        1 0HY      0.087700
     28 H8          0.7290    2.1650    6.3750 hc        1 0HY      0.058033
     29 H9          0.6180    2.5520    4.6050 hc        1 0HY      0.058033
     30 H10         2.2130    2.6880    5.4640 hc        1 0HY      0.058033
     31 H11         1.4980   -1.0120   -1.8830 hn        1 0HY      0.355500
     32 H12         0.5570    0.0880    5.0670 hc        1 0HY      0.116700
     33 H14         4.8890    1.1720    2.2320 hn        1 0HY      0.510800
     34 H13         4.9500    0.1820   -2.2650 hn        1 0HY      0.486800
@<TRIPOS>BOND
     1    1    4 2   
     2    2   14 1   
     3    2   21 1   
     4    2   22 1   
     5    2   34 1   
     6    3    4 1   
     7    3   10 2   
     8    3   11 1   
     9    4   16 1   
    10    5   10 1   
    11    5   14 2   
    12    6   12 1   
    13    6   17 2   
    14    6   18 1   
    15    7    8 2   
    16    7   13 1   
    17    8   11 1   
    18    8   19 1   
    19    9   18 1   
    20    9   23 1   
    21    9   24 1   
    22    9   25 1   
    23   10   13 1   
    24   11   20 2   
    25   12   19 1   
    26   12   26 1   
    27   12   27 1   
    28   13   33 1   
    29   14   16 1   
    30   15   19 1   
    31   15   28 1   
    32   15   29 1   
    33   15   30 1   
    34   16   31 1   
    35   19   32 1   
@<TRIPOS>SUBSTRUCTURE
     1 0HY         1 TEMP              0 ****  ****    0 ROOT
