@<TRIPOS>MOLECULE
0HY
   33    34     1     0     0
SMALL
bcc


@<TRIPOS>ATOM
      1 O1          2.6380   -2.0250    1.7180 o         1 0HY     -0.577500
      2 N1          5.6440    1.2010    0.2110 nh        1 0HY     -0.919800
      3 C1          1.7380   -0.2990    0.2740 cc        1 0HY     -0.419400
      4 C2          2.7570   -0.9950    1.0420 c         1 0HY      0.743700
      5 N2          3.3800    1.4090   -0.4300 nd        1 0HY     -0.746300
      6 C3         -4.3000    0.1760   -0.0970 c         1 0HY      0.632100
      7 N3         -0.1400    1.1300   -1.2590 nc        1 0HY     -0.379400
      8 C4         -0.5360    0.0430   -0.6250 cd        1 0HY      0.285300
      9 C5         -6.0910    0.1700    1.4750 c3        1 0HY      0.125700
     10 C6          2.1010    0.8720   -0.4300 cd        1 0HY      0.443600
     11 C7          0.3730   -0.7970    0.2280 c         1 0HY      0.495000
     12 C8         -2.9270    0.6990   -0.3850 c3        1 0HY     -0.122400
     13 N4          1.1140    1.5410   -1.1640 na        1 0HY     -0.402100
     14 C9          4.3300    0.7360    0.2750 cc        1 0HY      0.745800
     15 C10        -2.2310   -0.9470   -2.1510 c3        1 0HY     -0.101100
     16 N5          4.0620   -0.4150    1.0190 n         1 0HY     -0.516400
     17 O2         -5.0290   -0.5410   -0.7850 o         1 0HY     -0.542000
     18 O3         -4.7830    0.6080    1.1100 os        1 0HY     -0.440900
     19 C11        -1.9660   -0.4250   -0.7530 c3        1 0HY     -0.080000
     20 O4         -0.0420   -1.8010    0.8170 o         1 0HY     -0.521100
     21 H1          5.7980    2.0790   -0.2280 hn        1 0HY      0.443800
     22 H2          6.2810    0.9300    0.9200 hn        1 0HY      0.443800
     23 H3         -6.2550    0.6330    2.4790 h1        1 0HY      0.050700
     24 H4         -6.8370    0.5360    0.7290 h1        1 0HY      0.050700
     25 H5         -6.1190   -0.9450    1.5280 h1        1 0HY      0.050700
     26 H6         -3.0140    1.4300   -1.2330 hc        1 0HY      0.084700
     27 H7         -2.5470    1.2500    0.5170 hc        1 0HY      0.084700
     28 H8         -3.2860   -1.3150   -2.2160 hc        1 0HY      0.051367
     29 H9         -2.0870   -0.1440   -2.9130 hc        1 0HY      0.051367
     30 H10        -1.5390   -1.7910   -2.3850 hc        1 0HY      0.051367
     31 H11         4.7870   -0.8950    1.5070 hn        1 0HY      0.336500
     32 H12        -2.1030   -1.2740   -0.0190 hc        1 0HY      0.101700
     33 H14         1.3300    2.3660   -1.6920 hn        1 0HY      0.492800
@<TRIPOS>BOND
     1    1    4 2   
     2    2   14 1   
     3    2   21 1   
     4    2   22 1   
     5    3    4 1   
     6    3   10 2   
     7    3   11 1   
     8    4   16 1   
     9    5   10 1   
    10    5   14 2   
    11    6   12 1   
    12    6   17 2   
    13    6   18 1   
    14    7    8 2   
    15    7   13 1   
    16    8   11 1   
    17    8   19 1   
    18    9   18 1   
    19    9   23 1   
    20    9   24 1   
    21    9   25 1   
    22   10   13 1   
    23   11   20 2   
    24   12   19 1   
    25   12   26 1   
    26   12   27 1   
    27   13   33 1   
    28   14   16 1   
    29   15   19 1   
    30   15   28 1   
    31   15   29 1   
    32   15   30 1   
    33   16   31 1   
    34   19   32 1   
@<TRIPOS>SUBSTRUCTURE
     1 0HY         1 TEMP              0 ****  ****    0 ROOT
