@<TRIPOS>MOLECULE
0HY
   34    35     1     0     0
SMALL
bcc


@<TRIPOS>ATOM
      1 O1          0.0740   -1.0600    0.0980 o         1 0HY     -0.485500
      2 N1          4.0120   -0.2200   -2.3940 n4        1 0HY     -0.815600
      3 C1          1.9510   -0.1230    1.3260 cc        1 0HY     -0.357400
      4 C2          1.2230   -0.6360    0.1770 c         1 0HY      0.739700
      5 N2          3.9540    0.2810   -0.0560 nd        1 0HY     -0.633300
      6 C3          1.6690   -0.2410    7.4110 c         1 0HY      0.628100
      7 N3          3.4100    0.9010    3.5040 nc        1 0HY     -0.366400
      8 C4          2.1690    0.5090    3.7120 cd        1 0HY      0.335300
      9 C5          1.7620   -1.2530    9.5640 c3        1 0HY      0.124700
     10 C6          3.2800    0.3190    1.1880 cd        1 0HY      0.403600
     11 C7          1.2920   -0.0680    2.6370 c         1 0HY      0.477000
     12 C8          2.4290    0.0030    6.1420 c3        1 0HY     -0.127400
     13 N4          3.9580    0.8040    2.2960 na        1 0HY     -0.369100
     14 C9          3.2630   -0.1940   -1.0840 cc        1 0HY      0.593800
     15 C10         1.2880    2.1120    5.3920 c3        1 0HY     -0.101100
     16 N5          1.9640   -0.6520   -1.0730 n         1 0HY     -0.500400
     17 O2          0.5340    0.1230    7.7210 o         1 0HY     -0.530000
     18 O3          2.3920   -0.9740    8.3100 os        1 0HY     -0.438900
     19 C11         1.5460    0.6500    5.0830 c3        1 0HY     -0.090000
     20 O4          0.1440   -0.4560    2.8460 o         1 0HY     -0.455100
     21 H1          4.9660    0.1490   -2.2580 hn        1 0HY      0.486800
     22 H2          4.0720   -1.1870   -2.7360 hn        1 0HY      0.486800
     23 H3          0.8290   -1.8410    9.3960 h1        1 0HY      0.058033
     24 H4          2.5320   -1.8480   10.1150 h1        1 0HY      0.058033
     25 H5          1.5260   -0.2980   10.0910 h1        1 0HY      0.058033
     26 H6          2.8270   -0.9810    5.7780 hc        1 0HY      0.087700
     27 H7          3.3070    0.6610    6.3830 hc        1 0HY      0.087700
     28 H8          0.7480    2.1820    6.3710 hc        1 0HY      0.058033
     29 H9          2.2420    2.6850    5.4650 hc        1 0HY      0.058033
     30 H10         0.6480    2.5710    4.6010 hc        1 0HY      0.058033
     31 H11         1.4970   -0.9990   -1.8860 hn        1 0HY      0.355500
     32 H12         0.5520    0.1080    5.0620 hc        1 0HY      0.116700
     33 H14         4.9070    1.1360    2.2390 hn        1 0HY      0.510800
     34 H13         3.5210    0.3650   -3.0810 hn        1 0HY      0.486800
@<TRIPOS>BOND
     1    1    4 2   
     2    2   14 1   
     3    2   21 1   
     4    2   22 1   
     5    2   34 1   
     6    3    4 1   
     7    3   10 2   
     8    3   11 1   
     9    4   16 1   
    10    5   10 1   
    11    5   14 2   
    12    6   12 1   
    13    6   17 2   
    14    6   18 1   
    15    7    8 2   
    16    7   13 1   
    17    8   11 1   
    18    8   19 1   
    19    9   18 1   
    20    9   23 1   
    21    9   24 1   
    22    9   25 1   
    23   10   13 1   
    24   11   20 2   
    25   12   19 1   
    26   12   26 1   
    27   12   27 1   
    28   13   33 1   
    29   14   16 1   
    30   15   19 1   
    31   15   28 1   
    32   15   29 1   
    33   15   30 1   
    34   16   31 1   
    35   19   32 1   
@<TRIPOS>SUBSTRUCTURE
     1 0HY         1 TEMP              0 ****  ****    0 ROOT
