@<TRIPOS>MOLECULE
0HY
   33    28     1     0     0
SMALL
bcc


@<TRIPOS>ATOM
      1 O1         -1.7990    0.5440   -3.4520 o         1 0HY     -0.302000
      2 N1          2.2970    0.8270   -5.8860 n3        1 0HY     -0.358000
      3 C1          0.1530    0.6150   -2.1510 c1        1 0HY     -0.381000
      4 C2         -0.5870    0.6290   -3.4450 c1        1 0HY      0.382000
      5 N2          2.3140    0.7430   -3.3940 n1        1 0HY     -0.318000
      6 C3         -1.0890   -1.5390    3.0920 c1        1 0HY      0.303000
      7 N3          1.6120    0.5880    0.3860 n1        1 0HY     -0.005000
      8 C4          0.1670    0.5300    0.3920 c1        1 0HY     -0.147000
      9 C5         -1.9770   -2.9260    4.7800 c3        1 0HY     -0.064000
     10 C6          1.5960    0.6730   -2.1480 c1        1 0HY      0.221000
     11 C7         -0.5760    0.5440   -0.8820 c1        1 0HY      0.306000
     12 C8          0.0170   -0.6600    2.5520 c2        1 0HY     -0.151000
     13 N4          2.3340    0.6590   -0.8670 n2        1 0HY     -0.202000
     14 C9          1.5860    0.7570   -4.6610 c2        1 0HY      0.299000
     15 C10        -0.4730    1.7590    2.4370 c3        1 0HY     -0.219000
     16 N5          0.1270    0.6990   -4.6680 n2        1 0HY     -0.356000
     17 O2         -1.9140   -2.0100    2.3350 o         1 0HY     -0.353000
     18 O3         -1.1450   -1.8330    4.4640 os        1 0HY     -0.279000
     19 C11        -0.5820    0.4410    1.7030 c3        1 0HY     -0.044000
     20 O4         -1.7900    0.4950   -0.8790 o         1 0HY     -0.282000
     21 H1          3.2110    0.8740   -5.8830 hn        1 0HY      0.239000
     22 H2          1.8440    0.8140   -6.6800 hn        1 0HY      0.239000
     23 H3         -1.6670   -3.7230    4.2990 h1        1 0HY      0.090000
     24 H4         -2.9000   -2.7220    4.5150 h1        1 0HY      0.090000
     25 H5         -1.9440   -3.0940    5.7470 h1        1 0HY      0.090000
     26 H6          0.5120   -0.2640    3.2970 ha        1 0HY      0.124000
     27 H7          0.6250   -1.1980    2.0060 ha        1 0HY      0.124000
     28 H8         -0.6060    2.4970    1.8060 hc        1 0HY      0.091000
     29 H9          0.4150    1.8340    2.8450 hc        1 0HY      0.091000
     30 H10        -1.1580    1.8010    3.1370 hc        1 0HY      0.091000
     31 H11        -0.3260    0.7080   -5.4600 hn        1 0HY      0.250000
     32 H12        -1.5210    0.2420    1.5290 hc        1 0HY      0.141000
     33 H14         3.2450    0.6950   -0.8660 hn        1 0HY      0.288000
@<TRIPOS>BOND
     1    1    4 1   
     2    2   14 1   
     3    2   21 1   
     4    2   22 1   
     5    3   10 1   
     6    3   11 1   
     7    5   14 1   
     8    6   17 1   
     9    6   18 1   
    10    7    8 1   
    11    8   19 1   
    12    9   18 1   
    13    9   23 1   
    14    9   24 1   
    15    9   25 1   
    16   10   13 1   
    17   11   20 1   
    18   12   19 1   
    19   12   26 1   
    20   12   27 1   
    21   13   33 1   
    22   14   16 1   
    23   15   19 1   
    24   15   28 1   
    25   15   29 1   
    26   15   30 1   
    27   16   31 1   
    28   19   32 1   
@<TRIPOS>SUBSTRUCTURE
     1 0HY         1 TEMP              0 ****  ****    0 ROOT
