@<TRIPOS>MOLECULE
0HY
   34    35     1     0     0
SMALL
bcc


@<TRIPOS>ATOM
      1 O1          0.1060   -1.1190    0.1000 o         1 0HY     -0.485500
      2 N1          4.0220   -0.1850   -2.3920 n4        1 0HY     -0.815600
      3 C1          1.9580   -0.1320    1.3270 cc        1 0HY     -0.357400
      4 C2          1.2430   -0.6660    0.1790 c         1 0HY      0.739700
      5 N2          3.9510    0.3190   -0.0540 nd        1 0HY     -0.633300
      6 C3          1.6750   -0.2490    7.4110 c         1 0HY      0.628100
      7 N3          3.3890    0.9320    3.5030 nc        1 0HY     -0.366400
      8 C4          2.1580    0.5100    3.7120 cd        1 0HY      0.335300
      9 C5          1.7880   -1.2650    9.5610 c3        1 0HY      0.124700
     10 C6          3.2750    0.3430    1.1880 cd        1 0HY      0.403600
     11 C7          1.2970   -0.0910    2.6380 c         1 0HY      0.477000
     12 C8          2.4290    0.0140    6.1430 c3        1 0HY     -0.127400
     13 N4          3.9410    0.8470    2.2960 na        1 0HY     -0.369100
     14 C9          3.2720   -0.1750   -1.0820 cc        1 0HY      0.593800
     15 C10         1.2370    2.0930    5.3890 c3        1 0HY     -0.101100
     16 N5          1.9850   -0.6660   -1.0710 n         1 0HY     -0.500400
     17 O2          0.5330    0.0930    7.7230 o         1 0HY     -0.530000
     18 O3          2.4120   -0.9700    8.3080 os        1 0HY     -0.438900
     19 C11         1.5320    0.6370    5.0820 c3        1 0HY     -0.090000
     20 O4          0.1590   -0.5070    2.8470 o         1 0HY     -0.455100
     21 H1          3.5180    0.3870   -3.0810 hn        1 0HY      0.486800
     22 H2          4.1070   -1.1510   -2.7320 hn        1 0HY      0.486800
     23 H3          0.8660   -1.8700    9.3920 h1        1 0HY      0.058033
     24 H4          1.5340   -0.3160   10.0910 h1        1 0HY      0.058033
     25 H5          2.5690   -1.8470   10.1100 h1        1 0HY      0.058033
     26 H6          2.8520   -0.9600    5.7790 hc        1 0HY      0.087700
     27 H7          3.2900    0.6940    6.3840 hc        1 0HY      0.087700
     28 H8          0.6960    2.1510    6.3680 hc        1 0HY      0.058033
     29 H9          0.5870    2.5350    4.5980 hc        1 0HY      0.058033
     30 H10         2.1770    2.6890    5.4610 hc        1 0HY      0.058033
     31 H11         1.5280   -1.0260   -1.8840 hn        1 0HY      0.355500
     32 H12         0.5510    0.0710    5.0620 hc        1 0HY      0.116700
     33 H14         4.8810    1.2020    2.2390 hn        1 0HY      0.510800
     34 H13         4.9680    0.2080   -2.2560 hn        1 0HY      0.486800
@<TRIPOS>BOND
     1    1    4 2   
     2    2   14 1   
     3    2   21 1   
     4    2   22 1   
     5    2   34 1   
     6    3    4 1   
     7    3   10 2   
     8    3   11 1   
     9    4   16 1   
    10    5   10 1   
    11    5   14 2   
    12    6   12 1   
    13    6   17 2   
    14    6   18 1   
    15    7    8 2   
    16    7   13 1   
    17    8   11 1   
    18    8   19 1   
    19    9   18 1   
    20    9   23 1   
    21    9   24 1   
    22    9   25 1   
    23   10   13 1   
    24   11   20 2   
    25   12   19 1   
    26   12   26 1   
    27   12   27 1   
    28   13   33 1   
    29   14   16 1   
    30   15   19 1   
    31   15   28 1   
    32   15   29 1   
    33   15   30 1   
    34   16   31 1   
    35   19   32 1   
@<TRIPOS>SUBSTRUCTURE
     1 0HY         1 TEMP              0 ****  ****    0 ROOT
