@<TRIPOS>MOLECULE
0HZ
   38    39     1     0     0
SMALL
bcc


@<TRIPOS>ATOM
      1 N           2.6840    0.5530    0.6890 n         1 0HZ     -0.433800
      2 CA          2.7670   -0.9050    0.6890 c3        1 0HZ      0.020700
      3 CB          4.2640   -1.2890    0.7470 c3        1 0HZ     -0.081400
      4 CG          5.0260    0.0080    0.9910 c3        1 0HZ     -0.099400
      5 CD          3.9800    1.1320    1.0300 c3        1 0HZ      0.072000
      6 C           2.0610   -1.6120   -0.4690 c         1 0HZ      0.686500
      7 O           2.3380   -2.7800   -0.7910 o         1 0HZ     -0.606500
      8 N1          1.0530   -0.9400   -1.1360 n         1 0HZ     -0.585900
      9 CA1         0.6900    0.4160   -0.8410 c3        1 0HZ      0.043700
     10 C1          1.8210    1.2220   -0.1620 c         1 0HZ      0.676500
     11 O1          1.8690    2.4530   -0.3320 o         1 0HZ     -0.607500
     12 CB1        -0.5540    0.5630    0.0560 c3        1 0HZ     -0.101400
     13 CG1        -1.7990    0.0520   -0.6360 c3        1 0HZ     -0.094400
     14 CD1        -3.0170    0.3800    0.2290 c3        1 0HZ      0.017300
     15 NE         -4.2530   -0.1060   -0.3530 nh        1 0HZ     -0.401100
     16 CZ         -5.4870    0.0790    0.2320 cz        1 0HZ      0.524300
     17 NH1        -5.6080    0.7520    1.4260 nh        1 0HZ     -0.505700
     18 NH2        -6.6150   -0.4180   -0.3860 nh        1 0HZ     -0.505700
     19 HA          2.2510   -1.2700    1.6290 h1        1 0HZ      0.085700
     20 HB2         4.4290   -2.0230    1.5730 hc        1 0HZ      0.076200
     21 HB3         4.5800   -1.7780   -0.2090 hc        1 0HZ      0.076200
     22 HG2         5.5860   -0.0310    1.9570 hc        1 0HZ      0.066200
     23 HG3         5.7660    0.1930    0.1740 hc        1 0HZ      0.066200
     24 HD2         4.2370    1.9650    0.3200 h1        1 0HZ      0.071200
     25 HD3         3.9000    1.5670    2.0640 h1        1 0HZ      0.071200
     26 H           0.6280   -1.3740   -1.9220 hn        1 0HZ      0.327500
     27 HA1         0.4760    0.9470   -1.8210 h1        1 0HZ      0.088700
     28 HB21       -0.3990    0.0150    1.0220 hc        1 0HZ      0.071200
     29 HB31       -0.6650    1.6560    0.2920 hc        1 0HZ      0.071200
     30 HG21       -1.8990    0.5370   -1.6440 hc        1 0HZ      0.066700
     31 HG31       -1.7210   -1.0570   -0.7930 hc        1 0HZ      0.066700
     32 HD21       -2.8790   -0.0910    1.2460 h1        1 0HZ      0.070200
     33 HD31       -3.0830    1.5000    0.3540 h1        1 0HZ      0.070200
     34 HE         -4.1900   -0.6020   -1.2180 hn        1 0HZ      0.324700
     35 HH11       -4.8070    1.1220    1.8860 hn        1 0HZ      0.328200
     36 HH12       -6.4990    0.8900    1.8460 hn        1 0HZ      0.328200
     37 HH21       -6.5520   -0.9100   -1.2480 hn        1 0HZ      0.328200
     38 HH22       -7.5160   -0.2940    0.0190 hn        1 0HZ      0.328200
@<TRIPOS>BOND
     1    1    2 1   
     2    1    5 1   
     3    1   10 1   
     4    2    3 1   
     5    2    6 1   
     6    2   19 1   
     7    3    4 1   
     8    3   20 1   
     9    3   21 1   
    10    4    5 1   
    11    4   22 1   
    12    4   23 1   
    13    5   24 1   
    14    5   25 1   
    15    6    7 2   
    16    6    8 1   
    17    8    9 1   
    18    8   26 1   
    19    9   10 1   
    20    9   12 1   
    21    9   27 1   
    22   10   11 2   
    23   12   13 1   
    24   12   28 1   
    25   12   29 1   
    26   13   14 1   
    27   13   30 1   
    28   13   31 1   
    29   14   15 1   
    30   14   32 1   
    31   14   33 1   
    32   15   16 2   
    33   15   34 1   
    34   16   17 1   
    35   16   18 1   
    36   17   35 1   
    37   17   36 1   
    38   18   37 1   
    39   18   38 1   
@<TRIPOS>SUBSTRUCTURE
     1 0HZ         1 TEMP              0 ****  ****    0 ROOT
