@<TRIPOS>MOLECULE
0HZ
   38    38     1     0     0
SMALL
bcc


@<TRIPOS>ATOM
      1 N           0.3500   -2.0200    2.4380 n         1 0HZ     -0.431800
      2 CA          1.8990   -2.0320    2.4500 c3        1 0HZ      0.017700
      3 CB          2.2710   -2.0760    3.7740 c3        1 0HZ     -0.081400
      4 CG          1.1250   -2.7600    4.4930 c3        1 0HZ     -0.099400
      5 CD         -0.0410   -2.8080    3.4300 c3        1 0HZ      0.073000
      6 C           2.5160   -0.8480    1.8170 c         1 0HZ      0.687500
      7 O           3.6590   -0.5420    2.0890 o         1 0HZ     -0.600500
      8 N1          1.9840   -0.5710    0.4850 n         1 0HZ     -0.580900
      9 CA1         0.4600   -0.4800    0.4460 c3        1 0HZ      0.049700
     10 C1         -0.1850   -1.7670    1.1560 c         1 0HZ      0.678500
     11 O1         -1.3270   -2.0930    0.8990 o         1 0HZ     -0.637500
     12 CB1        -0.0560   -0.2790   -0.9260 c3        1 0HZ     -0.098400
     13 CG1        -0.5470    1.1920   -1.0870 c3        1 0HZ     -0.109400
     14 CD1        -1.0460    1.4110   -2.5270 c3        1 0HZ      0.198800
     15 NE         -1.4030    2.8070   -2.7100 nh        1 0HZ     -0.827200
     16 CZ         -2.0070    3.2380   -3.9570 c2        1 0HZ      0.982100
     17 NH1        -3.4120    3.4490   -4.0300 nh        1 0HZ     -0.933800
     18 NH2        -1.2520    3.4340   -5.0250 n2        1 0HZ     -0.897100
     19 HA          2.2180   -2.8430    1.9980 h1        1 0HZ      0.087700
     20 HB2         2.3960   -1.1680    4.1220 hc        1 0HZ      0.077700
     21 HB3         3.0940   -2.5950    3.8780 hc        1 0HZ      0.077700
     22 HG2         1.4010   -3.6840    4.6550 hc        1 0HZ      0.066200
     23 HG3         0.8330   -2.1530    5.2110 hc        1 0HZ      0.066200
     24 HD2        -0.8790   -2.4680    3.8270 h1        1 0HZ      0.069200
     25 HD3        -0.1660   -3.7250    3.1060 h1        1 0HZ      0.069200
     26 H           2.4870   -0.1000   -0.1200 hn        1 0HZ      0.336500
     27 HA1         0.1560    0.3340    0.8790 h1        1 0HZ      0.088700
     28 HB21       -0.8000   -0.8890   -1.0870 hc        1 0HZ      0.062200
     29 HB31        0.6610   -0.4580   -1.5760 hc        1 0HZ      0.062200
     30 HG21        0.1930    1.8060   -0.9000 hc        1 0HZ      0.082700
     31 HG31       -1.2770    1.3620   -0.4600 hc        1 0HZ      0.082700
     32 HD21       -1.8290    0.8510   -2.6890 h1        1 0HZ      0.066700
     33 HD31       -0.3400    1.1720   -3.1550 h1        1 0HZ      0.066700
     34 HE         -1.4050    3.3730   -1.9860 hn        1 0HZ      0.482800
     35 HH11       -3.8290    3.4630   -4.8450 hn        1 0HZ      0.482300
     36 HH12       -3.9090    3.4560   -3.2680 hn        1 0HZ      0.482300
     37 HH21       -0.3510    3.2990   -4.9820 DU        1 0HZ      0.279000
     38 HH22       -1.6420    3.7100   -5.8240 hn        1 0HZ      0.521400
@<TRIPOS>BOND
     1    1    2 1   
     2    1    5 1   
     3    1   10 1   
     4    2    3 1   
     5    2    6 1   
     6    2   19 1   
     7    3    4 1   
     8    3   20 1   
     9    3   21 1   
    10    4    5 1   
    11    4   22 1   
    12    4   23 1   
    13    5   24 1   
    14    5   25 1   
    15    6    7 2   
    16    6    8 1   
    17    8    9 1   
    18    8   26 1   
    19    9   10 1   
    20    9   12 1   
    21    9   27 1   
    22   10   11 2   
    23   12   13 1   
    24   12   28 1   
    25   12   29 1   
    26   13   14 1   
    27   13   30 1   
    28   13   31 1   
    29   14   15 1   
    30   14   32 1   
    31   14   33 1   
    32   15   16 1   
    33   15   34 1   
    34   16   17 1   
    35   16   18 2   
    36   17   35 1   
    37   17   36 1   
    38   18   38 1   
@<TRIPOS>SUBSTRUCTURE
     1 0HZ         1 TEMP              0 ****  ****    0 ROOT
