@<TRIPOS>MOLECULE
0I5
   62    63     1     0     0
SMALL
bcc


@<TRIPOS>ATOM
      1 O1         -4.8340   -3.2350    1.7000 os        1 0I5     -0.411600
      2 C2         -4.7800   -3.3030    0.2780 c3        1 0I5      0.094900
      3 C3         -5.1290   -1.9550   -0.3650 c3        1 0I5      0.030500
      4 N4         -4.3760   -0.8280    0.1700 n         1 0I5     -0.419800
      5 C5         -4.3560   -0.8380    1.6220 c3        1 0I5      0.030500
      6 C6         -4.0080   -2.2060    2.2300 c3        1 0I5      0.094900
      7 C          -3.1990   -0.4720   -0.5570 c         1 0I5      0.737100
      8 O          -2.9220   -1.0380   -1.6430 o         1 0I5     -0.636100
      9 N          -2.3710    0.5540   -0.0730 n         1 0I5     -0.541900
     10 CA         -1.3970    1.1530   -0.9600 c3        1 0I5      0.038700
     11 C1         -0.1260    1.4560   -0.1250 c         1 0I5      0.658100
     12 O2         -0.1580    2.2630    0.8260 o         1 0I5     -0.623100
     13 CB         -1.8570    2.4730   -1.6040 c3        1 0I5     -0.105400
     14 CG         -0.9710    2.8650   -2.7780 c3        1 0I5     -0.065700
     15 CD1        -1.3390    2.0930   -4.0280 c3        1 0I5     -0.093600
     16 CD2        -1.0830    4.3550   -3.0330 c3        1 0I5     -0.093600
     17 N1          1.0300    0.7900   -0.4650 n         1 0I5     -0.555900
     18 CA1         2.2680    1.0040    0.2440 c3        1 0I5      0.009700
     19 C4          3.0240    2.2200   -0.3170 c         1 0I5      0.511100
     20 O3          3.6110    2.1890   -1.3960 o         1 0I5     -0.491100
     21 CB1         3.2130   -0.2040    0.2000 c3        1 0I5     -0.084400
     22 CG1         2.6250   -1.4120    0.9020 c3        1 0I5     -0.035100
     23 CD          3.6080   -2.5300    0.9700 ca        1 0I5     -0.085300
     24 CE1         4.1980   -2.8830    2.1880 ca        1 0I5     -0.126000
     25 CE2         3.9390   -3.2460   -0.1860 ca        1 0I5     -0.126000
     26 CZ1         5.1090   -3.9380    2.2480 ca        1 0I5     -0.126500
     27 CZ2         4.8500   -4.2990   -0.1240 ca        1 0I5     -0.126500
     28 CH          5.4360   -4.6460    1.0930 ca        1 0I5     -0.129000
     29 CM          2.9460    3.4430    0.5730 c3        1 0I5      0.059900
     30 H21        -3.7610   -3.6450   -0.0430 h1        1 0I5      0.060450
     31 H22        -5.5490   -4.0730    0.0080 h1        1 0I5      0.060450
     32 H31        -4.9720   -2.0290   -1.4770 h1        1 0I5      0.073950
     33 H32        -6.2130   -1.7230   -0.1660 h1        1 0I5      0.073950
     34 H51        -3.6500   -0.0740    2.0420 h1        1 0I5      0.073950
     35 H52        -5.4000   -0.5590    1.9480 h1        1 0I5      0.073950
     36 H61        -4.2300   -2.2080    3.3290 h1        1 0I5      0.060450
     37 H62        -2.9300   -2.4600    2.0540 h1        1 0I5      0.060450
     38 H          -2.7210    1.1650    0.6310 hn        1 0I5      0.315500
     39 HA         -1.1720    0.4100   -1.7850 h1        1 0I5      0.105700
     40 HB2        -2.9140    2.3650   -1.9620 hc        1 0I5      0.063700
     41 HB3        -1.8390    3.2830   -0.8270 hc        1 0I5      0.063700
     42 HG          0.1000    2.6330   -2.5160 hc        1 0I5      0.046700
     43 HD11       -0.6380    2.3510   -4.8580 hc        1 0I5      0.038533
     44 HD12       -1.2860    0.9930   -3.8480 hc        1 0I5      0.038533
     45 HD13       -2.3780    2.3450   -4.3530 hc        1 0I5      0.038533
     46 HD21       -0.7380    4.9330   -2.1420 hc        1 0I5      0.038533
     47 HD22       -0.4530    4.6430   -3.9090 hc        1 0I5      0.038533
     48 HD23       -2.1420    4.6360   -3.2510 hc        1 0I5      0.038533
     49 H1          1.0540    0.2030   -1.2640 hn        1 0I5      0.327500
     50 HA1         2.0060    1.2220    1.3260 h1        1 0I5      0.087700
     51 HB1         3.4640   -0.4580   -0.8640 hc        1 0I5      0.065200
     52 HB21        4.1690    0.0980    0.7040 hc        1 0I5      0.065200
     53 HG1         2.3000   -1.1220    1.9370 hc        1 0I5      0.053200
     54 HG2         1.7090   -1.7640    0.3540 hc        1 0I5      0.053200
     55 HE1         3.9420   -2.3290    3.1030 ha        1 0I5      0.130500
     56 HE2         3.4770   -2.9740   -1.1470 ha        1 0I5      0.130500
     57 HZ1         5.5680   -4.2100    3.2100 ha        1 0I5      0.132500
     58 HZ2         5.1060   -4.8570   -1.0370 ha        1 0I5      0.132500
     59 HH1         6.1540   -5.4780    1.1410 ha        1 0I5      0.133000
     60 F1          3.5450    4.5550    0.0240 f         1 0I5     -0.224300
     61 HM1         1.8540    3.6610    0.7670 h1        1 0I5      0.081200
     62 HM2         3.4490    3.2030    1.5530 h1        1 0I5      0.081200
@<TRIPOS>BOND
     1    1    2 1   
     2    1    6 1   
     3    2    3 1   
     4    2   30 1   
     5    2   31 1   
     6    3    4 1   
     7    3   32 1   
     8    3   33 1   
     9    4    5 1   
    10    4    7 1   
    11    5    6 1   
    12    5   34 1   
    13    5   35 1   
    14    6   36 1   
    15    6   37 1   
    16    7    8 2   
    17    7    9 1   
    18    9   10 1   
    19    9   38 1   
    20   10   11 1   
    21   10   13 1   
    22   10   39 1   
    23   11   12 2   
    24   11   17 1   
    25   13   14 1   
    26   13   40 1   
    27   13   41 1   
    28   14   15 1   
    29   14   16 1   
    30   14   42 1   
    31   15   43 1   
    32   15   44 1   
    33   15   45 1   
    34   16   46 1   
    35   16   47 1   
    36   16   48 1   
    37   17   18 1   
    38   17   49 1   
    39   18   19 1   
    40   18   21 1   
    41   18   50 1   
    42   19   20 2   
    43   19   29 1   
    44   21   22 1   
    45   21   51 1   
    46   21   52 1   
    47   22   23 1   
    48   22   53 1   
    49   22   54 1   
    50   23   24 ar  
    51   23   25 ar  
    52   24   26 ar  
    53   24   55 1   
    54   25   27 ar  
    55   25   56 1   
    56   26   28 ar  
    57   26   57 1   
    58   27   28 ar  
    59   27   58 1   
    60   28   59 1   
    61   29   60 1   
    62   29   61 1   
    63   29   62 1   
@<TRIPOS>SUBSTRUCTURE
     1 0I5         1 TEMP              0 ****  ****    0 ROOT
