@<TRIPOS>MOLECULE
0I5
   62    61     1     0     0
SMALL
bcc


@<TRIPOS>ATOM
      1 O1          2.2300    2.5420   -5.2900 os        1 0I5     -0.275000
      2 C2          3.3130    1.8450   -5.4260 c3        1 0I5     -0.037000
      3 C3          3.9910    1.6330   -4.0780 c3        1 0I5     -0.071500
      4 N4          3.0620    1.8800   -2.9250 n         1 0I5     -0.303000
      5 C5          2.7320    3.3460   -3.1730 c3        1 0I5     -0.071500
      6 C6          2.0480    3.5660   -4.4940 c3        1 0I5     -0.037000
      7 C           2.6010    0.9750   -1.8710 c2        1 0I5      0.374000
      8 O           2.9860   -0.1780   -1.8490 o         1 0I5     -0.401000
      9 N           1.8250    1.4920   -0.7740 n         1 0I5     -0.335000
     10 CA          1.7160    0.7420    0.4370 c3        1 0I5      0.009000
     11 C1          0.3320    0.8120    0.9390 c2        1 0I5      0.274000
     12 O2         -0.0880    1.8430    1.4080 o         1 0I5     -0.393000
     13 CB          2.6870    1.3260    1.5050 c3        1 0I5     -0.162000
     14 CG          3.3620    0.1730    2.2550 c3        1 0I5     -0.109000
     15 CD1         4.7410   -0.0520    1.6950 c3        1 0I5     -0.211000
     16 CD2         3.4690    0.5100    3.7220 c3        1 0I5     -0.211000
     17 N1         -0.5010   -0.4030    0.9690 n         1 0I5     -0.360000
     18 CA1        -1.9310   -0.2920    1.0830 c3        1 0I5     -0.017000
     19 C4         -2.2850    0.4380    2.3800 c2        1 0I5      0.176000
     20 O3         -1.7230    0.1340    3.4250 o         1 0I5     -0.254000
     21 CB1        -2.5550   -1.6830    1.0970 c3        1 0I5     -0.169000
     22 CG1        -3.7480   -1.7300    0.1000 c3        1 0I5     -0.121000
     23 CD         -4.6460   -2.9390    0.4260 c2        1 0I5     -0.078000
     24 CE1        -5.7350   -2.7900    1.3070 c2        1 0I5     -0.124000
     25 CE2        -4.3740   -4.1640   -0.1280 c1        1 0I5     -0.125000
     26 CZ1        -6.5240   -3.8700    1.6100 c1        1 0I5     -0.127000
     27 CZ2        -5.1850   -5.2760    0.1830 c1        1 0I5     -0.129000
     28 CH         -6.2430   -5.1340    1.0370 c1        1 0I5     -0.129000
     29 CM         -3.4930    1.4510    2.4050 c3        1 0I5     -0.041000
     30 H21         3.0890    0.9730   -5.8140 h1        1 0I5      0.096750
     31 H22         3.9330    2.3210   -6.0320 h1        1 0I5      0.096750
     32 H31         4.3160    0.7330   -4.0290 h1        1 0I5      0.105750
     33 H32         4.7290    2.2300   -4.0090 h1        1 0I5      0.105750
     34 H51         3.5680    3.8670   -3.1560 h1        1 0I5      0.105750
     35 H52         2.1400    3.6680   -2.4490 h1        1 0I5      0.105750
     36 H61         1.0720    3.6900   -4.3370 h1        1 0I5      0.096750
     37 H62         2.4180    4.3840   -4.9230 h1        1 0I5      0.096750
     38 H           1.3830    2.2810   -0.8620 hn        1 0I5      0.224000
     39 HA          1.9500   -0.1870    0.2640 h1        1 0I5      0.145000
     40 HB2         2.1800    1.8820    2.1440 hc        1 0I5      0.104000
     41 HB3         3.3780    1.8800    1.0580 hc        1 0I5      0.104000
     42 HG          2.8210   -0.6540    2.1450 hc        1 0I5      0.088000
     43 HD11        4.6700   -0.4420    0.8030 hc        1 0I5      0.077667
     44 HD12        5.2480   -0.6790    2.2950 hc        1 0I5      0.077667
     45 HD13        5.2190    0.8120    1.6410 hc        1 0I5      0.077667
     46 HD21        2.5490    0.6690    4.0990 hc        1 0I5      0.077667
     47 HD22        4.0260    1.3400    3.8350 hc        1 0I5      0.077667
     48 HD23        3.8920   -0.2330    4.1960 hc        1 0I5      0.077667
     49 H1         -0.1030   -1.2430    0.8980 hn        1 0I5      0.245000
     50 HA1        -2.2840    0.2190    0.3090 h1        1 0I5      0.126000
     51 HB1        -1.8800   -2.3490    0.8340 hc        1 0I5      0.107000
     52 HB21       -2.8810   -1.8880    2.0100 hc        1 0I5      0.107000
     53 HG1        -4.2760   -0.8960    0.1770 hc        1 0I5      0.089000
     54 HG2        -3.4100   -1.8150   -0.8030 hc        1 0I5      0.089000
     55 HE1        -5.9270   -1.9290    1.6960 ha        1 0I5      0.138000
     56 HE2        -3.6010   -4.2680   -0.7530 ha        1 0I5      0.131000
     57 HZ1        -7.3050   -3.7620    2.2410 ha        1 0I5      0.133000
     58 HZ2        -4.9920   -6.1400   -0.2090 ha        1 0I5      0.132000
     59 HH1        -6.8060   -5.9080    1.2530 ha        1 0I5      0.132000
     60 F1         -3.3090    2.3580    3.4110 f         1 0I5     -0.153000
     61 HM1        -4.3270    0.9600    2.5570 h1        1 0I5      0.120000
     62 HM2        -3.5430    1.9270    1.5350 h1        1 0I5      0.120000
@<TRIPOS>BOND
     1    1    2 1   
     2    1    6 1   
     3    2    3 1   
     4    2   30 1   
     5    2   31 1   
     6    3    4 1   
     7    3   32 1   
     8    3   33 1   
     9    4    5 1   
    10    4    7 1   
    11    5    6 1   
    12    5   34 1   
    13    5   35 1   
    14    6   36 1   
    15    6   37 1   
    16    7    8 1   
    17    7    9 1   
    18    9   10 1   
    19    9   38 1   
    20   10   11 1   
    21   10   13 1   
    22   10   39 1   
    23   11   12 1   
    24   11   17 1   
    25   13   14 1   
    26   13   40 1   
    27   13   41 1   
    28   14   15 1   
    29   14   16 1   
    30   14   42 1   
    31   15   43 1   
    32   15   44 1   
    33   15   45 1   
    34   16   46 1   
    35   16   47 1   
    36   16   48 1   
    37   17   18 1   
    38   17   49 1   
    39   18   19 1   
    40   18   21 1   
    41   18   50 1   
    42   19   20 1   
    43   19   29 1   
    44   21   22 1   
    45   21   51 1   
    46   21   52 1   
    47   22   23 1   
    48   22   53 1   
    49   22   54 1   
    50   23   24 1   
    51   23   25 1   
    52   24   26 1   
    53   24   55 1   
    54   25   56 1   
    55   26   57 1   
    56   27   28 1   
    57   27   58 1   
    58   28   59 1   
    59   29   60 1   
    60   29   61 1   
    61   29   62 1   
@<TRIPOS>SUBSTRUCTURE
     1 0I5         1 TEMP              0 ****  ****    0 ROOT
