@<TRIPOS>MOLECULE
0IN
   30    32     1     0     0
SMALL
bcc


@<TRIPOS>ATOM
      1 CAE        -0.1020   -0.5840    0.9060 ca        1 0IN     -0.112300
      2 CAF        -1.4530   -0.4910    1.5310 c3        1 0IN      0.021200
      3 CAG         0.7450    0.5190    0.8500 ca        1 0IN      0.093800
      4 CAH         2.0590    0.4150    0.2700 ca        1 0IN      0.335600
      5 CAI         0.3350   -1.8210    0.3760 ca        1 0IN     -0.083000
      6 CAJ        -2.5230   -0.1980    0.5390 ca        1 0IN     -0.189600
      7 NAK         2.8920    1.5180    0.2300 nb        1 0IN     -0.677000
      8 NAL        -4.4660   -0.9690   -0.7020 nb        1 0IN     -0.666000
      9 CAM         2.4610   -0.8500   -0.2540 ca        1 0IN     -0.113300
     10 CAN         1.5790   -1.9550   -0.1900 ca        1 0IN     -0.148000
     11 OAO         0.2610    1.6980    1.3640 oh        1 0IN     -0.503100
     12 CAP        -3.4660   -1.1810    0.1750 ca        1 0IN      0.392200
     13 CAQ         4.0860    1.3760   -0.3140 ca        1 0IN      0.414200
     14 CAR        -2.6370    1.0700   -0.0470 ca        1 0IN     -0.084000
     15 CAS        -4.5560    0.2560   -1.2530 ca        1 0IN      0.389200
     16 CAT         3.7620   -0.9530   -0.8320 ca        1 0IN     -0.081000
     17 CAU        -3.6670    1.3060   -0.9570 ca        1 0IN     -0.245300
     18 CAV         4.5760    0.1490   -0.8660 ca        1 0IN     -0.242300
     19 HAF        -1.6800   -1.4560    2.0600 hc        1 0IN      0.064700
     20 HAFA       -1.4450    0.3260    2.3070 hc        1 0IN      0.064700
     21 HAI        -0.3500   -2.6820    0.4240 ha        1 0IN      0.140000
     22 HAN         1.9090   -2.9210   -0.6020 ha        1 0IN      0.138000
     23 HOAO        0.9610    2.3680    1.3410 ho        1 0IN      0.447000
     24 HAP        -3.4200   -2.1950    0.6120 h4        1 0IN      0.017100
     25 HAQ         4.7270    2.2770   -0.3290 h4        1 0IN      0.024100
     26 HAR        -1.9130    1.8590    0.2150 ha        1 0IN      0.154000
     27 HAS        -5.3850    0.4010   -1.9690 h4        1 0IN      0.020100
     28 HAT         4.0850   -1.9220   -1.2410 ha        1 0IN      0.142000
     29 HAU        -3.7860    2.2870   -1.4350 ha        1 0IN      0.142000
     30 HAV         5.5830    0.1180   -1.3010 ha        1 0IN      0.147000
@<TRIPOS>BOND
     1    1    2 1   
     2    1    3 ar  
     3    1    5 ar  
     4    2    6 1   
     5    2   19 1   
     6    2   20 1   
     7    3    4 ar  
     8    3   11 1   
     9    4    7 ar  
    10    4    9 ar  
    11    5   10 ar  
    12    5   21 1   
    13    6   12 ar  
    14    6   14 ar  
    15    7   13 ar  
    16    8   12 ar  
    17    8   15 ar  
    18    9   10 ar  
    19    9   16 ar  
    20   10   22 1   
    21   11   23 1   
    22   12   24 1   
    23   13   18 ar  
    24   13   25 1   
    25   14   17 ar  
    26   14   26 1   
    27   15   17 ar  
    28   15   27 1   
    29   16   18 ar  
    30   16   28 1   
    31   17   29 1   
    32   18   30 1   
@<TRIPOS>SUBSTRUCTURE
     1 0IN         1 TEMP              0 ****  ****    0 ROOT
