@<TRIPOS>MOLECULE
0IN
   30    32     1     0     0
SMALL
bcc


@<TRIPOS>ATOM
      1 CAE         0.0160   -0.0570   -0.0020 ca        1 0IN     -0.112300
      2 CAF        -0.7580   -0.0590   -1.2780 c3        1 0IN      0.021200
      3 CAG         1.3970    0.1180    0.0030 ca        1 0IN      0.093800
      4 CAH         2.1350    0.1460    1.2400 ca        1 0IN      0.335600
      5 CAI        -0.6660   -0.2200    1.2260 ca        1 0IN     -0.083000
      6 CAJ        -0.9630   -1.4290   -1.8200 ca        1 0IN     -0.189600
      7 NAK         3.5050    0.3310    1.2290 nb        1 0IN     -0.677000
      8 NAL        -2.4840   -3.2670   -2.2860 nb        1 0IN     -0.666000
      9 CAM         1.4080   -0.0210    2.4570 ca        1 0IN     -0.113300
     10 CAN         0.0050   -0.2040    2.4240 ca        1 0IN     -0.148000
     11 OAO         2.0090    0.2540   -1.2200 oh        1 0IN     -0.503100
     12 CAP        -2.2350   -2.0380   -1.7950 ca        1 0IN      0.392200
     13 CAQ         4.1390    0.3470    2.3860 ca        1 0IN      0.414200
     14 CAR         0.0970   -2.1450   -2.3920 ca        1 0IN     -0.084000
     15 CAS        -1.4500   -3.9380   -2.8300 ca        1 0IN      0.389200
     16 CAT         2.1390    0.0030    3.6820 ca        1 0IN     -0.081000
     17 CAU        -0.1440   -3.4190   -2.9050 ca        1 0IN     -0.245300
     18 CAV         3.4970    0.1840    3.6560 ca        1 0IN     -0.242300
     19 HAF        -1.7540    0.4340   -1.1030 hc        1 0IN      0.064700
     20 HAFA       -0.2080    0.5560   -2.0440 hc        1 0IN      0.064700
     21 HAI        -1.7590   -0.3620    1.2020 ha        1 0IN      0.140000
     22 HAN        -0.5350   -0.3340    3.3730 ha        1 0IN      0.138000
     23 HOAO        2.9500    0.4470   -1.0870 ho        1 0IN      0.447000
     24 HAP        -3.1030   -1.5130   -1.3580 h4        1 0IN      0.017100
     25 HAQ         5.2340    0.4960    2.3420 h4        1 0IN      0.024100
     26 HAR         1.1030   -1.6970   -2.4240 ha        1 0IN      0.154000
     27 HAS        -1.6850   -4.9420   -3.2250 h4        1 0IN      0.020100
     28 HAT         1.5920   -0.1270    4.6280 ha        1 0IN      0.142000
     29 HAU         0.6620   -4.0080   -3.3600 ha        1 0IN      0.142000
     30 HAV         4.1010    0.2090    4.5720 ha        1 0IN      0.147000
@<TRIPOS>BOND
     1    1    2 1   
     2    1    3 ar  
     3    1    5 ar  
     4    2    6 1   
     5    2   19 1   
     6    2   20 1   
     7    3    4 ar  
     8    3   11 1   
     9    4    7 ar  
    10    4    9 ar  
    11    5   10 ar  
    12    5   21 1   
    13    6   12 ar  
    14    6   14 ar  
    15    7   13 ar  
    16    8   12 ar  
    17    8   15 ar  
    18    9   10 ar  
    19    9   16 ar  
    20   10   22 1   
    21   11   23 1   
    22   12   24 1   
    23   13   18 ar  
    24   13   25 1   
    25   14   17 ar  
    26   14   26 1   
    27   15   17 ar  
    28   15   27 1   
    29   16   18 ar  
    30   16   28 1   
    31   17   29 1   
    32   18   30 1   
@<TRIPOS>SUBSTRUCTURE
     1 0IN         1 TEMP              0 ****  ****    0 ROOT
