@<TRIPOS>MOLECULE
0IN
   30    32     1     0     0
SMALL
bcc


@<TRIPOS>ATOM
      1 CAE         0.0160   -0.0560    0.0040 ca        1 0IN     -0.112300
      2 CAF        -0.7650   -0.0530   -1.2680 c3        1 0IN      0.021200
      3 CAG         1.3970    0.1180    0.0020 ca        1 0IN      0.093800
      4 CAH         2.1410    0.1410    1.2350 ca        1 0IN      0.335600
      5 CAI        -0.6600   -0.2230    1.2350 ca        1 0IN     -0.083000
      6 CAJ        -0.9730   -1.4210   -1.8140 ca        1 0IN     -0.189600
      7 NAK         3.5120    0.3260    1.2180 nb        1 0IN     -0.677000
      8 NAL        -2.4980   -3.2560   -2.2790 nb        1 0IN     -0.666000
      9 CAM         1.4210   -0.0300    2.4550 ca        1 0IN     -0.113300
     10 CAN         0.0180   -0.2120    2.4290 ca        1 0IN     -0.148000
     11 OAO         2.0020    0.2580   -1.2230 oh        1 0IN     -0.503100
     12 CAP        -2.2460   -2.0300   -1.7840 ca        1 0IN      0.392200
     13 CAQ         4.1520    0.3370    2.3720 ca        1 0IN      0.414200
     14 CAR         0.0830   -2.1370   -2.3930 ca        1 0IN     -0.084000
     15 CAS        -1.4680   -3.9260   -2.8300 ca        1 0IN      0.389200
     16 CAT         2.1580   -0.0110    3.6770 ca        1 0IN     -0.081000
     17 CAU        -0.1620   -3.4080   -2.9100 ca        1 0IN     -0.245300
     18 CAV         3.5160    0.1710    3.6440 ca        1 0IN     -0.242300
     19 HAF        -0.2180    0.5640   -2.0350 hc        1 0IN      0.064700
     20 HAFA       -1.7590    0.4390   -1.0860 hc        1 0IN      0.064700
     21 HAI        -1.7530   -0.3640    1.2160 ha        1 0IN      0.140000
     22 HAN        -0.5170   -0.3450    3.3810 ha        1 0IN      0.138000
     23 HOAO        2.9440    0.4500   -1.0950 ho        1 0IN      0.447000
     24 HAP        -3.1110   -1.5050   -1.3410 h4        1 0IN      0.017100
     25 HAQ         5.2470    0.4860    2.3220 h4        1 0IN      0.024100
     26 HAR         1.0900   -1.6890   -2.4280 ha        1 0IN      0.154000
     27 HAS        -1.7050   -4.9290   -3.2270 h4        1 0IN      0.020100
     28 HAT         1.6160   -0.1430    4.6250 ha        1 0IN      0.142000
     29 HAU         0.6420   -3.9970   -3.3700 ha        1 0IN      0.142000
     30 HAV         4.1250    0.1920    4.5570 ha        1 0IN      0.147000
@<TRIPOS>BOND
     1    1    2 1   
     2    1    3 ar  
     3    1    5 ar  
     4    2    6 1   
     5    2   19 1   
     6    2   20 1   
     7    3    4 ar  
     8    3   11 1   
     9    4    7 ar  
    10    4    9 ar  
    11    5   10 ar  
    12    5   21 1   
    13    6   12 ar  
    14    6   14 ar  
    15    7   13 ar  
    16    8   12 ar  
    17    8   15 ar  
    18    9   10 ar  
    19    9   16 ar  
    20   10   22 1   
    21   11   23 1   
    22   12   24 1   
    23   13   18 ar  
    24   13   25 1   
    25   14   17 ar  
    26   14   26 1   
    27   15   17 ar  
    28   15   27 1   
    29   16   18 ar  
    30   16   28 1   
    31   17   29 1   
    32   18   30 1   
@<TRIPOS>SUBSTRUCTURE
     1 0IN         1 TEMP              0 ****  ****    0 ROOT
