@<TRIPOS>MOLECULE
0IN
   30    26     1     0     0
SMALL
bcc


@<TRIPOS>ATOM
      1 CAE        -0.2790    0.8190   -0.3230 c1        1 0IN     -0.107000
      2 CAF        -1.2140    0.7790   -1.5110 c2        1 0IN     -0.072000
      3 CAG         1.1090    0.8430   -0.2980 c2        1 0IN      0.117000
      4 CAH         1.7910    0.9080    0.9330 c1        1 0IN     -0.058000
      5 CAI        -0.9980    0.8590    0.8680 c1        1 0IN     -0.084000
      6 CAJ        -1.5750   -0.6570   -1.8180 c2        1 0IN     -0.118000
      7 NAK         3.1750    0.9230    0.9590 n1        1 0IN     -0.150000
      8 NAL        -1.2570   -2.5310   -3.2510 n1        1 0IN     -0.138000
      9 CAM         1.0800    0.9470    2.1100 c2        1 0IN     -0.048000
     10 CAN        -0.3270    0.9230    2.0830 c1        1 0IN     -0.149000
     11 OAO         2.0950    0.9390   -1.2970 oh        1 0IN     -0.256000
     12 CAP        -0.8710   -1.2950   -2.8280 c2        1 0IN     -0.061000
     13 CAQ         3.8360    0.9770    2.1530 c1        1 0IN     -0.050000
     14 CAR        -2.6550   -1.2670   -1.2500 c1        1 0IN     -0.094000
     15 CAS        -2.3350   -3.1410   -2.6840 c1        1 0IN     -0.129500
     16 CAT         1.7520    1.0020    3.3220 c2        1 0IN     -0.082000
     17 CAU        -3.0400   -2.5050   -1.6750 c1        1 0IN     -0.129500
     18 CAV         3.1190    1.0170    3.3450 c1        1 0IN     -0.176000
     19 HAF        -2.0260    1.2820   -1.3030 ha        1 0IN      0.103500
     20 HAFA       -0.7720    1.1770   -2.2870 ha        1 0IN      0.103500
     21 HAI        -1.9730    0.8260    0.8500 ha        1 0IN      0.137000
     22 HAN        -0.8320    0.9510    2.9180 ha        1 0IN      0.137000
     23 HOAO        2.2160    1.7930   -1.5130 ho        1 0IN      0.247000
     24 HAP        -0.0990   -0.8580   -3.2350 h4        1 0IN      0.174000
     25 HAQ         4.8120    0.9880    2.1700 ha        1 0IN      0.162000
     26 HAR        -3.1510   -0.8180   -0.5390 ha        1 0IN      0.134000
     27 HAS        -2.6100   -4.0260   -2.9880 ha        1 0IN      0.148500
     28 HAT         1.2490    1.0300    4.1580 ha        1 0IN      0.142000
     29 HAU        -3.8120   -2.9420   -1.2680 ha        1 0IN      0.148500
     30 HAV         3.5930    1.0560    4.1980 ha        1 0IN      0.147000
@<TRIPOS>BOND
     1    1    3 1   
     2    1    5 1   
     3    2    6 1   
     4    2   19 1   
     5    2   20 1   
     6    3    4 1   
     7    3   11 1   
     8    4    9 1   
     9    5   21 1   
    10    6   12 1   
    11    6   14 1   
    12    7   13 1   
    13    8   12 1   
    14    9   10 1   
    15    9   16 1   
    16   10   22 1   
    17   11   23 1   
    18   12   24 1   
    19   13   25 1   
    20   14   26 1   
    21   15   17 1   
    22   15   27 1   
    23   16   18 1   
    24   16   28 1   
    25   17   29 1   
    26   18   30 1   
@<TRIPOS>SUBSTRUCTURE
     1 0IN         1 TEMP              0 ****  ****    0 ROOT
