@<TRIPOS>MOLECULE
0IN
   30    32     1     0     0
SMALL
bcc


@<TRIPOS>ATOM
      1 CAE         0.0160   -0.0570   -0.0010 ca        1 0IN     -0.112300
      2 CAF        -0.7540   -0.0550   -1.2790 c3        1 0IN      0.021200
      3 CAG         1.3960    0.1190    0.0090 ca        1 0IN      0.093800
      4 CAH         2.1300    0.1430    1.2490 ca        1 0IN      0.335600
      5 CAI        -0.6710   -0.2250    1.2240 ca        1 0IN     -0.083000
      6 CAJ        -0.9560   -1.4230   -1.8280 ca        1 0IN     -0.189600
      7 NAK         3.5000    0.3300    1.2440 nb        1 0IN     -0.677000
      8 NAL        -2.4740   -3.2590   -2.3090 nb        1 0IN     -0.666000
      9 CAM         1.3990   -0.0300    2.4630 ca        1 0IN     -0.113300
     10 CAN        -0.0040   -0.2140    2.4240 ca        1 0IN     -0.148000
     11 OAO         2.0130    0.2600   -1.2100 oh        1 0IN     -0.503100
     12 CAP        -2.2280   -2.0330   -1.8110 ca        1 0IN      0.392200
     13 CAQ         4.1300    0.3420    2.4030 ca        1 0IN      0.414200
     14 CAR         0.1070   -2.1370   -2.3970 ca        1 0IN     -0.084000
     15 CAS        -1.4380   -3.9280   -2.8500 ca        1 0IN      0.389200
     16 CAT         2.1250   -0.0100    3.6910 ca        1 0IN     -0.081000
     17 CAU        -0.1310   -3.4090   -2.9160 ca        1 0IN     -0.245300
     18 CAV         3.4830    0.1730    3.6700 ca        1 0IN     -0.242300
     19 HAF        -0.2010    0.5640   -2.0420 hc        1 0IN      0.064700
     20 HAFA       -1.7500    0.4360   -1.1060 hc        1 0IN      0.064700
     21 HAI        -1.7630   -0.3690    1.1950 ha        1 0IN      0.140000
     22 HAN        -0.5470   -0.3480    3.3710 ha        1 0IN      0.138000
     23 HOAO        2.9530    0.4540   -1.0740 ho        1 0IN      0.447000
     24 HAP        -3.0980   -1.5090   -1.3770 h4        1 0IN      0.017100
     25 HAQ         5.2250    0.4920    2.3640 h4        1 0IN      0.024100
     26 HAR         1.1140   -1.6880   -2.4220 ha        1 0IN      0.154000
     27 HAS        -1.6700   -4.9310   -3.2490 h4        1 0IN      0.020100
     28 HAT         1.5750   -0.1430    4.6340 ha        1 0IN      0.142000
     29 HAU         0.6780   -3.9960   -3.3680 ha        1 0IN      0.142000
     30 HAV         4.0840    0.1950    4.5890 ha        1 0IN      0.147000
@<TRIPOS>BOND
     1    1    2 1   
     2    1    3 ar  
     3    1    5 ar  
     4    2    6 1   
     5    2   19 1   
     6    2   20 1   
     7    3    4 ar  
     8    3   11 1   
     9    4    7 ar  
    10    4    9 ar  
    11    5   10 ar  
    12    5   21 1   
    13    6   12 ar  
    14    6   14 ar  
    15    7   13 ar  
    16    8   12 ar  
    17    8   15 ar  
    18    9   10 ar  
    19    9   16 ar  
    20   10   22 1   
    21   11   23 1   
    22   12   24 1   
    23   13   18 ar  
    24   13   25 1   
    25   14   17 ar  
    26   14   26 1   
    27   15   17 ar  
    28   15   27 1   
    29   16   18 ar  
    30   16   28 1   
    31   17   29 1   
    32   18   30 1   
@<TRIPOS>SUBSTRUCTURE
     1 0IN         1 TEMP              0 ****  ****    0 ROOT
