@<TRIPOS>MOLECULE
0IT
   63    60     1     0     0
SMALL
bcc


@<TRIPOS>ATOM
      1 C3          4.1040   -3.4820    2.1370 c3        1 0IT     -0.800000
      2 S           3.0800   -2.1410    1.7340 s4        1 0IT      2.037800
      3 C11         5.0950   -3.0620    3.2640 c2        1 0IT     -0.084000
      4 C6          6.3750   -2.6100    2.9350 c2        1 0IT     -0.113000
      5 C5          7.2900   -2.2910    3.9520 c1        1 0IT     -0.131000
      6 C4          6.9240   -2.4260    5.2770 c1        1 0IT     -0.122000
      7 C31         5.6460   -2.8780    5.6030 c1        1 0IT     -0.122000
      8 C21         4.7300   -3.1960    4.5810 c1        1 0IT     -0.126000
      9 O2S         3.8160   -0.8940    1.7240 o         1 0IT     -0.563400
     10 O1S         2.0960   -1.8820    2.8010 o         1 0IT     -0.563400
     11 N           2.3280   -2.4130    0.2560 n2        1 0IT     -0.877000
     12 CA          2.1470   -1.3400   -0.6520 c3        1 0IT      0.039000
     13 CB          3.3520   -1.0760   -1.4090 c3        1 0IT     -0.173000
     14 CG          3.1560   -0.0100   -2.4770 c3        1 0IT     -0.174000
     15 CD          2.0260   -0.3100   -3.3970 c3        1 0IT     -0.026000
     16 C           0.8850   -1.6300   -1.6990 c2        1 0IT      0.289000
     17 O          -0.1010   -2.2810   -1.3250 o         1 0IT     -0.390000
     18 N1          0.7460   -0.6270   -2.7050 n         1 0IT     -0.322000
     19 CA1        -0.5120   -0.4690   -3.4040 c3        1 0IT     -0.041000
     20 C1         -0.8720    1.0280   -3.4800 c2        1 0IT      0.283000
     21 O1         -0.0380    1.8440   -3.9250 o         1 0IT     -0.354000
     22 N2         -2.2350    1.4440   -3.2630 n         1 0IT     -0.376000
     23 CA2        -2.5160    2.5440   -2.4160 c3        1 0IT     -0.030000
     24 C2         -1.8740    2.3100   -1.0290 c2        1 0IT      0.184000
     25 O2         -1.1090    3.1740   -0.5410 o         1 0IT     -0.332000
     26 CB1        -4.0230    2.6880   -2.2600 c3        1 0IT     -0.175000
     27 CG1        -4.3390    3.4660   -0.9520 c3        1 0IT     -0.168000
     28 CD1        -5.8280    3.1990   -0.5290 c3        1 0IT     -0.033000
     29 NE         -5.8570    2.6490    0.7680 n3        1 0IT     -0.315000
     30 CZ         -7.0700    2.0520    1.2560 c2        1 0IT      0.375000
     31 NH1        -7.4860    0.7820    0.7690 n3        1 0IT     -0.377000
     32 NH2        -7.8090    2.6890    2.1690 n2        1 0IT     -0.336000
     33 H11         3.5450   -4.2390    2.4530 h1        1 0IT      0.163000
     34 H2A         4.6140   -3.7610    1.3310 h1        1 0IT      0.163000
     35 H6          6.6320   -2.5170    2.0050 ha        1 0IT      0.135000
     36 H5          8.1820   -1.9740    3.7220 ha        1 0IT      0.144000
     37 H4          7.5780   -2.1980    6.0050 ha        1 0IT      0.145000
     38 H3          5.3930   -2.9720    6.5160 ha        1 0IT      0.145000
     39 H21         3.8470   -3.5070    4.8060 ha        1 0IT      0.157000
     40 H           2.0130   -3.2240    0.0590 hn        1 0IT      0.264000
     41 HA          1.9370   -0.5820   -0.0190 h1        1 0IT      0.130000
     42 HB2         4.0630   -0.7750   -0.7840 hc        1 0IT      0.104500
     43 HB3         3.6400   -1.9000   -1.8370 hc        1 0IT      0.104500
     44 HG2         3.9630    0.0620   -2.9940 hc        1 0IT      0.107500
     45 HG3         2.9820    0.8620   -2.0290 hc        1 0IT      0.107500
     46 HD1         1.8790    0.4810   -3.9900 h1        1 0IT      0.102000
     47 HD2         2.2840   -1.1000   -3.9720 h1        1 0IT      0.102000
     48 HA2        -1.2110   -0.9470   -2.9280 h1        1 0IT      0.134500
     49 HA3        -0.4270   -0.8390   -4.3260 h1        1 0IT      0.134500
     50 HXT        -2.1230    1.5310   -0.5040 h4        1 0IT      0.145000
     51 H2         -2.9270    0.9900   -3.6760 hn        1 0IT      0.257000
     52 HA1        -2.1410    3.3790   -2.8180 h1        1 0IT      0.131000
     53 HB21       -4.4040    3.2020   -3.0660 hc        1 0IT      0.104000
     54 HB31       -4.4270    1.8080   -2.2160 hc        1 0IT      0.104000
     55 HG21       -4.2090    4.4390   -1.1070 hc        1 0IT      0.115000
     56 HG31       -3.7290    3.1590   -0.2280 hc        1 0IT      0.115000
     57 HD21       -6.3370    4.0580   -0.5370 h1        1 0IT      0.101000
     58 HD31       -6.2560    2.5420   -1.1890 h1        1 0IT      0.101000
     59 HE         -5.1040    2.6870    1.3200 hn        1 0IT      0.305000
     60 HH11       -8.1500    0.2950    1.2390 hn        1 0IT      0.267500
     61 HH12       -7.0690    0.4070    0.0350 hn        1 0IT      0.267500
     62 HH21       -7.5530    3.4960    2.4840 DU        1 0IT      0.302000
     63 HH22       -8.6080    2.2840    2.4830 hn        1 0IT      0.256000
@<TRIPOS>BOND
     1    1    2 1   
     2    1    3 1   
     3    1   33 1   
     4    1   34 1   
     5    2    9 1   
     6    2   10 1   
     7    3    4 1   
     8    3    8 1   
     9    4    5 1   
    10    4   35 1   
    11    5   36 1   
    12    6    7 1   
    13    6   37 1   
    14    7   38 1   
    15    8   39 1   
    16   11   12 1   
    17   11   40 1   
    18   12   13 1   
    19   12   16 1   
    20   12   41 1   
    21   13   14 1   
    22   13   42 1   
    23   13   43 1   
    24   14   15 1   
    25   14   44 1   
    26   14   45 1   
    27   15   18 1   
    28   15   46 1   
    29   15   47 1   
    30   16   17 1   
    31   16   18 1   
    32   18   19 1   
    33   19   20 1   
    34   19   48 1   
    35   19   49 1   
    36   20   21 1   
    37   20   22 1   
    38   22   23 1   
    39   22   51 1   
    40   23   24 1   
    41   23   26 1   
    42   23   52 1   
    43   24   25 1   
    44   24   50 1   
    45   26   27 1   
    46   26   53 1   
    47   26   54 1   
    48   27   28 1   
    49   27   55 1   
    50   27   56 1   
    51   28   29 1   
    52   28   57 1   
    53   28   58 1   
    54   29   30 1   
    55   29   59 1   
    56   30   31 1   
    57   30   32 1   
    58   31   60 1   
    59   31   61 1   
    60   32   63 1   
@<TRIPOS>SUBSTRUCTURE
     1 0IT         1 TEMP              0 ****  ****    0 ROOT
