@<TRIPOS>MOLECULE
0IT
   63    64     1     0     0
SMALL
bcc


@<TRIPOS>ATOM
      1 C3          2.3230   -1.2510    0.2990 c3        1 0IT     -0.257300
      2 S           1.6430   -1.1640   -1.2720 s6        1 0IT      1.482900
      3 C11         2.4000   -2.6440    0.8080 ca        1 0IT     -0.094300
      4 C6          3.2630   -3.5680    0.2030 ca        1 0IT     -0.116000
      5 C5          3.3670   -4.8620    0.7110 ca        1 0IT     -0.127500
      6 C4          2.6180   -5.2400    1.8260 ca        1 0IT     -0.112000
      7 C31         1.7600   -4.3220    2.4320 ca        1 0IT     -0.127500
      8 C21         1.6510   -3.0270    1.9270 ca        1 0IT     -0.116000
      9 O2S         0.3120   -1.6680   -1.2730 o         1 0IT     -0.690800
     10 O1S         2.4540   -1.8400   -2.2000 o         1 0IT     -0.690800
     11 N           1.6480    0.4190   -1.6130 n3        1 0IT     -0.909100
     12 CA          1.8610    1.5550   -0.7570 c3        1 0IT      0.201500
     13 CB          2.1960    2.8210   -1.5610 c3        1 0IT     -0.091400
     14 CG          2.2850    4.0120   -0.6390 c3        1 0IT     -0.092400
     15 CD          0.9460    4.2490    0.0470 c3        1 0IT      0.079000
     16 C           0.6700    1.7940    0.2080 c         1 0IT      0.674500
     17 O           0.0190    0.8130    0.6390 o         1 0IT     -0.691500
     18 N1          0.4140    3.0650    0.6930 n         1 0IT     -0.424800
     19 CA1        -0.7520    3.2560    1.5230 c3        1 0IT      0.021000
     20 C1         -2.0860    2.9990    0.7970 c         1 0IT      0.645100
     21 O1         -2.1880    3.0540   -0.4450 o         1 0IT     -0.616100
     22 N2         -3.1700    2.7060    1.5950 n         1 0IT     -0.560900
     23 CA2        -4.4280    2.2800    1.0370 c3        1 0IT     -0.011300
     24 C2         -5.6270    2.7300    1.8700 c         1 0IT      0.555900
     25 O2         -5.5530    3.0450    3.0540 o         1 0IT     -0.499100
     26 CB1        -4.5520    0.7500    0.8750 c3        1 0IT     -0.093400
     27 CG1        -3.4330    0.1880    0.0260 c3        1 0IT     -0.102400
     28 CD1        -3.7220   -1.2820   -0.2840 c3        1 0IT      0.024300
     29 NE         -2.5990   -1.9430   -0.9110 nh        1 0IT     -0.389100
     30 CZ         -2.6440   -3.2500   -1.3320 cz        1 0IT      0.515300
     31 NH1        -3.7940   -4.0070   -1.1790 nh        1 0IT     -0.511200
     32 NH2        -1.5450   -3.8120   -1.9400 nh        1 0IT     -0.511200
     33 H11         1.7330   -0.6320    1.0350 h1        1 0IT      0.136200
     34 H2A         3.3680   -0.8310    0.3190 h1        1 0IT      0.136200
     35 H6          3.8540   -3.2730   -0.6800 ha        1 0IT      0.147000
     36 H5          4.0500   -5.5820    0.2340 ha        1 0IT      0.144000
     37 H4          2.7110   -6.2590    2.2320 ha        1 0IT      0.144000
     38 H3          1.1770   -4.6150    3.3170 ha        1 0IT      0.144000
     39 H21         0.9840   -2.3020    2.4180 ha        1 0IT      0.147000
     40 H           1.4330    0.6910   -2.5490 hn        1 0IT      0.458800
     41 HA          2.7400    1.3330   -0.0720 h1        1 0IT      0.075700
     42 HB2         3.1720    2.6720   -2.0930 hc        1 0IT      0.070200
     43 HB3         1.4080    3.0090   -2.3390 hc        1 0IT      0.070200
     44 HG2         3.0940    3.8570    0.1220 hc        1 0IT      0.071200
     45 HG3         2.5460    4.9300   -1.2280 hc        1 0IT      0.071200
     46 HD1         1.0750    5.0440    0.8380 h1        1 0IT      0.065200
     47 HD2         0.1970    4.6260   -0.7100 h1        1 0IT      0.065200
     48 HA2        -0.6640    2.5480    2.3980 h1        1 0IT      0.090700
     49 HA3        -0.7680    4.3160    1.9070 h1        1 0IT      0.090700
     50 HXT        -6.5850    2.7320    1.3050 h4        1 0IT      0.019200
     51 H2         -3.0810    2.6850    2.5840 hn        1 0IT      0.332500
     52 HA1        -4.5220    2.7500    0.0080 h1        1 0IT      0.105700
     53 HB21       -4.5480    0.2610    1.8850 hc        1 0IT      0.054700
     54 HB31       -5.5430    0.5400    0.3950 hc        1 0IT      0.054700
     55 HG21       -3.3430    0.7770   -0.9260 hc        1 0IT      0.085700
     56 HG31       -2.4500    0.2890    0.5650 hc        1 0IT      0.085700
     57 HD21       -3.9800   -1.8160    0.6780 h1        1 0IT      0.054200
     58 HD31       -4.6160   -1.3360   -0.9710 h1        1 0IT      0.054200
     59 HE         -1.7150   -1.4520   -0.9320 hn        1 0IT      0.366700
     60 HH11       -4.6220   -3.5990   -0.8150 hn        1 0IT      0.324200
     61 HH12       -3.8520   -4.9190   -1.5680 hn        1 0IT      0.324200
     62 HH21       -1.5440   -4.7720   -2.1930 hn        1 0IT      0.324200
     63 HH22       -0.6800   -3.3060   -1.9790 hn        1 0IT      0.324200
@<TRIPOS>BOND
     1    1    2 1   
     2    1    3 1   
     3    1   33 1   
     4    1   34 1   
     5    2    9 2   
     6    2   10 2   
     7    2   11 1   
     8    3    4 ar  
     9    3    8 ar  
    10    4    5 ar  
    11    4   35 1   
    12    5    6 ar  
    13    5   36 1   
    14    6    7 ar  
    15    6   37 1   
    16    7    8 ar  
    17    7   38 1   
    18    8   39 1   
    19   11   12 1   
    20   11   40 1   
    21   12   13 1   
    22   12   16 1   
    23   12   41 1   
    24   13   14 1   
    25   13   42 1   
    26   13   43 1   
    27   14   15 1   
    28   14   44 1   
    29   14   45 1   
    30   15   18 1   
    31   15   46 1   
    32   15   47 1   
    33   16   17 2   
    34   16   18 1   
    35   18   19 1   
    36   19   20 1   
    37   19   48 1   
    38   19   49 1   
    39   20   21 2   
    40   20   22 1   
    41   22   23 1   
    42   22   51 1   
    43   23   24 1   
    44   23   26 1   
    45   23   52 1   
    46   24   25 2   
    47   24   50 1   
    48   26   27 1   
    49   26   53 1   
    50   26   54 1   
    51   27   28 1   
    52   27   55 1   
    53   27   56 1   
    54   28   29 1   
    55   28   57 1   
    56   28   58 1   
    57   29   30 2   
    58   29   59 1   
    59   30   31 1   
    60   30   32 1   
    61   31   60 1   
    62   31   61 1   
    63   32   62 1   
    64   32   63 1   
@<TRIPOS>SUBSTRUCTURE
     1 0IT         1 TEMP              0 ****  ****    0 ROOT
