@<TRIPOS>MOLECULE
0IU
  101   103     1     0     0
SMALL
bcc


@<TRIPOS>ATOM
      1 C1          0.7820   -2.4600    0.2460 c3        1 0IU      0.078100
      2 C2          2.5270   -4.0720   -0.3760 c3        1 0IU      0.078100
      3 C           2.5910   -1.7850   -1.2810 c         1 0IU      0.533100
      4 O           2.1320   -2.0890   -2.3710 o         1 0IU     -0.389100
      5 N           2.2260   -2.6360   -0.0910 nx        1 0IU     -0.573200
      6 N1          4.0000    0.1020   -2.2070 nx        1 0IU     -0.631200
      7 C3          4.7580    1.3350   -1.7380 c         1 0IU      0.544100
      8 O1          5.9150    1.2060   -1.3710 o         1 0IU     -0.395100
      9 CA          3.5190   -0.6130   -0.9950 c3        1 0IU      0.045800
     10 CB          4.7960   -0.8140   -3.1480 c3        1 0IU      0.215800
     11 CG2         5.6700   -0.0140   -4.1020 c3        1 0IU     -0.130100
     12 CG          5.5770   -1.8880   -2.4540 ca        1 0IU     -0.209300
     13 CD1         5.1420   -3.2170   -2.5980 ca        1 0IU     -0.124500
     14 CD2         6.7850   -1.6330   -1.7950 ca        1 0IU     -0.124500
     15 CE1         5.9040   -4.2660   -2.0900 ca        1 0IU     -0.119500
     16 CE2         7.5430   -2.6860   -1.2820 ca        1 0IU     -0.119500
     17 CZ          7.1090   -4.0030   -1.4320 ca        1 0IU     -0.065000
     18 C4          5.0370    4.6350   -2.7730 c         1 0IU      0.564100
     19 O2          5.3860    5.0540   -1.6790 o         1 0IU     -0.413100
     20 CA1         4.1480    3.4180   -3.0220 c3        1 0IU     -0.100700
     21 CN          3.9830    2.6280   -1.7230 c3        1 0IU     -0.161400
     22 CB1         2.7850    3.8850   -3.5240 c3        1 0IU     -0.121700
     23 CG1         1.9330    2.8160   -4.1080 cc        1 0IU      0.339600
     24 CD21        0.8220    3.1570   -4.8750 cd        1 0IU     -0.272400
     25 SE2         0.0160    1.8200   -5.4130 ss        1 0IU      0.115700
     26 CE11        1.1440    0.7820   -4.6180 cd        1 0IU      0.588300
     27 ND1         2.1310    1.4490   -3.9470 nc        1 0IU     -0.847000
     28 NZ          0.9700   -0.5930   -4.5950 nv        1 0IU     -0.908500
     29 C11         4.1920    7.4410   -4.3690 c3        1 0IU      0.105100
     30 C21         5.5530    6.8440   -3.9160 c3        1 0IU      0.136500
     31 C31         6.6790    7.4470   -4.7620 c3        1 0IU     -0.119400
     32 C1'         8.0820    6.9530   -4.4460 c3        1 0IU     -0.078700
     33 C2'         9.0840    7.7950   -5.2360 c3        1 0IU     -0.077400
     34 C3'        10.5040    7.3430   -4.9680 c3        1 0IU     -0.078400
     35 C4'        10.8250    7.3840   -3.4890 c3        1 0IU     -0.084400
     36 C5'         9.8280    6.5740   -2.6880 c3        1 0IU     -0.078400
     37 C6'         8.4040    7.0180   -2.9600 c3        1 0IU     -0.077400
     38 N2          5.5690    5.3300   -3.9900 ny        1 0IU     -0.657800
     39 O11         3.6630    6.6200   -5.4020 oh        1 0IU     -0.647800
     40 C12         3.1640    7.5260   -3.2180 c3        1 0IU      0.117100
     41 C22         3.2460    8.8720   -2.5110 c3        1 0IU     -0.121400
     42 C32         2.0940    9.0860   -1.5360 c3        1 0IU     -0.064700
     43 C41         2.4680   10.1500   -0.5240 c3        1 0IU     -0.099600
     44 C5          0.8250    9.4810   -2.2630 c3        1 0IU     -0.099600
     45 O12         3.3860    6.4240   -2.3420 oh        1 0IU     -0.671800
     46 H11         0.5930   -1.3930    0.5400 hx        1 0IU      0.125367
     47 H12         0.1530   -2.7330   -0.6460 hx        1 0IU      0.125367
     48 H13         0.5230   -3.1400    1.1060 hx        1 0IU      0.125367
     49 H21         3.6000   -4.1700   -0.7060 hx        1 0IU      0.125367
     50 H22         1.8470   -4.4410   -1.1920 hx        1 0IU      0.125367
     51 H23         2.3530   -4.6730    0.5590 hx        1 0IU      0.125367
     52 HA2         2.9580    0.1240   -0.3420 hx        1 0IU      0.145200
     53 HA3         4.4350   -0.9890   -0.4370 hx        1 0IU      0.145200
     54 HB          3.9750   -1.3100   -3.7630 hx        1 0IU      0.098700
     55 HG21        5.0760    0.7570   -4.6500 hc        1 0IU      0.083367
     56 HG22        6.0890   -0.7330   -4.8560 hc        1 0IU      0.083367
     57 HG23        6.5310    0.4670   -3.5780 hc        1 0IU      0.083367
     58 HD1         4.2220   -3.4410   -3.1620 ha        1 0IU      0.146000
     59 HD2         7.1670   -0.6030   -1.6960 ha        1 0IU      0.146000
     60 HE1         5.5770   -5.3090   -2.2400 ha        1 0IU      0.174500
     61 HE2         8.5020   -2.4750   -0.7760 ha        1 0IU      0.174500
     62 HZ          7.7250   -4.8380   -1.0500 ha        1 0IU      0.184000
     63 HA          4.6360    2.7730   -3.8090 hc        1 0IU      0.091700
     64 HN2         2.8900    2.4420   -1.5290 hc        1 0IU      0.131700
     65 HN3         4.3690    3.2230   -0.8400 hc        1 0IU      0.131700
     66 HB1         2.9140    4.6900   -4.3060 hc        1 0IU      0.107200
     67 HB2         2.2290    4.3770   -2.6730 hc        1 0IU      0.107200
     68 HD21        0.5130    4.1820   -5.0960 h4        1 0IU      0.213000
     69 HNZ1        0.3230   -0.9370   -5.2760 hn        1 0IU      0.421300
     70 HNZ2        1.7950   -1.1470   -4.5160 hn        1 0IU      0.421300
     71 H121        4.3920    8.4820   -4.7530 h1        1 0IU      0.104700
     72 H2          5.7110    7.1190   -2.8270 hx        1 0IU      0.130700
     73 H31         6.4620    7.2820   -5.8510 hc        1 0IU      0.091200
     74 H32         6.6460    8.5580   -4.5770 hc        1 0IU      0.091200
     75 H1'         8.2020    5.8880   -4.7970 hc        1 0IU      0.022700
     76 H2'1        8.8600    7.7110   -6.3320 hc        1 0IU      0.045450
     77 H2'2        8.9740    8.8730   -4.9460 hc        1 0IU      0.045450
     78 H3'1       11.2130    8.0120   -5.5250 hc        1 0IU      0.052950
     79 H3'2       10.6500    6.3020   -5.3590 hc        1 0IU      0.052950
     80 H4'1       11.8570    6.9810   -3.3170 hc        1 0IU      0.065200
     81 H4'2       10.8180    8.4480   -3.1320 hc        1 0IU      0.065200
     82 H5'1       10.0460    6.6880   -1.5930 hc        1 0IU      0.052950
     83 H5'2        9.9370    5.4870   -2.9430 hc        1 0IU      0.052950
     84 H6'1        7.6980    6.3630   -2.3820 hc        1 0IU      0.045450
     85 H6'2        8.2660    8.0700   -2.5960 hc        1 0IU      0.045450
     86 HN22        6.5510    5.0410   -4.1150 hn        1 0IU      0.473300
     87 HO1         3.2890    7.1960   -6.0820 ho        1 0IU      0.459000
     88 H122        2.1330    7.3720   -3.6540 h1        1 0IU      0.090700
     89 H211        3.2310    9.6940   -3.2750 hc        1 0IU      0.067700
     90 H221        4.2230    8.9380   -1.9610 hc        1 0IU      0.067700
     91 H3          1.9030    8.1210   -0.9850 hc        1 0IU      0.032700
     92 H41         1.6190   10.3240    0.1800 hc        1 0IU      0.049867
     93 H42         3.3610    9.8370    0.0680 hc        1 0IU      0.049867
     94 H43         2.7010   11.1150   -1.0360 hc        1 0IU      0.049867
     95 H51         0.5340    8.7030   -3.0090 hc        1 0IU      0.049867
     96 H52         0.9630   10.4530   -2.7970 hc        1 0IU      0.049867
     97 H53        -0.0120    9.6010   -1.5330 hc        1 0IU      0.049867
     98 HO11        3.5160    6.7620   -1.4440 ho        1 0IU      0.443000
     99 H           2.7900   -2.3430    0.7190 hn        1 0IU      0.463800
    100 H111        3.1770    0.4680   -2.7860 hn        1 0IU      0.522800
    101 H222        5.0270    5.0490   -4.8200 hn        1 0IU      0.473300
@<TRIPOS>BOND
     1    1    5 1   
     2    1   46 1   
     3    1   47 1   
     4    1   48 1   
     5    2    5 1   
     6    2   49 1   
     7    2   50 1   
     8    2   51 1   
     9    3    4 2   
    10    3    5 1   
    11    3    9 1   
    12    5   99 1   
    13    6    7 1   
    14    6    9 1   
    15    6   10 1   
    16    6  100 1   
    17    7    8 2   
    18    7   21 1   
    19    9   52 1   
    20    9   53 1   
    21   10   11 1   
    22   10   12 1   
    23   10   54 1   
    24   11   55 1   
    25   11   56 1   
    26   11   57 1   
    27   12   13 ar  
    28   12   14 ar  
    29   13   15 ar  
    30   13   58 1   
    31   14   16 ar  
    32   14   59 1   
    33   15   17 ar  
    34   15   60 1   
    35   16   17 ar  
    36   16   61 1   
    37   17   62 1   
    38   18   19 2   
    39   18   20 1   
    40   18   38 1   
    41   20   21 1   
    42   20   22 1   
    43   20   63 1   
    44   21   64 1   
    45   21   65 1   
    46   22   23 1   
    47   22   66 1   
    48   22   67 1   
    49   23   24 2   
    50   23   27 1   
    51   24   25 1   
    52   24   68 1   
    53   25   26 1   
    54   26   27 2   
    55   26   28 1   
    56   28   69 1   
    57   28   70 1   
    58   29   30 1   
    59   29   39 1   
    60   29   40 1   
    61   29   71 1   
    62   30   31 1   
    63   30   38 1   
    64   30   72 1   
    65   31   32 1   
    66   31   73 1   
    67   31   74 1   
    68   32   33 1   
    69   32   37 1   
    70   32   75 1   
    71   33   34 1   
    72   33   76 1   
    73   33   77 1   
    74   34   35 1   
    75   34   78 1   
    76   34   79 1   
    77   35   36 1   
    78   35   80 1   
    79   35   81 1   
    80   36   37 1   
    81   36   82 1   
    82   36   83 1   
    83   37   84 1   
    84   37   85 1   
    85   38   86 1   
    86   38  101 1   
    87   39   87 1   
    88   40   41 1   
    89   40   45 1   
    90   40   88 1   
    91   41   42 1   
    92   41   89 1   
    93   41   90 1   
    94   42   43 1   
    95   42   44 1   
    96   42   91 1   
    97   43   92 1   
    98   43   93 1   
    99   43   94 1   
   100   44   95 1   
   101   44   96 1   
   102   44   97 1   
   103   45   98 1   
@<TRIPOS>SUBSTRUCTURE
     1 0IU         1 TEMP              0 ****  ****    0 ROOT
