@<TRIPOS>MOLECULE
0IU
  102   104     1     0     0
SMALL
bcc


@<TRIPOS>ATOM
      1 C1          4.7530    0.4340    3.2280 c3        1 0IU      0.077100
      2 C2          4.4620   -1.8810    2.4630 c3        1 0IU      0.077100
      3 C           3.9530   -0.0240    0.9460 c         1 0IU      0.518100
      4 O           2.7570    0.1210    1.1630 o         1 0IU     -0.387100
      5 N           4.8450   -0.4920    2.0560 n4        1 0IU     -0.566200
      6 N1          3.6290    0.3400   -1.5210 n4        1 0IU     -0.606200
      7 C3          4.2450    1.0540   -2.7190 c         1 0IU      0.557100
      8 O1          5.4160    0.8150   -2.9700 o         1 0IU     -0.412100
      9 CA          4.6130    0.2670   -0.3990 c3        1 0IU      0.029800
     10 CB          3.0480   -1.0590   -1.8640 c3        1 0IU      0.217800
     11 CG2         2.4120   -1.0760   -3.2420 c3        1 0IU     -0.137100
     12 CG          4.0310   -2.1730   -1.7120 ca        1 0IU     -0.223300
     13 CD1         3.7270   -3.2020   -0.8040 ca        1 0IU     -0.122500
     14 CD2         5.1550   -2.2970   -2.5400 ca        1 0IU     -0.122500
     15 CE1         4.5310   -4.3380   -0.7390 ca        1 0IU     -0.111000
     16 CE2         5.9630   -3.4290   -2.4620 ca        1 0IU     -0.111000
     17 CZ          5.6500   -4.4570   -1.5680 ca        1 0IU     -0.053000
     18 C4          4.8830    3.9210   -3.7550 c         1 0IU      0.584100
     19 O2          5.1380    3.8540   -2.5550 o         1 0IU     -0.477100
     20 CA1         4.0910    2.8550   -4.5050 c3        1 0IU     -0.103700
     21 CN          3.3400    2.0000   -3.4710 c3        1 0IU     -0.157400
     22 CB1         3.0860    3.4410   -5.5000 c3        1 0IU     -0.130700
     23 CG1         3.4000    3.2170   -6.9400 cc        1 0IU      0.331600
     24 CD21        2.3860    2.8530   -7.8640 cd        1 0IU     -0.279400
     25 SE2         2.9450    2.7820   -9.3820 ss        1 0IU      0.378700
     26 CE11        4.5080    3.2110   -8.8680 cd        1 0IU      0.280300
     27 ND1         4.6240    3.4220   -7.5150 nc        1 0IU     -0.637000
     28 NZ          5.6440    3.3660   -9.7610 n4        1 0IU     -0.774300
     29 C11         3.8710    7.0290   -4.2700 c3        1 0IU      0.095100
     30 C21         5.2490    6.4200   -3.8970 c3        1 0IU      0.140500
     31 C31         6.3560    7.3950   -4.3130 c3        1 0IU     -0.120400
     32 C1'         7.7820    6.9340   -4.0540 c3        1 0IU     -0.078700
     33 C2'         8.7310    8.0970   -4.3480 c3        1 0IU     -0.077400
     34 C3'        10.1720    7.6930   -4.1170 c3        1 0IU     -0.078400
     35 C4'        10.3810    7.1800   -2.7080 c3        1 0IU     -0.085400
     36 C5'         9.4310    6.0440   -2.3890 c3        1 0IU     -0.078400
     37 C6'         7.9880    6.4440   -2.6280 c3        1 0IU     -0.077400
     38 N2          5.4650    5.0550   -4.5270 n4        1 0IU     -0.652800
     39 O11         3.6120    6.7230   -5.6350 oh        1 0IU     -0.652800
     40 C12         2.6990    6.4990   -3.4100 c3        1 0IU      0.112100
     41 C22         2.3050    7.5140   -2.3440 c3        1 0IU     -0.121400
     42 C32         1.0450    7.1080   -1.5910 c3        1 0IU     -0.060700
     43 C41         0.9700    7.8590   -0.2760 c3        1 0IU     -0.101600
     44 C5         -0.1990    7.3730   -2.4130 c3        1 0IU     -0.101600
     45 O12         3.0510    5.2310   -2.8590 oh        1 0IU     -0.677800
     46 H11         3.6850    0.4940    3.5780 hx        1 0IU      0.129867
     47 H12         5.1220    1.4510    2.9320 hx        1 0IU      0.129867
     48 H13         5.3940    0.0260    4.0620 hx        1 0IU      0.129867
     49 H21         4.5080   -2.5600    1.5670 hx        1 0IU      0.129867
     50 H22         3.4190   -1.8730    2.8880 hx        1 0IU      0.129867
     51 H23         5.1820   -2.2390    3.2520 hx        1 0IU      0.129867
     52 HA2         5.3790   -0.5310   -0.6630 hx        1 0IU      0.160200
     53 HA3         5.1510    1.2610   -0.3170 hx        1 0IU      0.160200
     54 HB          2.2240   -1.1840   -1.0860 hx        1 0IU      0.115700
     55 HG21        1.9790   -2.1040   -3.3960 hc        1 0IU      0.088367
     56 HG22        1.5710   -0.3440   -3.3220 hc        1 0IU      0.088367
     57 HG23        3.1620   -0.9060   -4.0510 hc        1 0IU      0.088367
     58 HD1         2.8170   -3.1510   -0.1840 ha        1 0IU      0.139000
     59 HD2         5.3970   -1.5110   -3.2720 ha        1 0IU      0.139000
     60 HE1         4.2650   -5.1630   -0.0530 ha        1 0IU      0.182000
     61 HE2         6.8410   -3.5270   -3.1240 ha        1 0IU      0.182000
     62 HZ          6.2740   -5.3690   -1.5300 ha        1 0IU      0.193000
     63 HA          4.8470    2.2090   -5.0420 hc        1 0IU      0.126700
     64 HN2         2.8070    2.6930   -2.7570 hc        1 0IU      0.133200
     65 HN3         2.5640    1.3780   -4.0050 hc        1 0IU      0.133200
     66 HB1         2.0680    2.9920   -5.3110 hc        1 0IU      0.112200
     67 HB2         2.9480    4.5510   -5.3240 hc        1 0IU      0.112200
     68 HD21        1.3440    2.6630   -7.5740 h4        1 0IU      0.235000
     69 HNZ1        5.3780    3.0750  -10.7130 hn        1 0IU      0.485467
     70 HNZ2        6.4350    2.7850   -9.4430 hn        1 0IU      0.485467
     71 H121        3.9550    8.1450   -4.1220 h1        1 0IU      0.114700
     72 H2          5.2810    6.2690   -2.7750 hx        1 0IU      0.124700
     73 H31         6.2380    7.6550   -5.3990 hc        1 0IU      0.094700
     74 H32         6.1790    8.3390   -3.7220 hc        1 0IU      0.094700
     75 H1'         8.0520    6.1020   -4.7660 hc        1 0IU      0.019700
     76 H2'1        8.4750    8.9640   -3.6830 hc        1 0IU      0.044700
     77 H2'2        8.5960    8.4290   -5.4100 hc        1 0IU      0.044700
     78 H3'1       10.8350    8.5820   -4.2940 hc        1 0IU      0.054200
     79 H3'2       10.4680    6.9030   -4.8560 hc        1 0IU      0.054200
     80 H4'1       11.4390    6.8260   -2.5910 hc        1 0IU      0.070700
     81 H4'2       10.2270    8.0170   -1.9760 hc        1 0IU      0.070700
     82 H5'1        9.6840    5.1550   -3.0250 hc        1 0IU      0.054200
     83 H5'2        9.5580    5.7420   -1.3170 hc        1 0IU      0.054200
     84 H6'1        7.7050    7.2600   -1.9110 hc        1 0IU      0.044700
     85 H6'2        7.3220    5.5640   -2.4220 hc        1 0IU      0.044700
     86 HN22        6.4870    4.9060   -4.5850 hn        1 0IU      0.481300
     87 HO1         3.1970    7.4980   -6.0400 ho        1 0IU      0.464000
     88 H122        1.8220    6.2890   -4.0910 h1        1 0IU      0.097700
     89 H211        2.1300    8.5110   -2.8320 hc        1 0IU      0.073200
     90 H221        3.1560    7.6360   -1.6220 hc        1 0IU      0.073200
     91 H3          1.1010    6.0040   -1.3710 hc        1 0IU      0.019700
     92 H41         0.0370    7.5790    0.2730 hc        1 0IU      0.052867
     93 H42         1.8490    7.6190    0.3690 hc        1 0IU      0.052867
     94 H43         0.9500    8.9620   -0.4540 hc        1 0IU      0.052867
     95 H51        -1.1070    7.0450   -1.8500 hc        1 0IU      0.052867
     96 H52        -0.3040    8.4640   -2.6310 hc        1 0IU      0.052867
     97 H53        -0.1640    6.8180   -3.3810 hc        1 0IU      0.052867
     98 HO11        3.1820    5.3400   -1.9070 ho        1 0IU      0.435000
     99 H           5.8200   -0.5070    1.7260 hn        1 0IU      0.466800
    100 H111        2.8240    0.9060   -1.2120 hn        1 0IU      0.462800
    101 HZ3         5.9460    4.3520   -9.7840 hn        1 0IU      0.485467
    102 H222        5.0740    5.0790   -5.4790 hn        1 0IU      0.481300
@<TRIPOS>BOND
     1    1    5 1   
     2    1   46 1   
     3    1   47 1   
     4    1   48 1   
     5    2    5 1   
     6    2   49 1   
     7    2   50 1   
     8    2   51 1   
     9    3    4 2   
    10    3    5 1   
    11    3    9 1   
    12    5   99 1   
    13    6    7 1   
    14    6    9 1   
    15    6   10 1   
    16    6  100 1   
    17    7    8 2   
    18    7   21 1   
    19    9   52 1   
    20    9   53 1   
    21   10   11 1   
    22   10   12 1   
    23   10   54 1   
    24   11   55 1   
    25   11   56 1   
    26   11   57 1   
    27   12   13 ar  
    28   12   14 ar  
    29   13   15 ar  
    30   13   58 1   
    31   14   16 ar  
    32   14   59 1   
    33   15   17 ar  
    34   15   60 1   
    35   16   17 ar  
    36   16   61 1   
    37   17   62 1   
    38   18   19 2   
    39   18   20 1   
    40   18   38 1   
    41   20   21 1   
    42   20   22 1   
    43   20   63 1   
    44   21   64 1   
    45   21   65 1   
    46   22   23 1   
    47   22   66 1   
    48   22   67 1   
    49   23   24 2   
    50   23   27 1   
    51   24   25 1   
    52   24   68 1   
    53   25   26 1   
    54   26   27 2   
    55   26   28 1   
    56   28   69 1   
    57   28   70 1   
    58   28  101 1   
    59   29   30 1   
    60   29   39 1   
    61   29   40 1   
    62   29   71 1   
    63   30   31 1   
    64   30   38 1   
    65   30   72 1   
    66   31   32 1   
    67   31   73 1   
    68   31   74 1   
    69   32   33 1   
    70   32   37 1   
    71   32   75 1   
    72   33   34 1   
    73   33   76 1   
    74   33   77 1   
    75   34   35 1   
    76   34   78 1   
    77   34   79 1   
    78   35   36 1   
    79   35   80 1   
    80   35   81 1   
    81   36   37 1   
    82   36   82 1   
    83   36   83 1   
    84   37   84 1   
    85   37   85 1   
    86   38   86 1   
    87   38  102 1   
    88   39   87 1   
    89   40   41 1   
    90   40   45 1   
    91   40   88 1   
    92   41   42 1   
    93   41   89 1   
    94   41   90 1   
    95   42   43 1   
    96   42   44 1   
    97   42   91 1   
    98   43   92 1   
    99   43   93 1   
   100   43   94 1   
   101   44   95 1   
   102   44   96 1   
   103   44   97 1   
   104   45   98 1   
@<TRIPOS>SUBSTRUCTURE
     1 0IU         1 TEMP              0 ****  ****    0 ROOT
