@<TRIPOS>MOLECULE
0IU
  101   103     1     0     0
SMALL
bcc


@<TRIPOS>ATOM
      1 C1          0.5360   -2.2740   -0.2000 c3        1 0IU      0.079600
      2 C2          2.0100   -1.4560    1.5850 c3        1 0IU      0.079600
      3 C           2.4510   -0.8290   -0.7540 c         1 0IU      0.522100
      4 O           1.8440    0.2310   -0.7970 o         1 0IU     -0.400100
      5 N           1.9390   -1.9100    0.1640 n4        1 0IU     -0.575200
      6 N1          4.1530   -0.1300   -2.4950 n4        1 0IU     -0.636200
      7 C3          4.7750    1.0410   -1.7680 c         1 0IU      0.534100
      8 O1          5.8180    0.8560   -1.1570 o         1 0IU     -0.403100
      9 CA          3.7000   -1.1800   -1.5450 c3        1 0IU      0.039800
     10 CB          5.0800   -0.7890   -3.5410 c3        1 0IU      0.232800
     11 CG2         5.9450    0.2310   -4.2600 c3        1 0IU     -0.131100
     12 CG          5.8950   -1.9160   -2.9900 ca        1 0IU     -0.217300
     13 CD1         5.5440   -3.2290   -3.3440 ca        1 0IU     -0.114000
     14 CD2         7.0570   -1.6930   -2.2400 ca        1 0IU     -0.114000
     15 CE1         6.3470   -4.2980   -2.9560 ca        1 0IU     -0.113500
     16 CE2         7.8550   -2.7670   -1.8480 ca        1 0IU     -0.113500
     17 CZ          7.5060   -4.0700   -2.2080 ca        1 0IU     -0.063000
     18 C4          5.0070    4.4040   -2.7530 c         1 0IU      0.562100
     19 O2          5.3030    4.8190   -1.6410 o         1 0IU     -0.410100
     20 CA1         4.1660    3.1650   -3.0530 c3        1 0IU     -0.100700
     21 CN          4.0010    2.3380   -1.7790 c3        1 0IU     -0.167400
     22 CB1         2.8030    3.6120   -3.5790 c3        1 0IU     -0.123700
     23 CG1         1.9600    2.5310   -4.1560 cc        1 0IU      0.345600
     24 CD21        0.7450    2.8260   -4.7770 cd        1 0IU     -0.269400
     25 SE2         0.0150    1.4670   -5.3600 ss        1 0IU      0.136700
     26 CE11        1.2950    0.4780   -4.7730 cd        1 0IU      0.546300
     27 ND1         2.2790    1.1830   -4.1420 nc        1 0IU     -0.817000
     28 NZ          1.2900   -0.9190   -4.8520 nh        1 0IU     -0.902500
     29 C11         4.1460    7.2190   -4.3280 c3        1 0IU      0.106100
     30 C21         5.5060    6.6460   -3.8420 c3        1 0IU      0.136500
     31 C31         6.6430    7.2900   -4.6420 c3        1 0IU     -0.119400
     32 C1'         8.0470    6.8240   -4.2900 c3        1 0IU     -0.078700
     33 C2'         9.0530    7.7030   -5.0330 c3        1 0IU     -0.077900
     34 C3'        10.4750    7.2800   -4.7270 c3        1 0IU     -0.078400
     35 C4'        10.7470    7.3030   -3.2380 c3        1 0IU     -0.084400
     36 C5'         9.7450    6.4560   -2.4820 c3        1 0IU     -0.078400
     37 C6'         8.3200    6.8710   -2.7930 c3        1 0IU     -0.077900
     38 N2          5.5610    5.1350   -3.9400 n4        1 0IU     -0.658800
     39 O11         3.6620    6.3960   -5.3810 oh        1 0IU     -0.647800
     40 C12         3.0880    7.2740   -3.2030 c3        1 0IU      0.117100
     41 C22         3.1420    8.6050   -2.4650 c3        1 0IU     -0.121400
     42 C32         1.9600    8.7940   -1.5220 c3        1 0IU     -0.064700
     43 C41         2.3000    9.8390   -0.4770 c3        1 0IU     -0.099600
     44 C5          0.7130    9.2000   -2.2790 c3        1 0IU     -0.099600
     45 O12         3.2980    6.1550   -2.3450 oh        1 0IU     -0.671800
     46 H11        -0.1210   -1.3660   -0.1090 hx        1 0IU      0.125367
     47 H12         0.5120   -2.6620   -1.2530 hx        1 0IU      0.125367
     48 H13         0.1720   -3.0720    0.5060 hx        1 0IU      0.125367
     49 H21         1.6060   -2.2710    2.2500 hx        1 0IU      0.125367
     50 H22         3.0790   -1.2470    1.8580 hx        1 0IU      0.125367
     51 H23         1.3880   -0.5280    1.7130 hx        1 0IU      0.125367
     52 HA2         3.4970   -2.1260   -2.1420 hx        1 0IU      0.158200
     53 HA3         4.5560   -1.4000   -0.8300 hx        1 0IU      0.158200
     54 HB          4.3400   -1.2120   -4.2950 hx        1 0IU      0.095700
     55 HG21        5.3200    0.9380   -4.8580 hc        1 0IU      0.080700
     56 HG22        6.6060   -0.3320   -4.9730 hc        1 0IU      0.080700
     57 HG23        6.6080    0.7940   -3.5600 hc        1 0IU      0.080700
     58 HD1         4.6550   -3.4210   -3.9660 ha        1 0IU      0.140500
     59 HD2         7.3580   -0.6690   -1.9660 ha        1 0IU      0.140500
     60 HE1         6.0810   -5.3260   -3.2570 ha        1 0IU      0.175000
     61 HE2         8.7760   -2.5830   -1.2680 ha        1 0IU      0.175000
     62 HZ          8.1520   -4.9170   -1.9170 ha        1 0IU      0.181000
     63 HA          4.6940    2.5590   -3.8430 hc        1 0IU      0.089700
     64 HN2         4.3560    2.9230   -0.8760 hc        1 0IU      0.136200
     65 HN3         2.9060    2.1240   -1.6080 hc        1 0IU      0.136200
     66 HB1         2.2330    4.1100   -2.7400 hc        1 0IU      0.109200
     67 HB2         2.9360    4.4050   -4.3720 hc        1 0IU      0.109200
     68 HD21        0.3260    3.8330   -4.8660 h4        1 0IU      0.217000
     69 HNZ1        2.1400   -1.3030   -5.2170 hn        1 0IU      0.410300
     70 HNZ2        0.4920   -1.2660   -5.3520 hn        1 0IU      0.410300
     71 H121        4.3340    8.2680   -4.6980 h1        1 0IU      0.104700
     72 H2          5.6230    6.9070   -2.7440 hx        1 0IU      0.131700
     73 H31         6.5780    8.3970   -4.4410 hc        1 0IU      0.090700
     74 H32         6.4650    7.1390   -5.7400 hc        1 0IU      0.090700
     75 H1'         8.2040    5.7680   -4.6540 hc        1 0IU      0.022700
     76 H2'1        8.8660    7.6340   -6.1360 hc        1 0IU      0.045450
     77 H2'2        8.9080    8.7730   -4.7280 hc        1 0IU      0.045450
     78 H3'1       11.1850    7.9750   -5.2490 hc        1 0IU      0.053200
     79 H3'2       10.6580    6.2500   -5.1300 hc        1 0IU      0.053200
     80 H4'1       10.7030    8.3600   -2.8640 hc        1 0IU      0.065200
     81 H4'2       11.7830    6.9220   -3.0400 hc        1 0IU      0.065200
     82 H5'1        9.8890    5.3770   -2.7530 hc        1 0IU      0.053200
     83 H5'2        9.9250    6.5550   -1.3800 hc        1 0IU      0.053200
     84 H6'1        7.6130    6.1900   -2.2490 hc        1 0IU      0.045450
     85 H6'2        8.1450    7.9130   -2.4160 hc        1 0IU      0.045450
     86 HN22        5.0540    4.8560   -4.7920 hn        1 0IU      0.472300
     87 HO1         3.2770    6.9700   -6.0570 ho        1 0IU      0.459000
     88 H122        2.0700    7.1230   -3.6690 h1        1 0IU      0.088700
     89 H211        4.1020    8.6630   -1.8850 hc        1 0IU      0.067700
     90 H221        3.1470    9.4430   -3.2120 hc        1 0IU      0.067700
     91 H3          1.7570    7.8180   -0.9970 hc        1 0IU      0.032700
     92 H41         2.5440   10.8150   -0.9620 hc        1 0IU      0.049700
     93 H42         1.4280    9.9950    0.2050 hc        1 0IU      0.049700
     94 H43         3.1760    9.5170    0.1350 hc        1 0IU      0.049700
     95 H51         0.8620   10.1830   -2.7880 hc        1 0IU      0.049700
     96 H52         0.4470    8.4370   -3.0490 hc        1 0IU      0.049700
     97 H53        -0.1460    9.3020   -1.5720 hc        1 0IU      0.049700
     98 HO11        3.3820    6.4730   -1.4350 ho        1 0IU      0.443000
     99 H           2.5290   -2.7480    0.0610 hn        1 0IU      0.465800
    100 H111        3.3250    0.2710   -3.0500 hn        1 0IU      0.524800
    101 H222        6.5540    4.8720   -4.0370 hn        1 0IU      0.472300
@<TRIPOS>BOND
     1    1    5 1   
     2    1   46 1   
     3    1   47 1   
     4    1   48 1   
     5    2    5 1   
     6    2   49 1   
     7    2   50 1   
     8    2   51 1   
     9    3    4 2   
    10    3    5 1   
    11    3    9 1   
    12    5   99 1   
    13    6    7 1   
    14    6    9 1   
    15    6   10 1   
    16    6  100 1   
    17    7    8 2   
    18    7   21 1   
    19    9   52 1   
    20    9   53 1   
    21   10   11 1   
    22   10   12 1   
    23   10   54 1   
    24   11   55 1   
    25   11   56 1   
    26   11   57 1   
    27   12   13 ar  
    28   12   14 ar  
    29   13   15 ar  
    30   13   58 1   
    31   14   16 ar  
    32   14   59 1   
    33   15   17 ar  
    34   15   60 1   
    35   16   17 ar  
    36   16   61 1   
    37   17   62 1   
    38   18   19 2   
    39   18   20 1   
    40   18   38 1   
    41   20   21 1   
    42   20   22 1   
    43   20   63 1   
    44   21   64 1   
    45   21   65 1   
    46   22   23 1   
    47   22   66 1   
    48   22   67 1   
    49   23   24 2   
    50   23   27 1   
    51   24   25 1   
    52   24   68 1   
    53   25   26 1   
    54   26   27 2   
    55   26   28 1   
    56   28   69 1   
    57   28   70 1   
    58   29   30 1   
    59   29   39 1   
    60   29   40 1   
    61   29   71 1   
    62   30   31 1   
    63   30   38 1   
    64   30   72 1   
    65   31   32 1   
    66   31   73 1   
    67   31   74 1   
    68   32   33 1   
    69   32   37 1   
    70   32   75 1   
    71   33   34 1   
    72   33   76 1   
    73   33   77 1   
    74   34   35 1   
    75   34   78 1   
    76   34   79 1   
    77   35   36 1   
    78   35   80 1   
    79   35   81 1   
    80   36   37 1   
    81   36   82 1   
    82   36   83 1   
    83   37   84 1   
    84   37   85 1   
    85   38   86 1   
    86   38  101 1   
    87   39   87 1   
    88   40   41 1   
    89   40   45 1   
    90   40   88 1   
    91   41   42 1   
    92   41   89 1   
    93   41   90 1   
    94   42   43 1   
    95   42   44 1   
    96   42   91 1   
    97   43   92 1   
    98   43   93 1   
    99   43   94 1   
   100   44   95 1   
   101   44   96 1   
   102   44   97 1   
   103   45   98 1   
@<TRIPOS>SUBSTRUCTURE
     1 0IU         1 TEMP              0 ****  ****    0 ROOT
