@<TRIPOS>MOLECULE
0IU
   98   100     1     0     0
SMALL
bcc


@<TRIPOS>ATOM
      1 C1         -3.4490    4.3860    2.0940 c3        1 0IU      0.076300
      2 C2         -3.3560    2.7210    3.8930 c3        1 0IU      0.076300
      3 C          -3.5160    1.9950    1.5510 c         1 0IU      0.626100
      4 O          -3.5360    2.2630    0.3330 o         1 0IU     -0.606100
      5 N          -3.5240    3.0090    2.4990 n         1 0IU     -0.476800
      6 N1         -3.4870   -0.4710    1.0580 n         1 0IU     -0.459800
      7 C3         -2.2910   -0.8580    0.4590 c         1 0IU      0.674100
      8 O1         -2.2510   -1.8400   -0.3100 o         1 0IU     -0.608100
      9 CA         -3.5140    0.5450    2.0730 c3        1 0IU      0.033000
     10 CB         -4.7910   -0.9280    0.5770 c3        1 0IU      0.167000
     11 CG2        -4.8700   -1.1800   -0.9290 c3        1 0IU     -0.102100
     12 CG         -5.2800   -2.1510    1.3200 ca        1 0IU     -0.106300
     13 CD1        -6.4470   -2.0720    2.0870 ca        1 0IU     -0.118000
     14 CD2        -4.5890   -3.3640    1.2370 ca        1 0IU     -0.118000
     15 CE1        -6.9220   -3.1980    2.7590 ca        1 0IU     -0.135000
     16 CE2        -5.0650   -4.4870    1.9130 ca        1 0IU     -0.135000
     17 CZ         -6.2310   -4.4060    2.6730 ca        1 0IU     -0.127000
     18 C4          1.2850    0.3410    0.0230 c         1 0IU      0.666100
     19 O2          1.5130    1.1680    0.9320 o         1 0IU     -0.632100
     20 CA1        -0.1500    0.0760   -0.4480 c3        1 0IU     -0.113700
     21 CN         -1.0090   -0.1150    0.8000 c3        1 0IU     -0.144400
     22 CB1        -0.6620    1.2610   -1.2600 c3        1 0IU     -0.113700
     23 CG1        -0.2750    1.1990   -2.6950 cc        1 0IU      0.374600
     24 CD21       -1.1410    1.4780   -3.7430 cd        1 0IU     -0.262400
     25 SE2        -0.3620    1.3720   -5.2190 ss        1 0IU     -0.114300
     26 CE11        1.1270    0.9230   -4.4230 cd        1 0IU      0.610300
     27 ND1         1.0180    0.8640   -3.0800 nc        1 0IU     -0.730000
     28 NZ          2.3090    0.7800   -5.1490 nh        1 0IU     -0.893500
     29 C11         4.5240    0.6900   -0.9630 c3        1 0IU      0.095100
     30 C21         3.6720   -0.3270   -0.1410 c3        1 0IU      0.071700
     31 C31         4.3710   -1.6960   -0.2150 c3        1 0IU     -0.080400
     32 C1'         3.7640   -2.7580    0.6870 c3        1 0IU     -0.063700
     33 C2'         4.3420   -4.1220    0.3240 c3        1 0IU     -0.074900
     34 C3'         3.7860   -5.2120    1.2160 c3        1 0IU     -0.075900
     35 C4'         4.0270   -4.9040    2.6790 c3        1 0IU     -0.076400
     36 C5'         3.4680   -3.5450    3.0500 c3        1 0IU     -0.075900
     37 C6'         4.0250   -2.4550    2.1570 c3        1 0IU     -0.074900
     38 N2          2.2890   -0.4080   -0.5470 n         1 0IU     -0.545900
     39 O11         4.1520    0.7430   -2.3250 oh        1 0IU     -0.608800
     40 C12         4.4790    2.0750   -0.2820 c3        1 0IU      0.095100
     41 C22         5.0210    3.1620   -1.2040 c3        1 0IU     -0.106400
     42 C32         4.9290    4.5440   -0.5760 c3        1 0IU     -0.069700
     43 C41         5.8940    5.4930   -1.2560 c3        1 0IU     -0.090600
     44 C5          3.5180    5.0890   -0.6520 c3        1 0IU     -0.090600
     45 O12         5.2040    2.0170    0.9360 oh        1 0IU     -0.586800
     46 H11        -2.4480    4.8200    2.3640 h1        1 0IU      0.045033
     47 H12        -3.5970    4.4730    0.9850 h1        1 0IU      0.045033
     48 H13        -4.2500    4.9720    2.6180 h1        1 0IU      0.045033
     49 H21        -4.1210    1.9710    4.2320 h1        1 0IU      0.045033
     50 H22        -2.3310    2.3080    4.1020 h1        1 0IU      0.045033
     51 H23        -3.4900    3.6590    4.4930 h1        1 0IU      0.045033
     52 HA2        -2.6260    0.4150    2.7570 h1        1 0IU      0.076700
     53 HA3        -4.4480    0.4040    2.6940 h1        1 0IU      0.076700
     54 HB         -5.5160   -0.0770    0.7900 h1        1 0IU      0.051700
     55 HG21       -4.3190   -2.1090   -1.2140 hc        1 0IU      0.054367
     56 HG22       -5.9440   -1.2980   -1.2090 hc        1 0IU      0.054367
     57 HG23       -4.4380   -0.3200   -1.4940 hc        1 0IU      0.054367
     58 HD1        -6.9990   -1.1220    2.1590 ha        1 0IU      0.144000
     59 HD2        -3.6680   -3.4230    0.6320 ha        1 0IU      0.144000
     60 HE1        -7.8430   -3.1310    3.3560 ha        1 0IU      0.131500
     61 HE2        -4.5170   -5.4390    1.8440 ha        1 0IU      0.131500
     62 HZ         -6.6060   -5.2930    3.2040 ha        1 0IU      0.130000
     63 HA         -0.2070   -0.8600   -1.0720 hc        1 0IU      0.096700
     64 HN2        -1.1920    0.8940    1.2530 hc        1 0IU      0.079200
     65 HN3        -0.4560   -0.7380    1.5530 hc        1 0IU      0.079200
     66 HB1        -1.7850    1.2970   -1.1900 hc        1 0IU      0.081700
     67 HB2        -0.2690    2.2170   -0.8150 hc        1 0IU      0.081700
     68 HD21       -2.1930    1.7320   -3.6340 h4        1 0IU      0.188000
     69 HNZ1        2.2130    0.1510   -5.9200 hn        1 0IU      0.403300
     70 HNZ2        3.1160    0.5760   -4.5900 hn        1 0IU      0.403300
     71 H121        5.5940    0.3320   -0.9890 h1        1 0IU      0.067700
     72 H2          3.6940    0.0340    0.9340 h1        1 0IU      0.100700
     73 H31         4.3600   -2.0580   -1.2770 hc        1 0IU      0.047200
     74 H32         5.4440   -1.5460    0.0790 hc        1 0IU      0.047200
     75 H1'         2.6510   -2.7990    0.5270 hc        1 0IU      0.056700
     76 H2'1        4.1030   -4.3560   -0.7460 hc        1 0IU      0.040700
     77 H2'2        5.4590   -4.0890    0.4220 hc        1 0IU      0.040700
     78 H3'1        2.6840   -5.3170    1.0340 hc        1 0IU      0.038700
     79 H3'2        4.2650   -6.1900    0.9540 hc        1 0IU      0.038700
     80 H4'1        3.5480   -5.6940    3.3140 hc        1 0IU      0.037200
     81 H4'2        5.1280   -4.9250    2.8890 hc        1 0IU      0.037200
     82 H5'1        2.3500   -3.5650    2.9620 hc        1 0IU      0.038700
     83 H5'2        3.7180   -3.3150    4.1180 hc        1 0IU      0.038700
     84 H6'1        5.1290   -2.3590    2.3270 hc        1 0IU      0.040700
     85 H6'2        3.5540   -1.4750    2.4290 hc        1 0IU      0.040700
     86 HN22        2.1050   -0.8950   -1.3930 hn        1 0IU      0.322500
     87 HO1         3.3230    1.2350   -2.3770 ho        1 0IU      0.420000
     88 H122        3.4220    2.3080    0.0420 h1        1 0IU      0.109700
     89 H211        6.0920    2.9290   -1.4450 hc        1 0IU      0.049700
     90 H221        4.4520    3.1460   -2.1700 hc        1 0IU      0.049700
     91 H3          5.2180    4.4530    0.5110 hc        1 0IU      0.061700
     92 H41         5.6650    5.5690   -2.3470 hc        1 0IU      0.033867
     93 H42         5.8150    6.5120   -0.8070 hc        1 0IU      0.033867
     94 H43         6.9450    5.1350   -1.1400 hc        1 0IU      0.033867
     95 H51         3.4660    6.0910   -0.1620 hc        1 0IU      0.033867
     96 H52         3.1940    5.1990   -1.7150 hc        1 0IU      0.033867
     97 H53         2.8050    4.4040   -0.1320 hc        1 0IU      0.033867
     98 HO11        6.1400    1.9530    0.7120 ho        1 0IU      0.391000
@<TRIPOS>BOND
     1    1    5 1   
     2    1   46 1   
     3    1   47 1   
     4    1   48 1   
     5    2    5 1   
     6    2   49 1   
     7    2   50 1   
     8    2   51 1   
     9    3    4 2   
    10    3    5 1   
    11    3    9 1   
    12    6    7 1   
    13    6    9 1   
    14    6   10 1   
    15    7    8 2   
    16    7   21 1   
    17    9   52 1   
    18    9   53 1   
    19   10   11 1   
    20   10   12 1   
    21   10   54 1   
    22   11   55 1   
    23   11   56 1   
    24   11   57 1   
    25   12   13 ar  
    26   12   14 ar  
    27   13   15 ar  
    28   13   58 1   
    29   14   16 ar  
    30   14   59 1   
    31   15   17 ar  
    32   15   60 1   
    33   16   17 ar  
    34   16   61 1   
    35   17   62 1   
    36   18   19 2   
    37   18   20 1   
    38   18   38 1   
    39   20   21 1   
    40   20   22 1   
    41   20   63 1   
    42   21   64 1   
    43   21   65 1   
    44   22   23 1   
    45   22   66 1   
    46   22   67 1   
    47   23   24 2   
    48   23   27 1   
    49   24   25 1   
    50   24   68 1   
    51   25   26 1   
    52   26   27 2   
    53   26   28 1   
    54   28   69 1   
    55   28   70 1   
    56   29   30 1   
    57   29   39 1   
    58   29   40 1   
    59   29   71 1   
    60   30   31 1   
    61   30   38 1   
    62   30   72 1   
    63   31   32 1   
    64   31   73 1   
    65   31   74 1   
    66   32   33 1   
    67   32   37 1   
    68   32   75 1   
    69   33   34 1   
    70   33   76 1   
    71   33   77 1   
    72   34   35 1   
    73   34   78 1   
    74   34   79 1   
    75   35   36 1   
    76   35   80 1   
    77   35   81 1   
    78   36   37 1   
    79   36   82 1   
    80   36   83 1   
    81   37   84 1   
    82   37   85 1   
    83   38   86 1   
    84   39   87 1   
    85   40   41 1   
    86   40   45 1   
    87   40   88 1   
    88   41   42 1   
    89   41   89 1   
    90   41   90 1   
    91   42   43 1   
    92   42   44 1   
    93   42   91 1   
    94   43   92 1   
    95   43   93 1   
    96   43   94 1   
    97   44   95 1   
    98   44   96 1   
    99   44   97 1   
   100   45   98 1   
@<TRIPOS>SUBSTRUCTURE
     1 0IU         1 TEMP              0 ****  ****    0 ROOT
