@<TRIPOS>MOLECULE
0IU
   98    94     1     0     0
SMALL
bcc


@<TRIPOS>ATOM
      1 C1         -3.1870   -8.4020    1.1120 c3        1 0IU     -0.075000
      2 C2         -4.2460   -6.4800    2.2300 c3        1 0IU     -0.075000
      3 C          -2.3960   -6.0780    0.6160 c1        1 0IU      0.286000
      4 O          -1.8420   -6.4480   -0.4070 o         1 0IU     -0.374000
      5 N          -3.2760   -6.9900    1.3390 n2        1 0IU     -0.340000
      6 N1         -0.9770   -4.0900    0.5980 n         1 0IU     -0.313000
      7 C3         -0.9850   -2.9380   -0.3050 c2        1 0IU      0.324000
      8 O1         -0.4400   -3.0070   -1.3650 o         1 0IU     -0.386000
      9 CA         -2.2310   -4.6280    1.0970 c3        1 0IU     -0.042000
     10 CB          0.2870   -4.7700    0.9080 c3        1 0IU      0.059000
     11 CG2         1.4280   -3.9100    0.4970 c3        1 0IU     -0.226000
     12 CG          0.3680   -5.0370    2.3930 c2        1 0IU     -0.096000
     13 CD1         0.7270   -6.2990    2.8510 c2        1 0IU     -0.101000
     14 CD2         0.1700   -4.0000    3.2980 c1        1 0IU     -0.127000
     15 CE1         0.8880   -6.5270    4.2150 c1        1 0IU     -0.130000
     16 CE2         0.3310   -4.2260    4.6660 c1        1 0IU     -0.131000
     17 CZ          0.6900   -5.4880    5.1230 c1        1 0IU     -0.131000
     18 C4         -0.9510    0.6910   -0.3580 c1        1 0IU      0.303000
     19 O2         -1.1150    0.8970    0.8010 o         1 0IU     -0.394000
     20 CA1        -1.5320   -0.5530   -0.9950 c2        1 0IU     -0.118000
     21 CN         -1.7490   -1.6380    0.0950 c3        1 0IU     -0.166000
     22 CB1        -2.8560   -0.2210   -1.6450 c3        1 0IU     -0.091000
     23 CG1        -2.8860   -0.8050   -3.1160 c2        1 0IU     -0.059000
     24 CD21       -3.8750   -1.7280   -3.6380 c1        1 0IU     -0.471000
     25 SE2        -3.6320   -1.8780   -5.1490 ss        1 0IU      0.481000
     26 CE11       -2.4240   -0.9840   -5.5200 c1        1 0IU     -0.172000
     27 ND1        -1.9670   -0.3360   -4.3150 n2        1 0IU     -0.161000
     28 NZ         -1.9150   -0.7420   -6.8810 n2        1 0IU     -0.281000
     29 C11        -0.4620    4.0500   -1.0410 c3        1 0IU     -0.025000
     30 C21         0.3250    2.8550   -0.5770 c3        1 0IU      0.019000
     31 C31         1.7990    3.0160   -0.9870 c3        1 0IU     -0.154000
     32 C1'         2.7040    2.5650    0.1740 c3        1 0IU     -0.097000
     33 C2'         3.7270    1.5670   -0.3560 c3        1 0IU     -0.156500
     34 C3'         4.7780    1.2050    0.6810 c3        1 0IU     -0.154500
     35 C4'         5.4270    2.4300    1.2970 c3        1 0IU     -0.155000
     36 C5'         4.4000    3.4280    1.8280 c3        1 0IU     -0.154500
     37 C6'         3.3490    3.7850    0.7890 c3        1 0IU     -0.156500
     38 N2         -0.2130    1.6590   -1.1790 n3        1 0IU     -0.332000
     39 O11        -1.8240    3.7810   -0.9230 oh        1 0IU     -0.330000
     40 C12        -0.1010    5.2760   -0.1740 c3        1 0IU     -0.006000
     41 C22        -0.5120    6.5770   -0.9180 c3        1 0IU     -0.200000
     42 C32         0.6630    7.5760   -0.8980 c3        1 0IU     -0.109000
     43 C41         1.0290    7.9580   -2.3180 c3        1 0IU     -0.212500
     44 C5          0.2560    8.8230   -0.1260 c3        1 0IU     -0.212500
     45 O12         1.2370    5.2880    0.0590 oh        1 0IU     -0.313000
     46 H11        -2.8110   -8.5650    0.2380 h1        1 0IU      0.081167
     47 H12        -2.6040   -8.8150    1.8070 h1        1 0IU      0.081167
     48 H13        -4.1030   -8.8060    1.1630 h1        1 0IU      0.081167
     49 H21        -4.7360   -7.2120    2.6240 h1        1 0IU      0.081167
     50 H22        -4.8590   -5.9050    1.7470 h1        1 0IU      0.081167
     51 H23        -3.8110   -5.9750    2.9240 h1        1 0IU      0.081167
     52 HA2        -2.2290   -4.6080    2.0580 h1        1 0IU      0.129500
     53 HA3        -2.9720   -4.0880    0.7620 h1        1 0IU      0.129500
     54 HB          0.3280   -5.6310    0.4140 h1        1 0IU      0.138000
     55 HG21        2.2780   -4.3010    0.8380 hc        1 0IU      0.083000
     56 HG22        1.3110   -3.0150    0.8680 hc        1 0IU      0.083000
     57 HG23        1.4630   -3.8560   -0.4820 hc        1 0IU      0.083000
     58 HD1         0.8660   -7.0270    2.2150 ha        1 0IU      0.146000
     59 HD2        -0.0780   -3.1290    2.9820 ha        1 0IU      0.129000
     60 HE1         1.1420   -7.4200    4.5380 ha        1 0IU      0.133000
     61 HE2         0.1910   -3.4960    5.3040 ha        1 0IU      0.129500
     62 HZ          0.8050   -5.6510    6.1010 ha        1 0IU      0.129500
     63 HA         -0.9140   -0.8910   -1.6720 ha        1 0IU      0.146000
     64 HN2        -1.4050   -1.3060    0.9640 hc        1 0IU      0.127500
     65 HN3        -2.7130   -1.8340    0.1760 hc        1 0IU      0.127500
     66 HB1        -2.9720    0.7590   -1.6770 hc        1 0IU      0.110000
     67 HB2        -3.5900   -0.6220   -1.1190 hc        1 0IU      0.110000
     68 HD21       -4.5670   -2.1710   -3.1250 DU        1 0IU      0.185000
     69 HNZ1       -1.2920   -0.0850   -7.0280 hn        1 0IU      0.188000
     70 HNZ2       -2.2430   -1.2420   -7.5980 hn        1 0IU      0.188000
     71 H121       -0.2460    4.2400   -1.9840 h1        1 0IU      0.076000
     72 H2          0.2630    2.7840    0.4060 h1        1 0IU      0.145000
     73 H31         1.9830    3.9680   -1.1990 hc        1 0IU      0.080000
     74 H32         1.9790    2.4700   -1.7690 hc        1 0IU      0.080000
     75 H1'         2.1570    2.1250    0.8480 hc        1 0IU      0.101000
     76 H2'1        3.2550    0.7430   -0.6330 hc        1 0IU      0.083000
     77 H2'2        4.1750    1.9580   -1.1410 hc        1 0IU      0.083000
     78 H3'1        4.3590    0.6820    1.3850 hc        1 0IU      0.077500
     79 H3'2        5.4800    0.6540    0.2470 hc        1 0IU      0.077500
     80 H4'1        6.0140    2.1440    2.0450 hc        1 0IU      0.076000
     81 H4'2        5.9750    2.8740    0.6140 hc        1 0IU      0.076000
     82 H5'1        3.9550    3.0410    2.6030 hc        1 0IU      0.077500
     83 H5'2        4.8590    4.2360    2.1010 hc        1 0IU      0.077500
     84 H6'1        3.7640    4.3010    0.0930 hc        1 0IU      0.083000
     85 H6'2        2.6690    4.3180    1.2060 hc        1 0IU      0.083000
     86 HN22       -0.0560    1.4840   -2.0450 hn        1 0IU      0.226000
     87 HO1        -2.2950    4.5250   -1.1140 ho        1 0IU      0.209000
     88 H122       -0.5840    5.2230    0.6880 h1        1 0IU      0.133000
     89 H211       -0.7390    6.3670   -1.8300 hc        1 0IU      0.097500
     90 H221       -1.2830    6.9740   -0.4770 hc        1 0IU      0.097500
     91 H3          1.4350    7.1620   -0.4640 hc        1 0IU      0.078000
     92 H41         1.8840    8.4310   -2.3180 hc        1 0IU      0.077000
     93 H42         1.1030    7.1470   -2.8660 hc        1 0IU      0.077000
     94 H43         0.3320    8.5420   -2.6900 hc        1 0IU      0.077000
     95 H51         0.5100    8.7250    0.8120 hc        1 0IU      0.077000
     96 H52         0.7150    9.6170   -0.5120 hc        1 0IU      0.077000
     97 H53        -0.7210    8.9450   -0.1910 hc        1 0IU      0.077000
     98 HO11        1.5880    5.9870   -0.3080 ho        1 0IU      0.197000
@<TRIPOS>BOND
     1    1    5 1   
     2    1   46 1   
     3    1   47 1   
     4    1   48 1   
     5    2    5 1   
     6    2   49 1   
     7    2   50 1   
     8    2   51 1   
     9    3    4 1   
    10    3    9 1   
    11    6    7 1   
    12    6    9 1   
    13    6   10 1   
    14    7    8 1   
    15    7   21 1   
    16    9   52 1   
    17    9   53 1   
    18   10   11 1   
    19   10   12 1   
    20   10   54 1   
    21   11   55 1   
    22   11   56 1   
    23   11   57 1   
    24   12   13 1   
    25   12   14 1   
    26   13   15 1   
    27   13   58 1   
    28   14   59 1   
    29   15   60 1   
    30   16   17 1   
    31   16   61 1   
    32   17   62 1   
    33   18   19 1   
    34   18   38 1   
    35   20   21 1   
    36   20   22 1   
    37   20   63 1   
    38   21   64 1   
    39   21   65 1   
    40   22   23 1   
    41   22   66 1   
    42   22   67 1   
    43   23   24 1   
    44   23   27 1   
    45   24   25 1   
    46   25   26 1   
    47   26   27 1   
    48   28   69 1   
    49   28   70 1   
    50   29   30 1   
    51   29   39 1   
    52   29   40 1   
    53   29   71 1   
    54   30   31 1   
    55   30   38 1   
    56   30   72 1   
    57   31   32 1   
    58   31   73 1   
    59   31   74 1   
    60   32   33 1   
    61   32   37 1   
    62   32   75 1   
    63   33   34 1   
    64   33   76 1   
    65   33   77 1   
    66   34   35 1   
    67   34   78 1   
    68   34   79 1   
    69   35   36 1   
    70   35   80 1   
    71   35   81 1   
    72   36   37 1   
    73   36   82 1   
    74   36   83 1   
    75   37   84 1   
    76   37   85 1   
    77   38   86 1   
    78   39   87 1   
    79   40   41 1   
    80   40   45 1   
    81   40   88 1   
    82   41   42 1   
    83   41   89 1   
    84   41   90 1   
    85   42   43 1   
    86   42   44 1   
    87   42   91 1   
    88   43   92 1   
    89   43   93 1   
    90   43   94 1   
    91   44   95 1   
    92   44   96 1   
    93   44   97 1   
    94   45   98 1   
@<TRIPOS>SUBSTRUCTURE
     1 0IU         1 TEMP              0 ****  ****    0 ROOT
