@<TRIPOS>MOLECULE
0IV
   69    71     1     0     0
SMALL
bcc


@<TRIPOS>ATOM
      1 C           3.4230   -0.3330   -1.1530 c3        1 0IV     -0.268300
      2 C1          4.0740   -1.6530   -1.3200 ca        1 0IV     -0.068300
      3 C2          3.4220   -2.8220   -0.9100 ca        1 0IV     -0.115500
      4 C3          4.0280   -4.0640   -1.0960 ca        1 0IV     -0.128000
      5 C4          5.2840   -4.1490   -1.6950 ca        1 0IV     -0.123000
      6 C5          5.9370   -2.9870   -2.1060 ca        1 0IV     -0.128000
      7 C6          5.3370   -1.7430   -1.9230 ca        1 0IV     -0.115500
      8 S           4.2260    0.6800   -0.0110 s6        1 0IV      1.449900
      9 O1S         4.2680    0.0640    1.2530 o         1 0IV     -0.646300
     10 O2S         5.4510    1.0930   -0.5810 o         1 0IV     -0.646300
     11 N           3.2500    1.9830    0.0550 n3        1 0IV     -0.901100
     12 CA          2.2170    2.1880    1.0290 c3        1 0IV      0.187500
     13 CB          2.3050    3.5650    1.7030 c3        1 0IV     -0.090400
     14 CG          1.0710    3.8040    2.5380 c3        1 0IV     -0.097400
     15 CD         -0.1650    3.8570    1.6480 c3        1 0IV      0.092000
     16 C7          0.8130    1.9250    0.4280 c         1 0IV      0.678500
     17 O           0.6240    0.9060   -0.2750 o         1 0IV     -0.676500
     18 N1         -0.2340    2.7950    0.6690 n         1 0IV     -0.458800
     19 CA1        -1.5280    2.5450    0.0860 c3        1 0IV      0.021000
     20 C8         -2.4390    1.6320    0.9250 c         1 0IV      0.647100
     21 O1         -3.5280    2.0600    1.3590 o         1 0IV     -0.626100
     22 C21        -5.2170   -2.6490   -2.0090 c3        1 0IV     -0.107400
     23 C31        -6.4740   -1.8890   -1.5880 c3        1 0IV      0.171800
     24 N2         -2.0030    0.3490    1.1480 n         1 0IV     -0.546900
     25 CA2        -2.7600   -0.6020    1.9180 c3        1 0IV     -0.015300
     26 C9         -2.0390   -1.0830    3.1740 c         1 0IV      0.549900
     27 O2         -0.8960   -0.7670    3.4960 o         1 0IV     -0.515100
     28 CB1        -3.1700   -1.8590    1.1290 c3        1 0IV     -0.081400
     29 NE         -6.2410   -0.6560   -0.8490 nh        1 0IV     -0.695600
     30 C11        -4.3140   -2.8820   -0.8180 c3        1 0IV     -0.073400
     31 CG1        -3.9760   -1.5680   -0.1250 c3        1 0IV     -0.092700
     32 CD1        -5.2580   -0.7930    0.2130 c3        1 0IV      0.176800
     33 NH1        -4.8500    0.8420   -2.1480 n2        1 0IV     -0.856100
     34 NH2        -7.2600    1.1290   -2.1250 nh        1 0IV     -0.925800
     35 H1          3.3870    0.1630   -2.1620 h1        1 0IV      0.130700
     36 H2A         2.3410   -0.4840   -0.8710 h1        1 0IV      0.130700
     37 H2          2.4310   -2.7610   -0.4360 ha        1 0IV      0.144000
     38 H3          3.5120   -4.9780   -0.7670 ha        1 0IV      0.133000
     39 H4          5.7600   -5.1290   -1.8410 ha        1 0IV      0.132000
     40 H5          6.9300   -3.0490   -2.5750 ha        1 0IV      0.133000
     41 H6          5.8580   -0.8240   -2.2350 ha        1 0IV      0.144000
     42 H           3.3390    2.7250   -0.5970 hn        1 0IV      0.448800
     43 HA          2.3300    1.3950    1.8390 h1        1 0IV      0.112700
     44 HB2         3.2210    3.5980    2.3480 hc        1 0IV      0.061200
     45 HB3         2.4020    4.3760    0.9340 hc        1 0IV      0.061200
     46 HG2         0.9620    2.9940    3.3070 hc        1 0IV      0.066200
     47 HG3         1.1570    4.7800    3.0820 hc        1 0IV      0.066200
     48 HD1        -1.0890    3.8130    2.2960 h1        1 0IV      0.053700
     49 HD2        -0.1800    4.8400    1.0930 h1        1 0IV      0.053700
     50 HA2        -2.0690    3.5270   -0.0340 h1        1 0IV      0.092700
     51 HA3        -1.3930    2.0730   -0.9300 h1        1 0IV      0.092700
     52 H22        -4.6670   -2.0670   -2.7940 hc        1 0IV      0.053700
     53 H31        -7.0960   -1.6650   -2.4980 h1        1 0IV      0.055700
     54 H32        -7.0810   -2.5480   -0.9020 h1        1 0IV      0.055700
     55 HN2        -1.1410    0.0430    0.7540 hn        1 0IV      0.342500
     56 HA1        -3.7050   -0.0830    2.2780 h1        1 0IV      0.105700
     57 HB1        -2.2510   -2.4330    0.8390 hc        1 0IV      0.049200
     58 HB21       -3.7740   -2.5070    1.8180 hc        1 0IV      0.049200
     59 H11        -4.8220   -3.5700   -0.0920 hc        1 0IV      0.038700
     60 H12        -3.3690   -3.3830   -1.1520 hc        1 0IV      0.038700
     61 HG         -3.3540   -0.9480   -0.8300 hc        1 0IV      0.085700
     62 HD11       -4.9770    0.2350    0.5830 h1        1 0IV      0.062700
     63 HD21       -5.7940   -1.3360    1.0440 h1        1 0IV      0.062700
     64 HN1        -4.8070    1.6630   -2.7120 hn        1 0IV      0.389400
     65 HN21       -8.0680    0.8340   -1.6210 hn        1 0IV      0.392800
     66 HN22       -7.1930    2.1210   -2.1820 hn        1 0IV      0.392800
     67 H99        -2.6590   -1.7640    3.8010 h4        1 0IV      0.000200
     68 H21        -5.5210   -3.6290   -2.4580 hc        1 0IV      0.053700
     69 CZ         -6.0380    0.4960   -1.7330 c2        1 0IV      0.740100
@<TRIPOS>BOND
     1    1    2 1   
     2    1    8 1   
     3    1   35 1   
     4    1   36 1   
     5    2    3 ar  
     6    2    7 ar  
     7    3    4 ar  
     8    3   37 1   
     9    4    5 ar  
    10    4   38 1   
    11    5    6 ar  
    12    5   39 1   
    13    6    7 ar  
    14    6   40 1   
    15    7   41 1   
    16    8    9 2   
    17    8   10 2   
    18    8   11 1   
    19   11   12 1   
    20   11   42 1   
    21   12   13 1   
    22   12   16 1   
    23   12   43 1   
    24   13   14 1   
    25   13   44 1   
    26   13   45 1   
    27   14   15 1   
    28   14   46 1   
    29   14   47 1   
    30   15   18 1   
    31   15   48 1   
    32   15   49 1   
    33   16   17 2   
    34   16   18 1   
    35   18   19 1   
    36   19   20 1   
    37   19   50 1   
    38   19   51 1   
    39   20   21 2   
    40   20   24 1   
    41   22   23 1   
    42   22   30 1   
    43   22   52 1   
    44   22   68 1   
    45   23   29 1   
    46   23   53 1   
    47   23   54 1   
    48   24   25 1   
    49   24   55 1   
    50   25   26 1   
    51   25   28 1   
    52   25   56 1   
    53   26   27 2   
    54   26   67 1   
    55   28   31 1   
    56   28   57 1   
    57   28   58 1   
    58   29   32 1   
    59   29   69 1   
    60   30   31 1   
    61   30   59 1   
    62   30   60 1   
    63   31   32 1   
    64   31   61 1   
    65   32   62 1   
    66   32   63 1   
    67   33   64 1   
    68   33   69 2   
    69   34   65 1   
    70   34   66 1   
    71   34   69 1   
@<TRIPOS>SUBSTRUCTURE
     1 0IV         1 TEMP              0 ****  ****    0 ROOT
