@<TRIPOS>MOLECULE
0IV
   69    66     1     0     0
SMALL
bcc


@<TRIPOS>ATOM
      1 C           1.1860    0.0380    6.9580 c3        1 0IV     -0.808000
      2 C1          1.9260    1.3680    7.3790 c2        1 0IV     -0.066000
      3 C2          2.7470    1.3790    8.4780 c2        1 0IV     -0.139000
      4 C3          3.3700    2.5770    8.8770 c1        1 0IV     -0.121000
      5 C4          3.1480    3.7690    8.1400 c1        1 0IV     -0.128000
      6 C5          2.3250    3.7570    7.0380 c1        1 0IV     -0.128000
      7 C6          1.7070    2.5720    6.6420 c1        1 0IV     -0.123000
      8 S           1.9980   -0.6590    5.5220 s4        1 0IV      2.030800
      9 O1S         3.0520    0.1860    5.0680 o         1 0IV     -0.532900
     10 O2S         2.7420   -1.8830    5.8630 o         1 0IV     -0.532900
     11 N           0.8940   -0.9410    4.3220 n2        1 0IV     -0.880000
     12 CA          0.7070   -2.2840    3.8120 c3        1 0IV      0.038000
     13 CB         -0.6740   -2.7190    3.9520 c3        1 0IV     -0.176000
     14 CG         -1.6020   -2.0440    2.9830 c3        1 0IV     -0.171000
     15 CD         -1.1670   -2.1790    1.5930 c3        1 0IV     -0.029000
     16 C7          1.1650   -2.4000    2.2520 c2        1 0IV      0.283000
     17 O           2.3590   -2.4810    1.9650 o         1 0IV     -0.367000
     18 N1          0.2570   -1.7800    1.3560 n         1 0IV     -0.310000
     19 CA1         0.6960   -1.4030   -0.0040 c3        1 0IV     -0.054000
     20 C8         -0.3130   -1.9670   -1.0510 c2        1 0IV      0.275000
     21 O1         -1.2200   -2.6560   -0.6930 o         1 0IV     -0.364000
     22 C21        -2.0690    2.1300   -4.6750 c3        1 0IV     -0.155000
     23 C31        -1.5600    2.5740   -6.0450 c3        1 0IV     -0.062000
     24 N2         -0.0880   -1.7420   -2.4760 n         1 0IV     -0.370000
     25 CA2        -1.2080   -1.4650   -3.3520 c3        1 0IV     -0.052000
     26 C9         -1.7640   -2.7730   -3.8900 c2        1 0IV      0.178000
     27 O2         -2.8340   -3.2240   -3.4430 o         1 0IV     -0.279000
     28 CB1        -0.7480   -0.6040   -4.4940 c3        1 0IV     -0.166000
     29 CZ          0.2030    1.9000   -7.7670 c1        1 0IV      0.159000
     30 NE         -0.7680    1.5300   -6.7170 n2        1 0IV     -0.284000
     31 C11        -2.7780    0.8140   -4.7300 c3        1 0IV     -0.157000
     32 CG1        -1.9770   -0.2250   -5.4030 c3        1 0IV     -0.109000
     33 CD1        -1.4570    0.2410   -6.7820 c3        1 0IV     -0.048000
     34 NH1         0.2450    1.2170   -8.9030 n1        1 0IV     -0.340000
     35 NH2         1.0920    2.9970   -7.5600 n3        1 0IV     -0.320000
     36 H1          1.2180   -0.6090    7.7060 h1        1 0IV      0.162000
     37 H2A         0.2740    0.2340    6.7450 h1        1 0IV      0.162000
     38 H2          2.9020    0.5410    8.9930 ha        1 0IV      0.161000
     39 H3          3.9320    2.5880    9.6300 ha        1 0IV      0.140000
     40 H4          3.5690    4.5800    8.4080 ha        1 0IV      0.136000
     41 H5          2.1720    4.5890    6.5250 ha        1 0IV      0.136000
     42 H6          1.1100    2.5660    5.8410 ha        1 0IV      0.132000
     43 H           0.3480   -0.2590    4.0310 hn        1 0IV      0.251000
     44 HA          1.3210   -2.8090    4.4140 h1        1 0IV      0.153000
     45 HB2        -0.7130   -3.6790    3.8060 hc        1 0IV      0.102500
     46 HB3        -0.9760   -2.5250    4.8670 hc        1 0IV      0.102500
     47 HG2        -1.6520   -1.1000    3.2040 hc        1 0IV      0.098500
     48 HG3        -2.4770   -2.4300    3.0730 hc        1 0IV      0.098500
     49 HD1        -1.7170   -1.6460    1.0580 h1        1 0IV      0.094000
     50 HD2        -1.2790   -3.1110    1.3230 h1        1 0IV      0.094000
     51 HA2         1.5420   -1.7550   -0.1690 h1        1 0IV      0.131500
     52 HA3         0.7300   -0.4400   -0.0770 h1        1 0IV      0.131500
     53 H21        -2.7090    2.8310   -4.3210 hc        1 0IV      0.089500
     54 H22        -1.3140    2.0590   -4.0670 hc        1 0IV      0.089500
     55 H31        -2.3430    2.8070   -6.6210 h1        1 0IV      0.076500
     56 H32        -0.9900    3.3880   -5.9300 h1        1 0IV      0.076500
     57 HN2         0.7700   -1.7490   -2.8160 hn        1 0IV      0.249000
     58 HA1        -1.8870   -1.0110   -2.8650 h1        1 0IV      0.153000
     59 HB1        -0.3260    0.2370   -4.1310 hc        1 0IV      0.097000
     60 HB21       -0.0820   -1.1050   -5.0340 hc        1 0IV      0.097000
     61 H11        -2.9730    0.5200   -3.8160 hc        1 0IV      0.089500
     62 H12        -3.6100    0.9230   -5.2070 hc        1 0IV      0.089500
     63 HG         -2.5560   -1.0480   -5.5330 hc        1 0IV      0.109000
     64 HD11       -0.8130   -0.4550   -7.1420 h1        1 0IV      0.085500
     65 HD21       -2.2490    0.3220   -7.4210 h1        1 0IV      0.085500
     66 HN1        -0.3260    0.5150   -9.0370 DU        1 0IV      0.150000
     67 HN21        2.0120    2.8440   -7.4800 hn        1 0IV      0.194500
     68 HN22        0.7770    3.8350   -7.5700 hn        1 0IV      0.194500
     69 H99        -1.2800   -3.2610   -4.6060 h4        1 0IV      0.096000
@<TRIPOS>BOND
     1    1    2 1   
     2    1    8 1   
     3    1   36 1   
     4    1   37 1   
     5    2    3 1   
     6    2    7 1   
     7    3    4 1   
     8    3   38 1   
     9    4   39 1   
    10    5    6 1   
    11    5   40 1   
    12    6   41 1   
    13    7   42 1   
    14    8    9 1   
    15    8   10 1   
    16   11   12 1   
    17   11   43 1   
    18   12   13 1   
    19   12   16 1   
    20   12   44 1   
    21   13   14 1   
    22   13   45 1   
    23   13   46 1   
    24   14   15 1   
    25   14   47 1   
    26   14   48 1   
    27   15   18 1   
    28   15   49 1   
    29   15   50 1   
    30   16   17 1   
    31   16   18 1   
    32   18   19 1   
    33   19   20 1   
    34   19   51 1   
    35   19   52 1   
    36   20   21 1   
    37   20   24 1   
    38   22   23 1   
    39   22   31 1   
    40   22   53 1   
    41   22   54 1   
    42   23   30 1   
    43   23   55 1   
    44   23   56 1   
    45   24   25 1   
    46   24   57 1   
    47   25   26 1   
    48   25   28 1   
    49   25   58 1   
    50   26   27 1   
    51   26   69 1   
    52   28   32 1   
    53   28   59 1   
    54   28   60 1   
    55   29   34 1   
    56   29   35 1   
    57   30   33 1   
    58   31   32 1   
    59   31   61 1   
    60   31   62 1   
    61   32   33 1   
    62   32   63 1   
    63   33   64 1   
    64   33   65 1   
    65   35   67 1   
    66   35   68 1   
@<TRIPOS>SUBSTRUCTURE
     1 0IV         1 TEMP              0 ****  ****    0 ROOT
