@<TRIPOS>MOLECULE
0IW
   81    84     1     0     0
SMALL
bcc


@<TRIPOS>ATOM
      1 N1          4.0770    0.9480    0.7920 n         1 0IW     -0.416800
      2 C           2.6520    0.9830    0.8080 c         1 0IW      0.735100
      3 O           2.0070    0.4710    1.7600 o         1 0IW     -0.658100
      4 C2          4.7810    0.7830   -0.4660 c3        1 0IW      0.065000
      5 C3          5.0640   -0.6890   -0.8420 c3        1 0IW      0.136800
      6 N4          5.7080   -1.4250    0.2360 n3        1 0IW     -0.732600
      7 CM          5.9570   -2.8070   -0.1060 c3        1 0IW      0.151100
      8 C5          5.0070   -1.2840    1.5060 c3        1 0IW      0.136800
      9 C6          4.7010    0.1840    1.8630 c3        1 0IW      0.065000
     10 N           1.9550    1.6320   -0.2250 n         1 0IW     -0.536900
     11 CA          0.5630    1.9720   -0.0150 c3        1 0IW      0.034700
     12 C1         -0.3640    0.8610   -0.5780 c         1 0IW      0.654100
     13 O1         -1.1480    1.0990   -1.5210 o         1 0IW     -0.632100
     14 CB          0.1650    3.3020   -0.6800 c3        1 0IW     -0.046100
     15 CG          0.9970    4.4360   -0.2010 ca        1 0IW     -0.095300
     16 CD1         2.0150    4.9560   -1.0090 ca        1 0IW     -0.127500
     17 CD2         0.7620    5.0050    1.0560 ca        1 0IW     -0.127500
     18 CE1         2.7870    6.0290   -0.5650 ca        1 0IW     -0.125000
     19 CE2         1.5350    6.0760    1.4990 ca        1 0IW     -0.125000
     20 CZ          2.5490    6.5900    0.6900 ca        1 0IW     -0.126000
     21 C21        -2.3450   -1.7270    0.3980 c3        1 0IW     -0.068400
     22 C31        -1.0600   -1.5040   -0.4210 c3        1 0IW      0.106700
     23 N2         -0.2860   -0.3670    0.0250 n         1 0IW     -0.556900
     24 C4         -0.2470   -2.8100   -0.3850 c3        1 0IW     -0.089400
     25 C51         0.8790   -2.8040   -1.4000 c3        1 0IW     -0.037100
     26 C1'         1.6320   -4.0900   -1.3830 ca        1 0IW     -0.080300
     27 C2'         1.4420   -5.0400   -2.3920 ca        1 0IW     -0.129000
     28 C3'         2.1580   -6.2360   -2.3740 ca        1 0IW     -0.128500
     29 C4'         3.0690   -6.4930   -1.3500 ca        1 0IW     -0.132000
     30 C5'         3.2630   -5.5480   -0.3420 ca        1 0IW     -0.128500
     31 C6'         2.5480   -4.3530   -0.3570 ca        1 0IW     -0.129000
     32 C12        -6.8760    2.9590   -0.2620 ca        1 0IW     -0.065000
     33 C22        -6.5690    2.0520   -1.2780 ca        1 0IW     -0.156000
     34 C32        -5.9430    0.8490   -0.9660 ca        1 0IW     -0.016000
     35 C41        -5.6100    0.5320    0.3570 ca        1 0IW     -0.384500
     36 S1         -4.8770   -0.9280    0.7320 sy        1 0IW      1.383300
     37 O11        -5.3110   -1.9290   -0.1520 o         1 0IW     -0.658300
     38 O2         -5.0050   -1.1880    2.1060 o         1 0IW     -0.658300
     39 C52        -5.9320    1.4500    1.3660 ca        1 0IW     -0.016000
     40 C61        -6.5590    2.6550    1.0620 ca        1 0IW     -0.156000
     41 H21         4.2300    1.2530   -1.3230 h1        1 0IW      0.070700
     42 H22         5.7640    1.3250   -0.3500 h1        1 0IW      0.070700
     43 H31         4.0970   -1.1750   -1.1670 h1        1 0IW      0.042450
     44 H32         5.7640   -0.6910   -1.7240 h1        1 0IW      0.042450
     45 HM1         6.5440   -2.8430   -1.0610 h1        1 0IW      0.037033
     46 HM2         6.5680   -3.2710    0.7110 h1        1 0IW      0.037033
     47 HM3         5.0160   -3.4130   -0.2390 h1        1 0IW      0.037033
     48 H51         4.0400   -1.8680    1.5170 h1        1 0IW      0.042450
     49 H52         5.6730   -1.7040    2.3100 h1        1 0IW      0.042450
     50 H61         5.6650    0.7170    2.1040 h1        1 0IW      0.070700
     51 H62         4.0430    0.1940    2.7760 h1        1 0IW      0.070700
     52 H           2.4570    2.2690   -0.8040 hn        1 0IW      0.314500
     53 HA          0.3540    2.0540    1.0980 h1        1 0IW      0.086700
     54 HB2         0.2360    3.1980   -1.7970 hc        1 0IW      0.078200
     55 HB3        -0.9160    3.4830   -0.4390 hc        1 0IW      0.078200
     56 HD1         2.1990    4.5240   -2.0050 ha        1 0IW      0.132000
     57 HD2        -0.0380    4.6020    1.6950 ha        1 0IW      0.132000
     58 HE1         3.5830    6.4340   -1.2060 ha        1 0IW      0.134000
     59 HE2         1.3450    6.5170    2.4890 ha        1 0IW      0.134000
     60 HZ          3.1590    7.4360    1.0400 ha        1 0IW      0.134000
     61 H11        -2.8630    0.2360    1.1100 h1        1 0IW      0.123200
     62 H221       -3.1610   -0.0210   -0.6260 h1        1 0IW      0.123200
     63 H211       -2.0830   -1.9910    1.4560 hc        1 0IW      0.063200
     64 H24        -2.8810   -2.6060   -0.0560 hc        1 0IW      0.063200
     65 H3         -1.3690   -1.3030   -1.4930 h1        1 0IW      0.080700
     66 HN2         0.3180   -0.4940    0.8070 hn        1 0IW      0.340500
     67 H41         0.1670   -2.9840    0.6420 hc        1 0IW      0.055700
     68 H42        -0.9460   -3.6580   -0.6130 hc        1 0IW      0.055700
     69 H511        0.4570   -2.6190   -2.4240 hc        1 0IW      0.052700
     70 H521        1.5900   -1.9630   -1.1770 hc        1 0IW      0.052700
     71 H2'         0.7250   -4.8420   -3.2020 ha        1 0IW      0.132000
     72 H3'         2.0020   -6.9790   -3.1700 ha        1 0IW      0.131000
     73 H4'         3.6330   -7.4370   -1.3370 ha        1 0IW      0.131000
     74 H5'         3.9810   -5.7470    0.4680 ha        1 0IW      0.131000
     75 H6'         2.6990   -3.6100    0.4410 ha        1 0IW      0.132000
     76 H2         -6.8230    2.2860   -2.3220 ha        1 0IW      0.142000
     77 H33        -5.7120    0.1240   -1.7680 ha        1 0IW      0.155000
     78 H5         -5.6940    1.2000    2.4160 ha        1 0IW      0.155000
     79 H6         -6.8060    3.3640    1.8660 ha        1 0IW      0.142000
     80 C11        -3.2550   -0.5210    0.3790 c3        1 0IW     -0.320600
     81 H1         -7.3710    3.9120   -0.5050 ha        1 0IW      0.137000
@<TRIPOS>BOND
     1    1    2 1   
     2    1    4 1   
     3    1    9 1   
     4    2    3 2   
     5    2   10 1   
     6    4    5 1   
     7    4   41 1   
     8    4   42 1   
     9    5    6 1   
    10    5   43 1   
    11    5   44 1   
    12    6    7 1   
    13    6    8 1   
    14    7   45 1   
    15    7   46 1   
    16    7   47 1   
    17    8    9 1   
    18    8   48 1   
    19    8   49 1   
    20    9   50 1   
    21    9   51 1   
    22   10   11 1   
    23   10   52 1   
    24   11   12 1   
    25   11   14 1   
    26   11   53 1   
    27   12   13 2   
    28   12   23 1   
    29   14   15 1   
    30   14   54 1   
    31   14   55 1   
    32   15   16 ar  
    33   15   17 ar  
    34   16   18 ar  
    35   16   56 1   
    36   17   19 ar  
    37   17   57 1   
    38   18   20 ar  
    39   18   58 1   
    40   19   20 ar  
    41   19   59 1   
    42   20   60 1   
    43   21   22 1   
    44   21   63 1   
    45   21   64 1   
    46   21   80 1   
    47   22   23 1   
    48   22   24 1   
    49   22   65 1   
    50   23   66 1   
    51   24   25 1   
    52   24   67 1   
    53   24   68 1   
    54   25   26 1   
    55   25   69 1   
    56   25   70 1   
    57   26   27 ar  
    58   26   31 ar  
    59   27   28 ar  
    60   27   71 1   
    61   28   29 ar  
    62   28   72 1   
    63   29   30 ar  
    64   29   73 1   
    65   30   31 ar  
    66   30   74 1   
    67   31   75 1   
    68   32   33 ar  
    69   32   40 ar  
    70   32   81 1   
    71   33   34 ar  
    72   33   76 1   
    73   34   35 ar  
    74   34   77 1   
    75   35   36 1   
    76   35   39 ar  
    77   36   37 2   
    78   36   38 2   
    79   36   80 1   
    80   39   40 ar  
    81   39   78 1   
    82   40   79 1   
    83   61   80 1   
    84   62   80 1   
@<TRIPOS>SUBSTRUCTURE
     1 0IW         1 TEMP              0 ****  ****    0 ROOT
