@<TRIPOS>MOLECULE
0IW
   81    77     1     0     0
SMALL
bcc


@<TRIPOS>ATOM
      1 N1          2.2350    3.1020    2.8960 n         1 0IW     -0.274000
      2 C           1.4160    3.1420    1.6980 c2        1 0IW      0.370000
      3 O           0.3120    3.6030    1.7440 o         1 0IW     -0.422000
      4 C2          1.7860    3.5890    4.1530 c3        1 0IW     -0.051500
      5 C3          2.7900    4.5750    4.7860 c3        1 0IW     -0.101000
      6 N4          4.1220    4.0380    4.8340 n3        1 0IW     -0.258000
      7 CM          5.0290    5.0300    5.3170 c3        1 0IW     -0.119000
      8 C5          4.5650    3.5440    3.5430 c3        1 0IW     -0.101000
      9 C6          3.5580    2.5670    2.9210 c3        1 0IW     -0.051500
     10 N           1.9120    2.6210    0.4880 n         1 0IW     -0.355000
     11 CA          0.9800    2.3600   -0.6510 c3        1 0IW      0.021000
     12 C1          0.9180    0.8540   -0.9280 c2        1 0IW      0.266000
     13 O1          1.9380    0.1440   -0.7600 o         1 0IW     -0.382000
     14 CB          1.4630    3.0650   -1.8620 c3        1 0IW     -0.126000
     15 CG          0.8330    4.5540   -1.9110 c2        1 0IW     -0.071000
     16 CD1         1.6300    5.6230   -2.2730 c2        1 0IW     -0.127000
     17 CD2        -0.5410    4.7370   -1.7370 c1        1 0IW     -0.124000
     18 CE1         1.0600    6.8900   -2.4650 c1        1 0IW     -0.129000
     19 CE2        -1.1170    6.0170   -1.9310 c1        1 0IW     -0.114375
     20 CZ         -0.3290    7.0740   -2.2890 c1        1 0IW     -0.114375
     21 C11        -0.4250   -3.0880   -2.9100 c3        1 0IW     -0.849000
     22 C21        -0.9970   -1.6580   -2.6800 c3        1 0IW     -0.141000
     23 C31        -0.5010   -1.1320   -1.3670 c3        1 0IW      0.030000
     24 N2         -0.3030    0.2590   -1.4570 n         1 0IW     -0.364000
     25 C4         -1.5430   -1.4360   -0.2700 c3        1 0IW     -0.183000
     26 C51        -1.2160   -2.8000    0.3790 c3        1 0IW     -0.125000
     27 C1'        -2.4610   -3.3280    1.1270 c2        1 0IW     -0.073000
     28 C2'        -3.6300   -3.5590    0.4320 c2        1 0IW     -0.123000
     29 C3'        -4.6720   -4.1470    1.0440 c1        1 0IW     -0.127000
     30 C4'        -4.5690   -4.5320    2.4100 c1        1 0IW     -0.114375
     31 C5'        -3.4190   -4.3040    3.0930 c1        1 0IW     -0.114375
     32 C6'        -2.3610   -3.7070    2.4690 c1        1 0IW     -0.128000
     33 C12        -2.3600   -8.3220   -2.5640 c1        1 0IW     -0.114375
     34 C22        -2.6940   -7.2290   -1.7420 c1        1 0IW     -0.114375
     35 C32        -2.3940   -5.9470   -2.1450 c1        1 0IW     -0.114375
     36 C41        -1.7560   -5.7320   -3.3730 c1        1 0IW     -0.832000
     37 S1         -1.5420   -4.0250   -4.0000 s6        1 0IW      2.840000
     38 O11        -2.8000   -3.3640   -4.1430 o         1 0IW     -0.935500
     39 O2         -1.0800   -4.0260   -5.3260 o         1 0IW     -0.935500
     40 C52        -1.4230   -6.8200   -4.1920 c1        1 0IW     -0.018000
     41 C61        -1.7240   -8.1070   -3.7880 c1        1 0IW     -0.114375
     42 H21         0.9410    4.0370    4.0300 h1        1 0IW      0.109250
     43 H22         1.6560    2.8180    4.7720 h1        1 0IW      0.109250
     44 H31         2.4950    4.7860    5.7100 h1        1 0IW      0.083500
     45 H32         2.8000    5.4250    4.2450 h1        1 0IW      0.083500
     46 HM1         5.0850    5.7470    4.6890 h1        1 0IW      0.073667
     47 HM2         4.7010    5.3800    6.1920 h1        1 0IW      0.073667
     48 HM3         5.9070    4.6330    5.4370 h1        1 0IW      0.073667
     49 H51         5.4770    3.0590    3.6640 h1        1 0IW      0.083500
     50 H52         4.6920    4.3450    2.9050 h1        1 0IW      0.083500
     51 H61         3.8300    2.3710    2.0220 h1        1 0IW      0.109250
     52 H62         3.5560    1.7110    3.4620 h1        1 0IW      0.109250
     53 H           2.8540    2.5380    0.3590 hn        1 0IW      0.232000
     54 HA          0.0900    2.6800   -0.4230 h1        1 0IW      0.132000
     55 HB2         2.4360    3.1250   -1.8380 hc        1 0IW      0.113500
     56 HB3         1.1870    2.5600   -2.6670 hc        1 0IW      0.113500
     57 HD1         2.6280    5.4910   -2.3990 ha        1 0IW      0.130000
     58 HD2        -1.0810    4.0150   -1.4930 ha        1 0IW      0.133000
     59 HE1         1.5960    7.6070   -2.7090 ha        1 0IW      0.131000
     60 HE2        -2.1090    6.1490   -1.8060 ha        1 0IW      0.137500
     61 HZ         -0.7250    7.9480   -2.4210 ha        1 0IW      0.137500
     62 H11         0.4530   -3.0220   -3.3210 h1        1 0IW      0.154500
     63 H221       -0.3480   -3.5560   -2.0440 h1        1 0IW      0.154500
     64 H211       -1.9540   -1.6950   -2.6700 hc        1 0IW      0.107000
     65 H24        -0.6720   -1.0110   -3.4700 hc        1 0IW      0.107000
     66 H3          0.3570   -1.5730   -1.1400 h1        1 0IW      0.102000
     67 HN2        -0.8690    0.7490   -1.8970 hn        1 0IW      0.256000
     68 H41        -2.4420   -1.4630   -0.6680 hc        1 0IW      0.106500
     69 H42        -1.5130   -0.7790    0.3740 hc        1 0IW      0.106500
     70 H511       -0.4460   -2.6810    1.0390 hc        1 0IW      0.092500
     71 H521       -0.9590   -3.4370   -0.3090 hc        1 0IW      0.092500
     72 H2'        -3.6960   -3.3070   -0.4620 ha        1 0IW      0.146000
     73 H3'        -5.5140   -4.3130    0.5430 ha        1 0IW      0.131000
     74 H4'        -5.3460   -4.9710    2.8690 ha        1 0IW      0.137500
     75 H5'        -3.3460   -4.5680    4.0320 ha        1 0IW      0.137500
     76 H6'        -1.5820   -3.5540    2.9330 ha        1 0IW      0.129000
     77 H1         -2.5810   -9.2660   -2.2670 ha        1 0IW      0.137500
     78 H2         -3.1490   -7.3810   -0.8670 ha        1 0IW      0.137500
     79 H33        -2.6200   -5.2070   -1.5890 ha        1 0IW      0.137500
     80 H5         -0.9800   -6.6680   -5.0430 ha        1 0IW      0.155000
     81 H6         -1.4970   -8.8470   -4.3450 ha        1 0IW      0.137500
@<TRIPOS>BOND
     1    1    2 1   
     2    1    4 1   
     3    1    9 1   
     4    2    3 1   
     5    2   10 1   
     6    4    5 1   
     7    4   42 1   
     8    4   43 1   
     9    5    6 1   
    10    5   44 1   
    11    5   45 1   
    12    6    7 1   
    13    6    8 1   
    14    7   46 1   
    15    7   47 1   
    16    7   48 1   
    17    8    9 1   
    18    8   49 1   
    19    8   50 1   
    20    9   51 1   
    21    9   52 1   
    22   10   11 1   
    23   10   53 1   
    24   11   12 1   
    25   11   14 1   
    26   11   54 1   
    27   12   13 1   
    28   12   24 1   
    29   14   15 1   
    30   14   55 1   
    31   14   56 1   
    32   15   16 1   
    33   15   17 1   
    34   16   18 1   
    35   16   57 1   
    36   17   58 1   
    37   18   59 1   
    38   19   20 1   
    39   19   60 1   
    40   20   61 1   
    41   21   22 1   
    42   21   37 1   
    43   21   62 1   
    44   21   63 1   
    45   22   23 1   
    46   22   64 1   
    47   22   65 1   
    48   23   24 1   
    49   23   25 1   
    50   23   66 1   
    51   24   67 1   
    52   25   26 1   
    53   25   68 1   
    54   25   69 1   
    55   26   27 1   
    56   26   70 1   
    57   26   71 1   
    58   27   28 1   
    59   27   32 1   
    60   28   29 1   
    61   28   72 1   
    62   29   73 1   
    63   30   31 1   
    64   30   74 1   
    65   31   75 1   
    66   32   76 1   
    67   33   41 1   
    68   33   77 1   
    69   34   35 1   
    70   34   78 1   
    71   35   79 1   
    72   36   37 1   
    73   36   40 1   
    74   37   38 1   
    75   37   39 1   
    76   40   80 1   
    77   41   81 1   
@<TRIPOS>SUBSTRUCTURE
     1 0IW         1 TEMP              0 ****  ****    0 ROOT
