@<TRIPOS>MOLECULE
0J0
   57    56     1     0     0
SMALL
bcc


@<TRIPOS>ATOM
      1 C13        -0.7890    0.2870   -1.1350 cc        1 0J0     -0.161600
      2 C15        -2.6150    0.1050    0.6190 cx        1 0J0      0.098900
      3 C17        -2.8960    0.9270    4.4920 ce        1 0J0      0.442500
      4 C20        -6.4350   -1.4730    1.7990 c1        1 0J0     -0.170000
      5 C21        -2.8680   -1.3170    0.1810 c3        1 0J0     -0.097100
      6 C28         3.8540    0.5910   -5.6490 ce        1 0J0      0.674900
      7 O29         4.8890    1.4950   -5.7620 os        1 0J0     -0.412400
      8 N02         3.7100   -0.4270   -6.4600 nf        1 0J0     -0.633300
      9 C01         5.8320    1.2930   -6.8180 c3        1 0J0      0.122700
     10 C27         2.9640    0.9380   -4.5330 ce        1 0J0     -0.338600
     11 C09         1.9920    0.0550   -4.2240 c2        1 0J0      0.122900
     12 C08         1.8130   -1.2600   -4.9470 c3        1 0J0      0.092800
     13 C07         2.1920   -2.3620   -4.1000 c1        1 0J0     -0.142100
     14 C06         2.5040   -3.2900   -3.4130 c1        1 0J0     -0.127500
     15 C05         1.9080   -3.0080   -8.0870 c2        1 0J0     -0.205100
     16 C04         2.2540   -2.1540   -7.1790 c1        1 0J0     -0.007800
     17 C03         2.6110   -1.2840   -6.2510 cf        1 0J0      0.079300
     18 O10         1.0330    0.2170   -3.2490 os        1 0J0     -0.334900
     19 C12         0.1150    1.3230   -1.4110 cd        1 0J0      0.266600
     20 N26        -0.1470    2.3630   -0.4730 nd        1 0J0     -0.312000
     21 N25        -1.0930    2.0250    0.2900 nc        1 0J0     -0.179800
     22 N14        -1.5380    0.7760   -0.0460 na        1 0J0      0.031400
     23 C19        -5.6880   -2.2550    2.3120 c1        1 0J0     -0.170000
     24 C18        -2.3560    0.3650    3.2820 ce        1 0J0     -0.281600
     25 N22        -4.1310    1.2960    4.7480 nu        1 0J0     -0.225100
     26 C23        -3.8460    0.9000    1.0790 cx        1 0J0     -0.117200
     27 C16        -2.8740    0.4270    2.0620 cu        1 0J0     -0.037400
     28 H13        -0.9430   -0.6850   -1.6020 h4        1 0J0      0.215000
     29 H15        -1.9560   -1.9490    0.3170 hc        1 0J0      0.075700
     30 H17        -2.1570    1.0540    5.3260 h4        1 0J0      0.070800
     31 H20        -3.7010   -1.7560    0.7890 hc        1 0J0      0.075700
     32 H21        -3.1730   -1.3390   -0.8960 hc        1 0J0      0.075700
     33 H21A       -7.1250   -0.8130    1.3310 ha        1 0J0      0.172500
     34 H24        -5.2780    0.1860    3.3540 h1        1 0J0      0.099033
     35 H24A       -5.1770    1.9920    3.0530 h1        1 0J0      0.099033
     36 H24B       -6.2050    1.3500    4.4310 h1        1 0J0      0.099033
     37 H01         6.5440    2.1460   -6.6830 h1        1 0J0      0.055033
     38 H01A        6.3520    0.3130   -6.6960 h1        1 0J0      0.055033
     39 H01B        5.3250    1.3480   -7.8110 h1        1 0J0      0.055033
     40 H07         0.7140   -1.3650   -5.2040 hc        1 0J0      0.096700
     41 H06         2.3290   -4.0250   -8.1270 ha        1 0J0      0.139500
     42 H05         2.7890   -4.1170   -2.8130 ha        1 0J0      0.168500
     43 H04         1.1750   -2.7690   -8.8730 ha        1 0J0      0.139500
     44 H19        -2.9590   -4.2190    2.1610 ha        1 0J0      0.000500
     45 H19A       -2.9530   -3.5910    1.9070 ha        1 0J0      0.000500
     46 H18        -1.3670   -0.1210    3.4220 ha        1 0J0      0.196000
     47 H18A       -5.0380   -2.9720    2.7530 ha        1 0J0      0.172500
     48 H23        -4.3360    1.6890    5.6550 hn        1 0J0      0.327700
     49 H23A       -3.9130    1.9890    0.8730 hc        1 0J0      0.126700
     50 H23B       -4.8340    0.3960    0.9910 hc        1 0J0      0.126700
     51 H16        -5.6030   -1.0040   -0.6250 ha        1 0J0      0.000500
     52 H16A       -5.8010   -0.9870   -1.2730 ha        1 0J0      0.000500
     53 C24        -5.2550    1.2000    3.8490 c3        1 0J0     -0.053400
     54 C11         1.1690    1.4030   -2.4470 c3        1 0J0      0.108100
     55 H27         3.1340    1.8960   -4.0280 ha        1 0J0      0.166000
     56 H11         1.0260    2.3090   -3.0980 h1        1 0J0      0.077200
     57 H11A        2.1890    1.4270   -1.9750 h1        1 0J0      0.077200
@<TRIPOS>BOND
     1    1   19 2   
     2    1   22 1   
     3    1   28 1   
     4    2    5 1   
     5    2   22 1   
     6    2   26 1   
     7    2   27 1   
     8    3   24 1   
     9    3   25 2   
    10    3   30 1   
    11    4   23 3   
    12    4   33 1   
    13    5   29 1   
    14    5   31 1   
    15    5   32 1   
    16    6    7 1   
    17    6    8 2   
    18    6   10 1   
    19    7    9 1   
    20    8   17 1   
    21    9   37 1   
    22    9   38 1   
    23    9   39 1   
    24   10   11 2   
    25   10   55 1   
    26   11   12 1   
    27   11   18 1   
    28   12   13 1   
    29   12   17 1   
    30   12   40 1   
    31   13   14 3   
    32   14   42 1   
    33   15   16 2   
    34   15   41 1   
    35   15   43 1   
    36   16   17 2   
    37   18   54 1   
    38   19   20 1   
    39   19   54 1   
    40   20   21 2   
    41   21   22 1   
    42   23   47 1   
    43   24   27 2   
    44   24   46 1   
    45   25   48 1   
    46   25   53 1   
    47   26   27 1   
    48   26   49 1   
    49   26   50 1   
    50   34   53 1   
    51   35   53 1   
    52   36   53 1   
    53   44   45 1   
    54   51   52 1   
    55   54   56 1   
    56   54   57 1   
@<TRIPOS>SUBSTRUCTURE
     1 0J0         1 TEMP              0 ****  ****    0 ROOT
