@<TRIPOS>MOLECULE
0J0
   57    54     1     0     0
SMALL
bcc


@<TRIPOS>ATOM
      1 C13         0.6090   -2.0790    0.2580 cc        1 0J0     -0.183600
      2 C15        -0.5680   -2.7770    2.3820 c2        1 0J0     -0.016300
      3 C17        -2.7210    2.7280    1.0140 cg        1 0J0     -0.040200
      4 C20        -5.1270   -1.8150    2.4820 c2        1 0J0     -0.223000
      5 C21        -1.2810   -2.2280    3.5760 c3        1 0J0     -0.063900
      6 C28         2.5540    1.9970   -5.1570 ce        1 0J0      0.641900
      7 O29         3.5930    2.8990   -5.0930 os        1 0J0     -0.413400
      8 N02         2.0550    1.5570   -6.2820 nf        1 0J0     -0.601300
      9 C01         4.1700    3.3330   -6.3290 c3        1 0J0      0.121700
     10 C27         2.0900    1.6260   -3.8080 ce        1 0J0     -0.242600
     11 C09         1.1430    0.6720   -3.7260 c2        1 0J0      0.061900
     12 C08         0.5960   -0.0600   -4.9230 c3        1 0J0      0.085800
     13 C07         1.0380   -1.4320   -4.9270 c1        1 0J0     -0.164100
     14 C06         1.3930   -2.5740   -4.9610 c1        1 0J0     -0.110500
     15 C05        -0.3480    0.0490   -8.3950 c2        1 0J0     -0.198100
     16 C04         0.3100    0.3400   -7.3200 c1        1 0J0      0.010200
     17 C03         0.9880    0.6370   -6.2250 cf        1 0J0      0.057300
     18 O10         0.5350    0.3610   -2.5120 os        1 0J0     -0.404900
     19 C12         0.5550   -0.8840   -0.4910 cd        1 0J0      0.249600
     20 N26        -0.3550   -0.0380    0.1780 nd        1 0J0     -0.443000
     21 N25        -0.8160   -0.6200    1.2120 nc        1 0J0     -0.164800
     22 N14        -0.2750   -1.8550    1.3260 na        1 0J0      0.130200
     23 C19        -5.0970   -1.1460    3.6260 c2        1 0J0     -0.223000
     24 C18        -3.3570    2.9830    2.0010 c1        1 0J0      0.126500
     25 N22        -2.0110    2.4170   -0.0500 n1        1 0J0     -0.309600
     26 C23        -5.8480   -0.8100   -1.0420 c3        1 0J0     -0.113800
     27 C16        -0.2260   -4.0760    2.2950 c2        1 0J0     -0.211000
     28 H13         1.1770   -2.9990    0.1250 h4        1 0J0      0.212000
     29 H15        -0.7340   -1.3530    4.0070 hc        1 0J0      0.066700
     30 H17        -3.9270    3.2170    2.8750 ha        1 0J0      0.227500
     31 H20        -2.3170   -1.8980    3.3000 hc        1 0J0      0.066700
     32 H21        -1.3590   -3.0210    4.3610 hc        1 0J0      0.066700
     33 H21A       -4.2460   -1.9250    1.8340 ha        1 0J0      0.111500
     34 H24        -6.0330   -2.3110    2.1070 ha        1 0J0      0.111500
     35 H24A       -6.6720   -1.4390   -1.4470 hc        1 0J0      0.028200
     36 H24B       -0.7590    1.8050   -1.8250 ha        1 0J0      0.326500
     37 H01         3.4100    3.8690   -6.9460 h1        1 0J0      0.059367
     38 H01A        4.5920    2.4660   -6.8890 h1        1 0J0      0.059367
     39 H01B        4.9800    4.0300   -5.9930 h1        1 0J0      0.059367
     40 H07        -0.5350   -0.0540   -4.8470 hc        1 0J0      0.090700
     41 H06        -0.0450   -0.7750   -9.0620 ha        1 0J0      0.147500
     42 H05         1.7080   -3.5870   -5.0040 ha        1 0J0      0.175500
     43 H04        -1.2470    0.6030   -8.7080 ha        1 0J0      0.147500
     44 H19        -2.5460    1.1370    3.6880 ha        1 0J0      0.000500
     45 H19A       -2.2500    0.5650    3.9020 ha        1 0J0      0.000500
     46 H18        -5.9750   -1.0440    4.2780 ha        1 0J0      0.111500
     47 H18A       -4.1880   -0.6560    4.0030 ha        1 0J0      0.111500
     48 H23        -6.1580    0.2570   -1.0600 hc        1 0J0      0.028200
     49 H23A       -4.9400   -0.9460   -1.6690 hc        1 0J0      0.028200
     50 H23B       -5.6290   -1.1190    0.0050 hc        1 0J0      0.028200
     51 H16         0.2800   -4.5330    1.4350 ha        1 0J0      0.144000
     52 H16A       -0.4520   -4.7640    3.1220 ha        1 0J0      0.144000
     53 C24        -1.3760    2.1230   -0.9760 c1        1 0J0      0.651300
     54 C11         1.3190   -0.5510   -1.7120 c3        1 0J0      0.122100
     55 H27         2.5280    2.1470   -2.9470 ha        1 0J0      0.167000
     56 H11         1.5170   -1.4790   -2.3160 h1        1 0J0      0.072700
     57 H11A        2.2880   -0.0460   -1.4470 h1        1 0J0      0.072700
@<TRIPOS>BOND
     1    1   19 2   
     2    1   22 1   
     3    1   28 1   
     4    2    5 1   
     5    2   22 1   
     6    2   27 2   
     7    3   24 3   
     8    3   25 1   
     9    4   23 2   
    10    4   33 1   
    11    4   34 1   
    12    5   29 1   
    13    5   31 1   
    14    5   32 1   
    15    6    7 1   
    16    6    8 2   
    17    6   10 1   
    18    7    9 1   
    19    8   17 1   
    20    9   37 1   
    21    9   38 1   
    22    9   39 1   
    23   10   11 2   
    24   10   55 1   
    25   11   12 1   
    26   11   18 1   
    27   12   13 1   
    28   12   17 1   
    29   12   40 1   
    30   13   14 3   
    31   14   42 1   
    32   15   16 2   
    33   15   41 1   
    34   15   43 1   
    35   16   17 2   
    36   18   54 1   
    37   19   20 1   
    38   19   54 1   
    39   20   21 2   
    40   21   22 1   
    41   23   46 1   
    42   23   47 1   
    43   24   30 1   
    44   25   53 3   
    45   26   35 1   
    46   26   48 1   
    47   26   49 1   
    48   26   50 1   
    49   27   51 1   
    50   27   52 1   
    51   36   53 1   
    52   44   45 1   
    53   54   56 1   
    54   54   57 1   
@<TRIPOS>SUBSTRUCTURE
     1 0J0         1 TEMP              0 ****  ****    0 ROOT
