@<TRIPOS>MOLECULE
0J0
   57    61     1     0     0
SMALL
bcc


@<TRIPOS>ATOM
      1 C13         1.1150   -1.1100   -0.1520 cc        1 0J0     -0.211600
      2 C15         3.6630   -1.0280   -0.1910 c3        1 0J0      0.070000
      3 C17         5.0270    0.8790   -1.1830 c3        1 0J0      0.147500
      4 C20         5.0700    0.6260    1.1370 c3        1 0J0      0.147500
      5 C21         3.8910   -0.3450    1.1770 c3        1 0J0     -0.125400
      6 C28        -5.3970   -1.3070   -0.0520 c         1 0J0      0.712700
      7 O29        -6.2760   -2.1840   -0.1300 o         1 0J0     -0.616500
      8 N02        -5.7730    0.0480    0.1010 n         1 0J0     -0.351000
      9 C01        -7.1730    0.3890    0.1640 c3        1 0J0      0.061300
     10 C27        -3.9670   -1.6190   -0.1130 cc        1 0J0     -0.326200
     11 C09        -3.0380   -0.6350   -0.0240 cd        1 0J0      0.214900
     12 C08        -3.4250    0.7550    0.1320 ca        1 0J0     -0.142800
     13 C07        -2.4750    1.7840    0.2250 ca        1 0J0     -0.062000
     14 C06        -2.8670    3.1020    0.3740 ca        1 0J0     -0.180000
     15 C05        -4.2330    3.4130    0.4330 ca        1 0J0     -0.068000
     16 C04        -5.1920    2.4230    0.3440 ca        1 0J0     -0.180000
     17 C03        -4.8170    1.0580    0.1910 ca        1 0J0      0.122600
     18 O10        -1.6720   -0.8310   -0.0710 os        1 0J0     -0.343900
     19 C12         0.2220   -2.1860   -0.2520 cd        1 0J0      0.282600
     20 N26         1.0140   -3.3620   -0.3950 nd        1 0J0     -0.316000
     21 N25         2.2390   -3.0610   -0.3850 nc        1 0J0     -0.136800
     22 N14         2.3850   -1.7120   -0.2410 na        1 0J0      0.010400
     23 C19         6.3350   -0.1090    0.6290 c3        1 0J0     -0.106400
     24 C18         6.3060    0.0570   -0.8930 c3        1 0J0     -0.106400
     25 N22         4.8260    1.7170    0.0860 n4        1 0J0     -0.620800
     26 C23         3.4950    2.3610    0.1810 c3        1 0J0      0.092600
     27 C16         3.8430   -0.0650   -1.3870 c3        1 0J0     -0.125400
     28 H13         0.9420   -0.0440   -0.0340 h4        1 0J0      0.189000
     29 H15         4.4710   -1.8230   -0.2930 h1        1 0J0      0.104700
     30 H17         5.1460    1.5690   -2.0610 hx        1 0J0      0.114700
     31 H20         5.2240    1.1110    2.1380 hx        1 0J0      0.114700
     32 H21         2.9630    0.1700    1.5420 hc        1 0J0      0.095200
     33 H21A        4.1320   -1.1370    1.9390 hc        1 0J0      0.095200
     34 H24         5.7180    3.5130   -0.6580 hx        1 0J0      0.100033
     35 H24A        5.7520    3.3140    1.1660 hx        1 0J0      0.100033
     36 H24B        6.8890    2.3380    0.1150 hx        1 0J0      0.100033
     37 H01        -7.7940   -0.5440    0.0750 h1        1 0J0      0.063033
     38 H01A       -7.4040    0.8880    1.1430 h1        1 0J0      0.063033
     39 H01B       -7.4380    1.0830   -0.6780 h1        1 0J0      0.063033
     40 H07        -1.4080    1.5180    0.1760 ha        1 0J0      0.126000
     41 H06        -2.1200    3.9050    0.4460 ha        1 0J0      0.131000
     42 H05        -4.5450    4.4630    0.5510 ha        1 0J0      0.143000
     43 H04        -6.2560    2.7030    0.3950 ha        1 0J0      0.151000
     44 H19         7.2600    0.3370    1.0730 hc        1 0J0      0.094200
     45 H19A        6.3030   -1.1860    0.9310 hc        1 0J0      0.094200
     46 H18         6.2590   -0.9300   -1.4180 hc        1 0J0      0.094200
     47 H18A        7.2160    0.5920   -1.2640 hc        1 0J0      0.094200
     48 H23         2.6680    1.6070    0.1150 hx        1 0J0      0.100033
     49 H23A        3.4200    2.8970    1.1650 hx        1 0J0      0.100033
     50 H23B        3.3860    3.0960   -0.6610 hx        1 0J0      0.100033
     51 H16         4.0530   -0.6750   -2.3100 hc        1 0J0      0.095200
     52 H16A        2.9050    0.5120   -1.5990 hc        1 0J0      0.095200
     53 C24         5.8610    2.7830    0.1830 c3        1 0J0      0.092600
     54 C11        -1.2570   -2.2010   -0.2260 c3        1 0J0      0.107100
     55 H27        -3.7370   -2.6860   -0.2320 ha        1 0J0      0.173000
     56 H11        -1.6350   -2.8070    0.6420 h1        1 0J0      0.082700
     57 H11A       -1.6690   -2.6100   -1.1900 h1        1 0J0      0.082700
@<TRIPOS>BOND
     1    1   19 2   
     2    1   22 1   
     3    1   28 1   
     4    2    5 1   
     5    2   22 1   
     6    2   27 1   
     7    2   29 1   
     8    3   24 1   
     9    3   25 1   
    10    3   27 1   
    11    3   30 1   
    12    4    5 1   
    13    4   23 1   
    14    4   25 1   
    15    4   31 1   
    16    5   32 1   
    17    5   33 1   
    18    6    7 2   
    19    6    8 1   
    20    6   10 1   
    21    8    9 1   
    22    8   17 1   
    23    9   37 1   
    24    9   38 1   
    25    9   39 1   
    26   10   11 2   
    27   10   55 1   
    28   11   12 1   
    29   11   18 1   
    30   12   13 ar  
    31   12   17 ar  
    32   13   14 ar  
    33   13   40 1   
    34   14   15 ar  
    35   14   41 1   
    36   15   16 ar  
    37   15   42 1   
    38   16   17 ar  
    39   16   43 1   
    40   18   54 1   
    41   19   20 1   
    42   19   54 1   
    43   20   21 2   
    44   21   22 1   
    45   23   24 1   
    46   23   44 1   
    47   23   45 1   
    48   24   46 1   
    49   24   47 1   
    50   25   26 1   
    51   25   53 1   
    52   26   48 1   
    53   26   49 1   
    54   26   50 1   
    55   27   51 1   
    56   27   52 1   
    57   34   53 1   
    58   35   53 1   
    59   36   53 1   
    60   54   56 1   
    61   54   57 1   
@<TRIPOS>SUBSTRUCTURE
     1 0J0         1 TEMP              0 ****  ****    0 ROOT
