@<TRIPOS>MOLECULE
0J0
   57    53     1     0     0
SMALL
bcc


@<TRIPOS>ATOM
      1 C13         0.6440   -0.0830   -0.9360 c2        1 0J0     -0.096000
      2 C15        -1.1610   -0.0870    0.8270 c2        1 0J0     -0.070000
      3 C17        -6.0100    0.0410    0.7750 c1        1 0J0     -0.383000
      4 C20        -4.5790   -2.4720    4.4840 c2        1 0J0     -0.229500
      5 C21        -1.4710   -0.5690    2.0730 c2        1 0J0      0.023000
      6 C28         5.1780   -0.0650   -5.5210 c2        1 0J0      0.179000
      7 O29         6.5440    0.0720   -5.4410 os        1 0J0     -0.199000
      8 N02         4.5530   -0.2370   -6.7100 n2        1 0J0     -0.205000
      9 C01         7.2930    0.0270   -6.6590 c3        1 0J0     -0.067000
     10 C27         4.5170   -0.0090   -4.2640 c2        1 0J0     -0.281000
     11 C09         3.1310   -0.1410   -4.2690 c2        1 0J0      0.159000
     12 C08         2.4290   -0.3240   -5.4910 c2        1 0J0     -0.076000
     13 C07         1.0340   -0.4620   -5.5280 c1        1 0J0     -0.086000
     14 C06        -0.1580   -0.5810   -5.5650 c1        1 0J0     -0.217000
     15 C05         1.9800   -0.6970   -8.9750 c1        1 0J0     -0.134000
     16 C04         2.5320   -0.5450   -7.9250 c1        1 0J0     -0.139000
     17 C03         3.2000   -0.3640   -6.6860 c2        1 0J0      0.191000
     18 O10         2.3500   -0.1060   -3.1340 os        1 0J0     -0.211000
     19 C12         2.0330    0.0690   -0.8330 c2        1 0J0     -0.151000
     20 N26         2.3300    0.2400    0.5510 n2        1 0J0     -0.052000
     21 N25         1.2650    0.1990    1.2260 n2        1 0J0      0.017000
     22 N14         0.1940    0.0100    0.3970 na        1 0J0     -0.180000
     23 C19        -4.6280   -1.2800    3.9030 c2        1 0J0     -0.229500
     24 C18        -4.8210    0.1140    0.5710 c1        1 0J0     -0.036000
     25 N22        -7.3490   -0.0530    1.0350 n3        1 0J0      0.130000
     26 C23        -7.7420   -1.1100    1.9710 c3        1 0J0     -0.149000
     27 C16        -2.2220    0.3400   -0.0110 c1        1 0J0     -0.075000
     28 H13        -0.0010   -0.2500   -1.7980 h4        1 0J0      0.208000
     29 H15        -2.0100    0.8040   -0.9850 ha        1 0J0      0.119000
     30 H17        -3.6310    0.1970    0.3450 ha        1 0J0      0.360000
     31 H20        -0.7140   -0.9040    2.8010 ha        1 0J0      0.164000
     32 H21        -2.5240   -0.6170    2.4020 ha        1 0J0      0.164000
     33 H21A       -4.6110   -3.4140    3.9190 ha        1 0J0      0.115250
     34 H24        -4.4980   -2.5960    5.5740 ha        1 0J0      0.115250
     35 H24A       -9.2990    0.6500    0.7130 h4        1 0J0      0.198500
     36 H24B       -7.8930    1.5360   -0.2310 h4        1 0J0      0.198500
     37 H01         6.9900    0.8610   -7.3360 h1        1 0J0      0.097333
     38 H01A        7.1620   -0.9600   -7.1630 h1        1 0J0      0.097333
     39 H01B        8.3470    0.1610   -6.3030 h1        1 0J0      0.097333
     40 H07        -2.7970    2.3700    0.9560 ha        1 0J0      0.006667
     41 H06        -2.3700    2.6400    0.5000 ha        1 0J0      0.006667
     42 H05        -1.2090   -0.6900   -5.6220 ha        1 0J0      0.219000
     43 H04         1.4850   -0.8330   -9.9040 ha        1 0J0      0.232000
     44 H19        -3.9140    1.1900    2.6860 ha        1 0J0      0.006667
     45 H19A       -3.7420    1.6900    3.1110 ha        1 0J0      0.006667
     46 H18        -4.5880   -0.3400    4.4700 ha        1 0J0      0.115250
     47 H18A       -4.7040   -1.1500    2.8130 ha        1 0J0      0.115250
     48 H23        -7.6540   -2.1010    1.4480 h1        1 0J0      0.146000
     49 H23A       -8.7980   -0.9490    2.3150 h1        1 0J0      0.146000
     50 H23B       -7.0410   -1.0940    2.8530 h1        1 0J0      0.146000
     51 H16        -2.1820   -1.5240   -1.4370 ha        1 0J0      0.006667
     52 H16A       -2.8140   -1.5820   -1.1920 ha        1 0J0      0.006667
     53 C24        -8.2190    0.7480    0.4800 c2        1 0J0      0.016000
     54 C11         3.0630    0.0670   -1.8960 c3        1 0J0      0.054000
     55 H27         5.1120    0.1330   -3.3540 ha        1 0J0      0.170000
     56 H11         3.6190    1.0440   -1.9150 h1        1 0J0      0.117000
     57 H11A        3.7820   -0.7860   -1.7530 h1        1 0J0      0.117000
@<TRIPOS>BOND
     1    1   19 1   
     2    1   22 1   
     3    1   28 1   
     4    2    5 1   
     5    2   22 1   
     6    2   27 1   
     7    3   24 1   
     8    3   25 1   
     9    4   23 1   
    10    4   33 1   
    11    4   34 1   
    12    5   31 1   
    13    5   32 1   
    14    6    7 1   
    15    6    8 1   
    16    6   10 1   
    17    7    9 1   
    18    8   17 1   
    19    9   37 1   
    20    9   38 1   
    21    9   39 1   
    22   10   11 1   
    23   10   55 1   
    24   11   12 1   
    25   11   18 1   
    26   12   13 1   
    27   12   17 1   
    28   13   14 1   
    29   14   42 1   
    30   15   16 1   
    31   15   43 1   
    32   16   17 1   
    33   18   54 1   
    34   19   20 1   
    35   19   54 1   
    36   20   21 1   
    37   21   22 1   
    38   23   46 1   
    39   23   47 1   
    40   24   30 1   
    41   25   26 1   
    42   25   53 1   
    43   26   48 1   
    44   26   49 1   
    45   26   50 1   
    46   27   29 1   
    47   35   53 1   
    48   36   53 1   
    49   40   41 1   
    50   44   45 1   
    51   51   52 1   
    52   54   56 1   
    53   54   57 1   
@<TRIPOS>SUBSTRUCTURE
     1 0J0         1 TEMP              0 ****  ****    0 ROOT
