@<TRIPOS>MOLECULE
0J0
   57    56     1     0     0
SMALL
bcc


@<TRIPOS>ATOM
      1 C13        -0.2130   -0.4800    0.3780 c1        1 0J0     -0.122000
      2 C15        -1.4060   -0.1650    2.7080 c3        1 0J0      0.050000
      3 C17        -3.9550   -0.6270    2.6090 c3        1 0J0     -0.050000
      4 C20        -2.8150   -1.9550    3.9690 c3        1 0J0     -0.050000
      5 C21        -1.4400   -1.3640    3.7300 c3        1 0J0     -0.204000
      6 C24        -4.9250   -2.5380    3.3280 c3        1 0J0     -0.183500
      7 C28         5.5080    0.2760   -3.7210 c1        1 0J0      0.351000
      8 O29         6.4850   -0.4310   -3.9060 o         1 0J0     -0.341000
      9 N02         5.1530    1.3030   -4.7000 n2        1 0J0     -0.254000
     10 C01         5.9960    1.5280   -5.8410 c3        1 0J0     -0.094000
     11 C27         4.6360    0.0320   -2.5560 c2        1 0J0     -0.307000
     12 C09         3.4000    0.8150   -2.3830 c1        1 0J0      0.159000
     13 C08         3.0360    1.8880   -3.3980 c1        1 0J0     -0.131000
     14 C07         1.8110    2.5940   -3.2730 c2        1 0J0     -0.062000
     15 C06         1.4390    3.5090   -4.2360 c1        1 0J0     -0.180000
     16 C05         2.2860    3.7480   -5.3640 c1        1 0J0     -0.124000
     17 C04         3.4980    3.0540   -5.4950 c1        1 0J0     -0.124000
     18 C03         3.8810    2.1230   -4.5180 c1        1 0J0      0.130000
     19 O10         2.6690    0.7260   -1.1400 os        1 0J0     -0.228000
     20 C11         1.9670   -0.4810   -0.9820 c3        1 0J0      0.051000
     21 C12         1.1580   -0.4370    0.2930 c2        1 0J0     -0.140000
     22 N26         1.6460   -0.4280    1.5320 n2        1 0J0     -0.053000
     23 N25         0.5990   -0.4650    2.3940 n2        1 0J0      0.033000
     24 N14        -0.5460   -0.4960    1.6610 n3        1 0J0     -0.203000
     25 C19        -3.5130   -1.0350    4.9730 c3        1 0J0     -0.185000
     26 C18        -4.3300   -0.0550    3.9860 c3        1 0J0     -0.185000
     27 N22        -3.6740   -1.8640    2.9500 n4        1 0J0      0.012000
     28 C23        -3.1220   -2.5210    1.8320 c3        1 0J0     -0.183500
     29 C16        -2.7860    0.2130    2.1060 c3        1 0J0     -0.204000
     30 H13        -0.8330   -0.4780   -0.3750 DU        1 0J0      0.189000
     31 H15        -1.0510    0.6070    3.1610 h1        1 0J0      0.144000
     32 H17        -4.6770   -0.5920    2.0240 hx        1 0J0      0.154000
     33 H20        -2.7580   -2.9100    4.3240 hx        1 0J0      0.154000
     34 H21        -1.0730   -1.0380    4.6160 hc        1 0J0      0.134500
     35 H21A       -0.8180   -2.1160    3.3740 hc        1 0J0      0.134500
     36 H24        -4.7170   -3.4800    3.6710 hx        1 0J0      0.139333
     37 H24A       -5.5250   -2.5980    2.5300 hx        1 0J0      0.139333
     38 H24B       -5.3590   -2.0380    4.0160 hx        1 0J0      0.139333
     39 H01         6.2000    2.4930   -5.9160 h1        1 0J0      0.102333
     40 H01A        5.5320    1.2240   -6.6600 h1        1 0J0      0.102333
     41 H01B        6.8350    1.0240   -5.7320 h1        1 0J0      0.102333
     42 H27         4.8890   -0.6800   -1.8700 ha        1 0J0      0.173000
     43 H07         1.2480    2.4390   -2.5250 ha        1 0J0      0.126000
     44 H06         0.6170    3.9830   -4.1510 ha        1 0J0      0.131000
     45 H05         2.0230    4.3890   -6.0380 ha        1 0J0      0.147000
     46 H04         4.0970    3.2260   -6.2980 ha        1 0J0      0.147000
     47 H11         1.4040   -0.6010   -1.6930 h1        1 0J0      0.122000
     48 H11A        2.5710   -1.1880   -0.9440 h1        1 0J0      0.122000
     49 H19        -4.1680   -1.5780    5.5870 hc        1 0J0      0.133500
     50 H19A       -2.8240   -0.5060    5.5360 hc        1 0J0      0.133500
     51 H18        -4.0260    0.8480    4.0750 hc        1 0J0      0.133500
     52 H18A       -5.3700   -0.1260    4.1540 hc        1 0J0      0.133500
     53 H23        -3.3320   -2.0050    1.0070 hx        1 0J0      0.139333
     54 H23A       -3.5230   -3.4630    1.7580 hx        1 0J0      0.139333
     55 H23B       -2.0990   -2.5920    1.9450 hx        1 0J0      0.139333
     56 H16        -2.9710    1.1660    2.3210 hc        1 0J0      0.134500
     57 H16A       -2.7370    0.1230    1.1670 hc        1 0J0      0.134500
@<TRIPOS>BOND
     1    1   21 1   
     2    1   24 1   
     3    2    5 1   
     4    2   24 1   
     5    2   29 1   
     6    2   31 1   
     7    3   26 1   
     8    3   27 1   
     9    3   29 1   
    10    3   32 1   
    11    4    5 1   
    12    4   25 1   
    13    4   27 1   
    14    4   33 1   
    15    5   34 1   
    16    5   35 1   
    17    6   27 1   
    18    6   36 1   
    19    6   37 1   
    20    6   38 1   
    21    7    8 1   
    22    7   11 1   
    23    9   10 1   
    24    9   18 1   
    25   10   39 1   
    26   10   40 1   
    27   10   41 1   
    28   11   12 1   
    29   11   42 1   
    30   12   19 1   
    31   13   14 1   
    32   13   18 1   
    33   14   15 1   
    34   14   43 1   
    35   15   44 1   
    36   16   17 1   
    37   16   45 1   
    38   17   46 1   
    39   19   20 1   
    40   20   21 1   
    41   20   47 1   
    42   20   48 1   
    43   21   22 1   
    44   22   23 1   
    45   23   24 1   
    46   25   26 1   
    47   25   49 1   
    48   25   50 1   
    49   26   51 1   
    50   26   52 1   
    51   27   28 1   
    52   28   53 1   
    53   28   54 1   
    54   28   55 1   
    55   29   56 1   
    56   29   57 1   
@<TRIPOS>SUBSTRUCTURE
     1 0J0         1 TEMP              0 ****  ****    0 ROOT
