@<TRIPOS>MOLECULE
0J2
   29    30     1     0     0
SMALL
bcc


@<TRIPOS>ATOM
      1 C1         -0.0330    0.3640    0.0830 c3        1 0J2     -0.194400
      2 C2          1.9730   -0.6810   -0.9940 c3        1 0J2     -0.098100
      3 C3         -0.6430    1.0440   -1.1610 c         1 0J2      0.910600
      4 O1         -0.5230    0.4740   -2.2840 o         1 0J2     -0.845300
      5 O2         -1.2630    2.1300   -0.9850 o         1 0J2     -0.845300
      6 N1          1.5790   -0.8850    2.1550 nc        1 0J2     -0.399400
      7 N2          2.1230   -1.1580    3.3400 na        1 0J2     -0.398100
      8 C4          1.4840    0.3330    0.0220 c3        1 0J2     -0.070000
      9 C5          4.9930    1.2110    3.6170 c         1 0J2      0.742700
     10 C6          3.8400    0.5160    3.0800 cc        1 0J2     -0.419400
     11 N4          5.3800    0.8490    4.9460 n         1 0J2     -0.515400
     12 C7          3.2040   -0.4660    3.8740 cd        1 0J2      0.425600
     13 C8          2.1060    0.0320    1.3710 cd        1 0J2      0.338300
     14 C9          3.3340    0.8190    1.7430 c         1 0J2      0.483000
     15 N5          3.6110   -0.7860    5.1730 nd        1 0J2     -0.738300
     16 O4          3.8550    1.6320    0.9730 o         1 0J2     -0.512100
     17 C10         4.6960   -0.1410    5.6520 cc        1 0J2      0.702800
     18 H1         -0.4360   -0.6770    0.1460 hc        1 0J2      0.030200
     19 H2         -0.3620    0.9290    0.9910 hc        1 0J2      0.030200
     20 H3          1.8490    1.3570   -0.2830 hc        1 0J2      0.090700
     21 H4          3.0750   -0.5930   -1.1410 hc        1 0J2      0.045033
     22 H5          1.7340   -1.7210   -0.6670 hc        1 0J2      0.045033
     23 H7          1.4430   -0.4820   -1.9640 hc        1 0J2      0.045033
     24 H8          5.5720    0.2190    7.4680 hn        1 0J2      0.414300
     25 H9          4.6120   -1.1470    7.4280 hn        1 0J2      0.414300
     26 H10         6.2000    1.2730    5.3200 hn        1 0J2      0.327500
     27 H11         1.6050   -1.8140    3.8910 hn        1 0J2      0.480800
     28 O3          5.6940    2.0820    3.0840 o         1 0J2     -0.595500
     29 N3          5.2020   -0.5240    6.9190 nh        1 0J2     -0.895800
@<TRIPOS>BOND
     1    1    3 1   
     2    1    8 1   
     3    1   18 1   
     4    1   19 1   
     5    2    8 1   
     6    2   21 1   
     7    2   22 1   
     8    2   23 1   
     9    3    4 1   
    10    3    5 1   
    11    6    7 1   
    12    6   13 2   
    13    7   12 1   
    14    7   27 1   
    15    8   13 1   
    16    8   20 1   
    17    9   10 1   
    18    9   11 1   
    19    9   28 2   
    20   10   12 2   
    21   10   14 1   
    22   11   17 1   
    23   11   26 1   
    24   12   15 1   
    25   13   14 1   
    26   14   16 2   
    27   15   17 2   
    28   17   29 1   
    29   24   29 1   
    30   25   29 1   
@<TRIPOS>SUBSTRUCTURE
     1 0J2         1 TEMP              0 ****  ****    0 ROOT
