@<TRIPOS>MOLECULE
0J2
   29    26     1     0     0
SMALL
bcc


@<TRIPOS>ATOM
      1 C1          0.3720   -0.7050   -3.3250 c3        1 0J2     -0.223000
      2 C2         -1.8100   -1.5620   -2.5440 c3        1 0J2     -0.216000
      3 C3          0.4170    0.3990   -4.3580 c1        1 0J2      0.330000
      4 O1         -0.2980    0.3250   -5.3910 os        1 0J2     -0.586000
      5 O2          1.1730    1.3920   -4.1850 o         1 0J2     -0.574000
      6 N1          0.4720   -1.5920   -0.4490 n1        1 0J2     -0.025000
      7 N2          0.9510   -1.5980    0.9170 n2        1 0J2     -0.198000
      8 O3         -0.9900    2.7860    1.8010 o         1 0J2     -0.320000
      9 C4         -0.7830   -0.4640   -2.3780 c3        1 0J2     -0.034000
     10 N3          1.3610    0.6730    5.3770 n3        1 0J2     -0.334000
     11 C5         -0.3340    1.8460    2.2040 c1        1 0J2      0.381000
     12 C6         -0.0640    0.6880    1.3070 c1        1 0J2     -0.381000
     13 N4          0.1390    1.8330    3.5410 n3        1 0J2     -0.355000
     14 C7          0.6800   -0.4460    1.8040 c2        1 0J2      0.203000
     15 C8         -0.2740   -0.4600   -0.9530 c2        1 0J2     -0.094000
     16 C9         -0.5480    0.6920   -0.0760 c1        1 0J2      0.294000
     17 N5          1.1580   -0.4530    3.1630 n2        1 0J2     -0.310000
     18 O4         -1.1080    1.6750   -0.5200 o         1 0J2     -0.273000
     19 C10         0.8900    0.6850    4.0390 c2        1 0J2      0.256000
     20 H1          1.2110   -0.7150   -2.8210 hc        1 0J2      0.069500
     21 H2          0.2510   -1.5660   -3.7740 hc        1 0J2      0.069500
     22 H3         -2.4750   -1.4980   -1.8270 hc        1 0J2      0.084333
     23 H4         -1.3650   -2.4350   -2.5000 hc        1 0J2      0.084333
     24 H5         -2.2540   -1.4650   -3.4120 hc        1 0J2      0.084333
     25 H7         -1.1930    0.3990   -2.5790 hc        1 0J2      0.130000
     26 H8          1.1950    1.3850    5.9260 hn        1 0J2      0.209500
     27 H9          1.8310   -0.0460    5.6900 hn        1 0J2      0.209500
     28 H10        -0.0270    2.5420    4.0900 hn        1 0J2      0.241000
     29 H11         1.4210   -2.3140    1.2320 hn        1 0J2      0.276000
@<TRIPOS>BOND
     1    1    3 1   
     2    1    9 1   
     3    1   20 1   
     4    1   21 1   
     5    2    9 1   
     6    2   22 1   
     7    2   23 1   
     8    2   24 1   
     9    3    5 1   
    10    6   15 1   
    11    7   14 1   
    12    7   29 1   
    13    8   11 1   
    14    9   15 1   
    15    9   25 1   
    16   10   19 1   
    17   10   26 1   
    18   10   27 1   
    19   11   13 1   
    20   12   14 1   
    21   13   19 1   
    22   13   28 1   
    23   14   17 1   
    24   15   16 1   
    25   16   18 1   
    26   17   19 1   
@<TRIPOS>SUBSTRUCTURE
     1 0J2         1 TEMP              0 ****  ****    0 ROOT
