@<TRIPOS>MOLECULE
0J2
   30    39     1     0     0
SMALL
bcc


@<TRIPOS>ATOM
      1 C1          0.0000    0.0000    0.0000 c3        1 0J2      0.340000
      2 C2          2.0400    1.2480   -0.7230 DU        1 0J2      0.557000
      3 C3         -0.5030   -0.1250   -1.4150 c2        1 0J2      0.328000
      4 O1         -1.8230   -0.1460   -1.6590 o         1 0J2     -0.377000
      5 O2          0.2810   -0.2050   -2.3300 o         1 0J2     -0.377000
      6 N1          1.1870    0.1000    2.4030 n2        1 0J2      0.113000
      7 N2          1.6020    0.1050    3.7400 n7        1 0J2     -0.154000
      8 C4          1.5290    0.0000    0.0000 DU        1 0J2      0.187000
      9 C5          5.2860   -0.2090    3.3710 c2        1 0J2      0.395000
     10 C6          3.8700   -0.1030    3.0180 c2        1 0J2     -0.431000
     11 N4          5.6030   -0.1950    4.6870 ns        1 0J2     -0.188000
     12 C7          2.9260    0.0060    4.0550 c3        1 0J2     -0.044000
     13 C8          2.0320    0.0000    1.4210 c2        1 0J2     -0.463000
     14 C9          3.4270   -0.1060    1.6750 c2        1 0J2      0.361000
     15 N5          3.3470    0.0100    5.3220 n2        1 0J2     -0.302000
     16 O4          4.2240   -0.2000    0.7550 o         1 0J2     -0.321000
     17 C10         4.6230   -0.0850    5.6260 c3        1 0J2      0.734000
     18 H1          0.9910   -0.1190    0.4220 DU        1 0J2      0.207500
     19 H2          0.6250    0.0290    0.8840 DU        1 0J2      0.207500
     20 H3          1.0700    1.1200   -0.2560 DU        1 0J2     -0.240000
     21 H4          1.2840    0.5910   -0.3100 DU        1 0J2     -0.324000
     22 H5          1.2030    1.7820   -1.1570 ha        1 0J2      0.133500
     23 H7          2.0440    0.9530   -0.0060 ha        1 0J2      0.133500
     24 H8          4.7300    0.0910    5.9910 DU        1 0J2     -0.410000
     25 H9          4.5880   -0.1850    6.0320 DU        1 0J2     -0.410000
     26 H10         5.7290   -0.2140    5.6800 DU        1 0J2      0.324000
     27 H11         2.2980    0.3230    4.4260 DU        1 0J2      0.420000
     28 O3          6.1460   -0.3070    2.5140 o         1 0J2     -0.356000
     29 N3          4.9820   -0.0750    6.9460 nz        1 0J2     -0.144000
     30 H33         4.3950   -0.0800    7.7570 hn        1 0J2      0.100000
@<TRIPOS>BOND
     1    1    3 1   
     2    1    8 1   
     3    1   18 1   
     4    1   19 1   
     5    2    8 1   
     6    2   20 1   
     7    2   21 1   
     8    2   22 1   
     9    2   23 1   
    10    3    4 1   
    11    3    5 1   
    12    6    7 1   
    13    6   13 1   
    14    7   12 1   
    15    7   27 1   
    16    8   13 1   
    17    8   18 1   
    18    8   19 1   
    19    8   20 1   
    20    9   10 1   
    21    9   11 1   
    22    9   28 1   
    23   10   12 1   
    24   10   14 1   
    25   11   17 1   
    26   11   26 1   
    27   12   15 1   
    28   12   27 1   
    29   13   14 1   
    30   14   16 1   
    31   15   17 1   
    32   17   26 1   
    33   17   29 1   
    34   18   19 1   
    35   20   21 1   
    36   24   25 1   
    37   24   29 1   
    38   25   29 1   
    39   29   30 1   
@<TRIPOS>SUBSTRUCTURE
     1 0J2         1 TEMP              0 ****  ****    0 ROOT
