@<TRIPOS>MOLECULE
0J2
   29    30     1     0     0
SMALL
bcc


@<TRIPOS>ATOM
      1 C1         -3.2140    0.7120    0.2440 c3        1 0J2     -0.194400
      2 C2         -2.7170   -0.8990   -1.6090 c3        1 0J2     -0.098100
      3 C3         -4.5890    0.1600    0.6760 c         1 0J2      0.910600
      4 O1         -4.8970    0.2560    1.8970 o         1 0J2     -0.845300
      5 O2         -5.3510   -0.3300   -0.2070 o         1 0J2     -0.845300
      6 N1         -0.5400    1.2560   -0.7570 nc        1 0J2     -0.399400
      7 N2          0.7310    1.6540   -0.8170 na        1 0J2     -0.398100
      8 C4         -2.2920   -0.3900   -0.2450 c3        1 0J2     -0.070000
      9 C5          2.6740   -1.2060    0.5860 c         1 0J2      0.742700
     10 C6          1.5540   -0.4050    0.1320 cc        1 0J2     -0.419400
     11 N4          3.9580   -0.5780    0.5340 n         1 0J2     -0.515400
     12 C7          1.8020    0.9040   -0.3450 cd        1 0J2      0.425600
     13 C8         -0.8450    0.0580   -0.3040 cd        1 0J2      0.338300
     14 C9          0.1910   -0.9290    0.1630 c         1 0J2      0.483000
     15 N5          3.0730    1.4840   -0.3740 nd        1 0J2     -0.738300
     16 O4         -0.1030   -2.0720    0.5270 o         1 0J2     -0.512100
     17 C10         4.1060    0.7190    0.0380 cc        1 0J2      0.702800
     18 H1         -3.3790    1.4630   -0.5680 hc        1 0J2      0.030200
     19 H2         -2.7520    1.2310    1.1200 hc        1 0J2      0.030200
     20 H3         -3.8090   -1.1560   -1.5570 hc        1 0J2      0.045033
     21 H4         -2.5740   -0.1160   -2.3900 hc        1 0J2      0.045033
     22 H5         -2.1300   -1.8050   -1.8920 hc        1 0J2      0.045033
     23 H7         -2.3370   -1.2440    0.4920 hc        1 0J2      0.090700
     24 H8          5.4600    2.2020   -0.3330 hn        1 0J2      0.414300
     25 H9          6.0450    0.9800    0.6440 hn        1 0J2      0.414300
     26 H10         4.7500   -1.1230    0.7900 hn        1 0J2      0.327500
     27 H11         0.8520    2.6060   -1.1020 hn        1 0J2      0.480800
     28 O3          2.6740   -2.3670    1.0200 o         1 0J2     -0.595500
     29 N3          5.4190    1.2360   -0.0860 nh        1 0J2     -0.895800
@<TRIPOS>BOND
     1    1    3 1   
     2    1    8 1   
     3    1   18 1   
     4    1   19 1   
     5    2    8 1   
     6    2   20 1   
     7    2   21 1   
     8    2   22 1   
     9    3    4 1   
    10    3    5 1   
    11    6    7 1   
    12    6   13 2   
    13    7   12 1   
    14    7   27 1   
    15    8   13 1   
    16    8   23 1   
    17    9   10 1   
    18    9   11 1   
    19    9   28 2   
    20   10   12 2   
    21   10   14 1   
    22   11   17 1   
    23   11   26 1   
    24   12   15 1   
    25   13   14 1   
    26   14   16 2   
    27   15   17 2   
    28   17   29 1   
    29   24   29 1   
    30   25   29 1   
@<TRIPOS>SUBSTRUCTURE
     1 0J2         1 TEMP              0 ****  ****    0 ROOT
