@<TRIPOS>MOLECULE
0J3
   54    46     1     0     0
SMALL
bcc


@<TRIPOS>ATOM
      1 CAQ         1.2070    4.8320   -0.7140 c3        1 0J3     -0.061000
      2 CAO         2.6230    4.5150   -0.2550 c3        1 0J3     -0.099500
      3 NBD         2.7320    4.4510    1.1690 n3        1 0J3     -0.257000
      4 CAA         4.0540    4.0110    1.5310 c3        1 0J3     -0.119000
      5 CAP         1.7620    3.5810    1.7570 c3        1 0J3     -0.099500
      6 CAR         0.3450    3.8970    1.2970 c3        1 0J3     -0.061000
      7 NBE         0.2360    3.9610   -0.1260 n3        1 0J3     -0.219000
      8 CAX         0.3760    2.6290   -0.6840 c1        1 0J3      0.004000
      9 CAM         0.2140    1.2680   -0.5600 c1        1 0J3     -0.155000
     10 CBB        -0.9340    0.6550   -1.0620 c1        1 0J3     -0.028000
     11 CAJ        -0.6100    3.3960   -1.3130 c1        1 0J3     -0.054000
     12 NAT        -1.7390    2.7920   -1.8060 n1        1 0J3     -0.114000
     13 CBA        -1.9060    1.4160   -1.6820 c1        1 0J3     -0.025000
     14 CAN        -3.1170    0.8160   -2.0940 c1        1 0J3     -0.045000
     15 CAY        -3.3320   -0.5470   -1.8750 c1        1 0J3     -0.138000
     16 CBF        -4.7220   -0.3130   -1.2980 c2        1 0J3      0.467000
     17 FAE        -5.5650    0.0280   -2.2860 f         1 0J3     -0.164333
     18 FAF        -4.6710    0.6760   -0.3920 f         1 0J3     -0.164333
     19 FAD        -5.1560   -1.4370   -0.7080 f         1 0J3     -0.164333
     20 CAL        -2.3480   -1.3180   -1.2460 c1        1 0J3     -0.103000
     21 CAZ        -1.1530   -0.7280   -0.8390 c1        1 0J3      0.028000
     22 NAU        -0.8890   -2.0280   -0.2520 n3        1 0J3     -0.259000
     23 CAS         0.2990   -2.7640   -0.6270 c3        1 0J3     -0.033000
     24 CAV         0.1840   -4.2170   -0.1260 c1        1 0J3     -0.132000
     25 CAK         0.5180   -4.5290    1.1890 c1        1 0J3     -0.103000
     26 CAH        -0.2310   -5.2210   -0.9950 c1        1 0J3     -0.073000
     27 CAG        -0.3130   -6.5380   -0.5490 c1        1 0J3     -0.099500
     28 CAI         0.0210   -6.8490    0.7650 c1        1 0J3     -0.099500
     29 CAW         0.4370   -5.8450    1.6350 c1        1 0J3     -0.138000
     30 NBC         0.8020   -6.1690    2.9770 n1        1 0J3      0.568000
     31 OAC         2.0330   -5.8160    3.4540 os        1 0J3     -0.358000
     32 OAB         0.0360   -6.8160    3.6810 o         1 0J3     -0.353000
     33 H1          1.1620    4.7430   -1.6930 h1        1 0J3      0.107000
     34 H2          0.9920    5.7620   -0.4680 h1        1 0J3      0.107000
     35 H3          3.2300    5.2150   -0.5900 h1        1 0J3      0.077250
     36 H4          2.8940    3.6510   -0.6340 h1        1 0J3      0.077250
     37 H6          4.1070    3.8990    2.5060 h1        1 0J3      0.074000
     38 H7          4.7140    4.6820    1.2420 h1        1 0J3      0.074000
     39 H8          4.2450    3.1530    1.0930 h1        1 0J3      0.074000
     40 H9          1.9760    2.6550    1.5120 h1        1 0J3      0.077250
     41 H10         1.8060    3.6700    2.7380 h1        1 0J3      0.077250
     42 H11         0.0730    4.7650    1.6770 h1        1 0J3      0.107000
     43 H12        -0.2620    3.1990    1.6320 h1        1 0J3      0.107000
     44 H13         0.9410    0.7200   -0.1950 ha        1 0J3      0.154000
     45 H14        -0.4660    4.3560   -1.4570 ha        1 0J3      0.171000
     46 H15        -3.7990    1.3520   -2.5550 ha        1 0J3      0.171000
     47 H16        -2.5000   -2.2750   -1.0920 ha        1 0J3      0.161000
     48 H17        -1.4850   -2.3920    0.3460 hn        1 0J3      0.182000
     49 H18         0.3910   -2.7610   -1.6050 h1        1 0J3      0.109000
     50 H19         1.0880   -2.3390   -0.2230 h1        1 0J3      0.109000
     51 H20         0.8110   -3.8210    1.8020 ha        1 0J3      0.161000
     52 H21        -0.4670   -5.0020   -1.9210 ha        1 0J3      0.148000
     53 H22        -0.6060   -7.2460   -1.1620 ha        1 0J3      0.163500
     54 H23        -0.0360   -7.7780    1.0800 ha        1 0J3      0.163500
@<TRIPOS>BOND
     1    1    2 1   
     2    1    7 1   
     3    1   33 1   
     4    1   34 1   
     5    2    3 1   
     6    2   35 1   
     7    2   36 1   
     8    3    4 1   
     9    3    5 1   
    10    4   37 1   
    11    4   38 1   
    12    4   39 1   
    13    5    6 1   
    14    5   40 1   
    15    5   41 1   
    16    6    7 1   
    17    6   42 1   
    18    6   43 1   
    19    7    8 1   
    20    8   11 1   
    21    9   10 1   
    22    9   44 1   
    23   10   21 1   
    24   11   45 1   
    25   12   13 1   
    26   13   14 1   
    27   14   46 1   
    28   15   20 1   
    29   16   17 1   
    30   16   18 1   
    31   16   19 1   
    32   20   47 1   
    33   21   22 1   
    34   22   23 1   
    35   22   48 1   
    36   23   24 1   
    37   23   49 1   
    38   23   50 1   
    39   24   26 1   
    40   25   29 1   
    41   25   51 1   
    42   26   52 1   
    43   27   28 1   
    44   27   53 1   
    45   28   54 1   
    46   30   32 1   
@<TRIPOS>SUBSTRUCTURE
     1 0J3         1 TEMP              0 ****  ****    0 ROOT
