@<TRIPOS>MOLECULE
0J3
   54    57     1     0     0
SMALL
bcc


@<TRIPOS>ATOM
      1 CAQ         0.0540   -0.2000    0.0030 c3        1 0J3      0.187800
      2 CAO         1.5870   -0.1050   -0.1350 c3        1 0J3      0.164300
      3 NBD         2.2600    0.0850    1.1420 n3        1 0J3     -0.732600
      4 CAA         3.6960    0.1650    1.0070 c3        1 0J3      0.156100
      5 CAP         1.7040    1.2050    1.8860 c3        1 0J3      0.164300
      6 CAR         0.1720    1.1220    2.0380 c3        1 0J3      0.187800
      7 NBE        -0.5060    0.9000    0.7690 nh        1 0J3     -0.634000
      8 CAX        -1.9110    1.0070    0.7910 ca        1 0J3      0.038300
      9 CAM        -2.5500    2.1140    1.3480 ca        1 0J3     -0.147000
     10 CBB        -3.9630    2.2450    1.2840 ca        1 0J3     -0.118300
     11 CAJ        -2.7640    0.0240    0.1510 ca        1 0J3      0.386200
     12 NAT        -4.0720    0.1240    0.0590 nb        1 0J3     -0.633000
     13 CBA        -4.6990    1.2230    0.6140 ca        1 0J3      0.381600
     14 CAN        -6.1220    1.3210    0.5010 ca        1 0J3     -0.132300
     15 CAY        -6.7620    2.4040    1.0460 ca        1 0J3     -0.135300
     16 CBF        -8.2770    2.5490    0.9270 c3        1 0J3      0.687200
     17 FAE        -8.9430    1.4050    0.5630 f         1 0J3     -0.236967
     18 FAF        -8.8990    2.9450    2.0880 f         1 0J3     -0.236967
     19 FAD        -8.6800    3.4820    0.0010 f         1 0J3     -0.236967
     20 CAL        -6.0600    3.4200    1.7260 ca        1 0J3     -0.171000
     21 CAZ        -4.6750    3.3670    1.8570 ca        1 0J3      0.153600
     22 NAU        -3.9540    4.4120    2.4590 nu        1 0J3     -0.724600
     23 CAS        -4.6870    5.3820    3.2470 c3        1 0J3      0.225100
     24 CAV        -3.7790    6.3350    3.9700 ca        1 0J3     -0.115300
     25 CAK        -3.8310    6.4210    5.3620 ca        1 0J3     -0.060000
     26 CAH        -2.9060    7.1570    3.2480 ca        1 0J3     -0.069000
     27 CAG        -2.0870    8.0680    3.9120 ca        1 0J3     -0.142000
     28 CAI        -2.1260    8.1730    5.3010 ca        1 0J3     -0.061000
     29 CAW        -3.0020    7.3440    6.0200 ca        1 0J3     -0.178200
     30 NBC        -3.0510    7.4420    7.5030 no        1 0J3      0.313200
     31 OAC        -2.3420    8.2390    8.0570 o         1 0J3     -0.205500
     32 OAB        -3.7980    6.7210    8.1090 o         1 0J3     -0.205500
     33 H1         -0.2050   -1.1970    0.4650 h1        1 0J3      0.046450
     34 H2         -0.3790   -0.1640   -1.0370 h1        1 0J3      0.046450
     35 H3          1.9480   -1.0780   -0.5740 h1        1 0J3      0.042450
     36 H4          1.8350    0.7190   -0.8660 h1        1 0J3      0.042450
     37 H6          4.0620   -0.7670    0.5020 h1        1 0J3      0.035700
     38 H7          4.1510    0.2240    2.0300 h1        1 0J3      0.035700
     39 H8          4.0400    1.0540    0.4100 h1        1 0J3      0.035700
     40 H9          1.9680    2.1950    1.4110 h1        1 0J3      0.042450
     41 H10         2.1490    1.1870    2.9200 h1        1 0J3      0.042450
     42 H11        -0.0750    0.3020    2.7730 h1        1 0J3      0.046450
     43 H12        -0.1750    2.0990    2.4730 h1        1 0J3      0.046450
     44 H13        -1.9450    2.9050    1.8150 ha        1 0J3      0.141000
     45 H14        -2.3300   -0.8860   -0.3060 h4        1 0J3      0.030100
     46 H15        -6.6830    0.5270   -0.0200 ha        1 0J3      0.170000
     47 H16        -6.6510    4.2510    2.1450 ha        1 0J3      0.150000
     48 H17        -3.1120    4.1090    2.9060 hn        1 0J3      0.400800
     49 H18        -5.3750    4.8800    3.9920 h1        1 0J3      0.058200
     50 H19        -5.3340    5.9790    2.5370 h1        1 0J3      0.058200
     51 H20        -4.5150    5.7780    5.9430 ha        1 0J3      0.174000
     52 H21        -2.8730    7.0820    2.1480 ha        1 0J3      0.158000
     53 H22        -1.4040    8.7140    3.3390 ha        1 0J3      0.152000
     54 H23        -1.4810    8.8960    5.8300 ha        1 0J3      0.173000
@<TRIPOS>BOND
     1    1    2 1   
     2    1    7 1   
     3    1   33 1   
     4    1   34 1   
     5    2    3 1   
     6    2   35 1   
     7    2   36 1   
     8    3    4 1   
     9    3    5 1   
    10    4   37 1   
    11    4   38 1   
    12    4   39 1   
    13    5    6 1   
    14    5   40 1   
    15    5   41 1   
    16    6    7 1   
    17    6   42 1   
    18    6   43 1   
    19    7    8 1   
    20    8    9 ar  
    21    8   11 ar  
    22    9   10 ar  
    23    9   44 1   
    24   10   13 ar  
    25   10   21 ar  
    26   11   12 ar  
    27   11   45 1   
    28   12   13 ar  
    29   13   14 ar  
    30   14   15 ar  
    31   14   46 1   
    32   15   16 1   
    33   15   20 ar  
    34   16   17 1   
    35   16   18 1   
    36   16   19 1   
    37   20   21 ar  
    38   20   47 1   
    39   21   22 1   
    40   22   23 1   
    41   22   48 1   
    42   23   24 1   
    43   23   49 1   
    44   23   50 1   
    45   24   25 ar  
    46   24   26 ar  
    47   25   29 ar  
    48   25   51 1   
    49   26   27 ar  
    50   26   52 1   
    51   27   28 ar  
    52   27   53 1   
    53   28   29 ar  
    54   28   54 1   
    55   29   30 1   
    56   30   31 1   
    57   30   32 1   
@<TRIPOS>SUBSTRUCTURE
     1 0J3         1 TEMP              0 ****  ****    0 ROOT
