@<TRIPOS>MOLECULE
0J3
   54    57     1     0     0
SMALL
bcc


@<TRIPOS>ATOM
      1 CAQ         0.0540   -0.2030    0.0060 c3        1 0J3      0.187800
      2 CAO         1.5880   -0.1070   -0.1330 c3        1 0J3      0.164300
      3 NBD         2.2610    0.0850    1.1430 n3        1 0J3     -0.732600
      4 CAA         3.6970    0.1660    1.0060 c3        1 0J3      0.156100
      5 CAP         1.7060    1.2060    1.8860 c3        1 0J3      0.164300
      6 CAR         0.1740    1.1220    2.0390 c3        1 0J3      0.187800
      7 NBE        -0.5060    0.8980    0.7720 nh        1 0J3     -0.634000
      8 CAX        -1.9100    1.0050    0.7950 ca        1 0J3      0.038300
      9 CAM        -2.5500    2.1120    1.3500 ca        1 0J3     -0.147000
     10 CBB        -3.9630    2.2430    1.2870 ca        1 0J3     -0.118300
     11 CAJ        -2.7640    0.0200    0.1570 ca        1 0J3      0.386200
     12 NAT        -4.0710    0.1190    0.0670 nb        1 0J3     -0.633000
     13 CBA        -4.6990    1.2180    0.6200 ca        1 0J3      0.381600
     14 CAN        -6.1220    1.3160    0.5080 ca        1 0J3     -0.132300
     15 CAY        -6.7630    2.3990    1.0510 ca        1 0J3     -0.135300
     16 CBF        -8.2770    2.5430    0.9330 c3        1 0J3      0.687200
     17 FAE        -8.9430    1.3980    0.5730 f         1 0J3     -0.236967
     18 FAF        -8.8990    2.9420    2.0930 f         1 0J3     -0.236967
     19 FAD        -8.6810    3.4740    0.0050 f         1 0J3     -0.236967
     20 CAL        -6.0600    3.4170    1.7290 ca        1 0J3     -0.171000
     21 CAZ        -4.6750    3.3650    1.8580 ca        1 0J3      0.153600
     22 NAU        -3.9540    4.4120    2.4580 nh        1 0J3     -0.724600
     23 CAS        -4.6880    5.3830    3.2440 c3        1 0J3      0.225100
     24 CAV        -3.7790    6.3370    3.9660 ca        1 0J3     -0.114300
     25 CAK        -3.8320    6.4270    5.3570 ca        1 0J3     -0.060000
     26 CAH        -2.9070    7.1580    3.2410 ca        1 0J3     -0.069000
     27 CAG        -2.0870    8.0700    3.9030 ca        1 0J3     -0.142000
     28 CAI        -2.1270    8.1790    5.2920 ca        1 0J3     -0.061000
     29 CAW        -3.0030    7.3520    6.0130 ca        1 0J3     -0.178200
     30 NBC        -3.0530    7.4550    7.4960 no        1 0J3      0.313200
     31 OAC        -2.3440    8.2530    8.0470 o         1 0J3     -0.205500
     32 OAB        -3.8000    6.7350    8.1030 o         1 0J3     -0.205500
     33 H1         -0.2030   -1.1990    0.4700 h1        1 0J3      0.046450
     34 H2         -0.3800   -0.1680   -1.0330 h1        1 0J3      0.046450
     35 H3          1.9480   -1.0800   -0.5710 h1        1 0J3      0.042450
     36 H4          1.8340    0.7170   -0.8650 h1        1 0J3      0.042450
     37 H6          4.0640   -0.7660    0.5020 h1        1 0J3      0.035700
     38 H7          4.0400    1.0550    0.4080 h1        1 0J3      0.035700
     39 H8          4.1530    0.2270    2.0290 h1        1 0J3      0.035700
     40 H9          2.1510    1.1900    2.9200 h1        1 0J3      0.042450
     41 H10         1.9680    2.1960    1.4090 h1        1 0J3      0.042450
     42 H11        -0.0730    0.3030    2.7760 h1        1 0J3      0.046450
     43 H12        -0.1740    2.1000    2.4740 h1        1 0J3      0.046450
     44 H13        -1.9450    2.9040    1.8150 ha        1 0J3      0.141000
     45 H14        -2.3300   -0.8910   -0.2990 h4        1 0J3      0.030100
     46 H15        -6.6830    0.5200   -0.0110 ha        1 0J3      0.170000
     47 H16        -6.6510    4.2480    2.1460 ha        1 0J3      0.150000
     48 H17        -3.1120    4.1100    2.9050 hn        1 0J3      0.400800
     49 H18        -5.3350    5.9780    2.5350 h1        1 0J3      0.058200
     50 H19        -5.3740    4.8810    3.9910 h1        1 0J3      0.058200
     51 H20        -4.5160    5.7860    5.9400 ha        1 0J3      0.174000
     52 H21        -2.8730    7.0790    2.1420 ha        1 0J3      0.158000
     53 H22        -1.4040    8.7150    3.3280 ha        1 0J3      0.152000
     54 H23        -1.4820    8.9030    5.8190 ha        1 0J3      0.173000
@<TRIPOS>BOND
     1    1    2 1   
     2    1    7 1   
     3    1   33 1   
     4    1   34 1   
     5    2    3 1   
     6    2   35 1   
     7    2   36 1   
     8    3    4 1   
     9    3    5 1   
    10    4   37 1   
    11    4   38 1   
    12    4   39 1   
    13    5    6 1   
    14    5   40 1   
    15    5   41 1   
    16    6    7 1   
    17    6   42 1   
    18    6   43 1   
    19    7    8 1   
    20    8    9 ar  
    21    8   11 ar  
    22    9   10 ar  
    23    9   44 1   
    24   10   13 ar  
    25   10   21 ar  
    26   11   12 ar  
    27   11   45 1   
    28   12   13 ar  
    29   13   14 ar  
    30   14   15 ar  
    31   14   46 1   
    32   15   16 1   
    33   15   20 ar  
    34   16   17 1   
    35   16   18 1   
    36   16   19 1   
    37   20   21 ar  
    38   20   47 1   
    39   21   22 1   
    40   22   23 1   
    41   22   48 1   
    42   23   24 1   
    43   23   49 1   
    44   23   50 1   
    45   24   25 ar  
    46   24   26 ar  
    47   25   29 ar  
    48   25   51 1   
    49   26   27 ar  
    50   26   52 1   
    51   27   28 ar  
    52   27   53 1   
    53   28   29 ar  
    54   28   54 1   
    55   29   30 1   
    56   30   31 1   
    57   30   32 1   
@<TRIPOS>SUBSTRUCTURE
     1 0J3         1 TEMP              0 ****  ****    0 ROOT
