@<TRIPOS>MOLECULE
0J3
   54    57     1     0     0
SMALL
bcc


@<TRIPOS>ATOM
      1 CAQ         5.0030    1.9580   -0.1470 c3        1 0J3      0.187800
      2 CAO         5.4690    3.3690   -0.5590 c3        1 0J3      0.164300
      3 NBD         4.7920    4.4270    0.1750 n3        1 0J3     -0.732600
      4 CAA         5.2380    5.7460   -0.2100 c3        1 0J3      0.156100
      5 CAP         3.3440    4.2870    0.1170 c3        1 0J3      0.164300
      6 CAR         2.8620    2.8830    0.5340 c3        1 0J3      0.187800
      7 NBE         3.5570    1.8180   -0.1740 nh        1 0J3     -0.634000
      8 CAX         3.0420    0.5180    0.0020 ca        1 0J3      0.038300
      9 CAM         1.6880    0.2390   -0.1760 ca        1 0J3     -0.147000
     10 CBB         1.2020   -1.0930   -0.0790 ca        1 0J3     -0.118300
     11 CAJ         3.9040   -0.6160    0.2800 ca        1 0J3      0.386200
     12 NAT         3.4890   -1.8600    0.3600 nb        1 0J3     -0.633000
     13 CBA         2.1460   -2.1310    0.1840 ca        1 0J3      0.381600
     14 CAN         1.7090   -3.4910    0.2670 ca        1 0J3     -0.132300
     15 CAY         0.3810   -3.7780    0.0950 ca        1 0J3     -0.135300
     16 CBF        -0.1160   -5.2200    0.1590 c3        1 0J3      0.687200
     17 FAE         0.7660   -6.1130    0.7170 f         1 0J3     -0.236967
     18 FAF        -1.2700   -5.3880    0.8860 f         1 0J3     -0.236967
     19 FAD        -0.4140   -5.7650   -1.0670 f         1 0J3     -0.236967
     20 CAL        -0.5750   -2.7690   -0.1500 ca        1 0J3     -0.171000
     21 CAZ        -0.1950   -1.4330   -0.2430 ca        1 0J3      0.153600
     22 NAU        -1.1210   -0.4280   -0.5680 nh        1 0J3     -0.724600
     23 CAS        -2.5320   -0.7420   -0.4700 c3        1 0J3      0.225100
     24 CAV        -3.4010    0.4660   -0.6760 ca        1 0J3     -0.114300
     25 CAK        -4.2860    0.8630    0.3280 ca        1 0J3     -0.060000
     26 CAH        -3.3480    1.1700   -1.8840 ca        1 0J3     -0.069000
     27 CAG        -4.1790    2.2700   -2.0940 ca        1 0J3     -0.142000
     28 CAI        -5.0720    2.6810   -1.1070 ca        1 0J3     -0.061000
     29 CAW        -5.1190    1.9710    0.1040 ca        1 0J3     -0.178200
     30 NBC        -6.0640    2.4010    1.1690 no        1 0J3      0.313200
     31 OAC        -6.7770    3.3470    0.9660 o         1 0J3     -0.205500
     32 OAB        -6.0890    1.7910    2.2040 o         1 0J3     -0.205500
     33 H1          5.4440    1.2300   -0.8850 h1        1 0J3      0.046450
     34 H2          5.4190    1.7270    0.8770 h1        1 0J3      0.046450
     35 H3          6.5700    3.4410   -0.3330 h1        1 0J3      0.042450
     36 H4          5.3350    3.4820   -1.6750 h1        1 0J3      0.042450
     37 H6          5.0070    6.0000   -1.2810 h1        1 0J3      0.035700
     38 H7          4.7410    6.5020    0.4520 h1        1 0J3      0.035700
     39 H8          6.3480    5.8080   -0.0600 h1        1 0J3      0.035700
     40 H9          2.8970    5.0270    0.8380 h1        1 0J3      0.042450
     41 H10         2.9420    4.5170   -0.9130 h1        1 0J3      0.042450
     42 H11         2.9890    2.7710    1.6500 h1        1 0J3      0.046450
     43 H12         1.7630    2.8220    0.2990 h1        1 0J3      0.046450
     44 H13         0.9980    1.0590   -0.4230 ha        1 0J3      0.141000
     45 H14         4.9890   -0.4720    0.4430 h4        1 0J3      0.030100
     46 H15         2.4460   -4.2870    0.4680 ha        1 0J3      0.170000
     47 H16        -1.6240   -3.0840   -0.2650 ha        1 0J3      0.150000
     48 H17        -0.8950    0.4630   -0.1730 hn        1 0J3      0.400800
     49 H18        -2.7710   -1.4930   -1.2800 h1        1 0J3      0.058200
     50 H19        -2.7840   -1.2210    0.5230 h1        1 0J3      0.058200
     51 H20        -4.3370    0.3150    1.2850 ha        1 0J3      0.174000
     52 H21        -2.6460    0.8490   -2.6710 ha        1 0J3      0.159000
     53 H22        -4.1340    2.8190   -3.0470 ha        1 0J3      0.152000
     54 H23        -5.7330    3.5490   -1.2700 ha        1 0J3      0.173000
@<TRIPOS>BOND
     1    1    2 1   
     2    1    7 1   
     3    1   33 1   
     4    1   34 1   
     5    2    3 1   
     6    2   35 1   
     7    2   36 1   
     8    3    4 1   
     9    3    5 1   
    10    4   37 1   
    11    4   38 1   
    12    4   39 1   
    13    5    6 1   
    14    5   40 1   
    15    5   41 1   
    16    6    7 1   
    17    6   42 1   
    18    6   43 1   
    19    7    8 1   
    20    8    9 ar  
    21    8   11 ar  
    22    9   10 ar  
    23    9   44 1   
    24   10   13 ar  
    25   10   21 ar  
    26   11   12 ar  
    27   11   45 1   
    28   12   13 ar  
    29   13   14 ar  
    30   14   15 ar  
    31   14   46 1   
    32   15   16 1   
    33   15   20 ar  
    34   16   17 1   
    35   16   18 1   
    36   16   19 1   
    37   20   21 ar  
    38   20   47 1   
    39   21   22 1   
    40   22   23 1   
    41   22   48 1   
    42   23   24 1   
    43   23   49 1   
    44   23   50 1   
    45   24   25 ar  
    46   24   26 ar  
    47   25   29 ar  
    48   25   51 1   
    49   26   27 ar  
    50   26   52 1   
    51   27   28 ar  
    52   27   53 1   
    53   28   29 ar  
    54   28   54 1   
    55   29   30 1   
    56   30   31 1   
    57   30   32 1   
@<TRIPOS>SUBSTRUCTURE
     1 0J3         1 TEMP              0 ****  ****    0 ROOT
