@<TRIPOS>MOLECULE
0J4
   26    27     1     0     0
SMALL
bcc


@<TRIPOS>ATOM
      1 O1         -1.8870   -2.3380   -1.3410 o         1 0J4     -0.607500
      2 C4         -2.0140   -1.2450   -0.7700 c         1 0J4      0.743700
      3 N1         -3.3420   -0.9390   -0.3390 n         1 0J4     -0.514400
      4 C1         -3.6340    0.2730    0.2900 cc        1 0J4      0.688800
      5 N5         -4.9940    0.5430    0.6090 nh        1 0J4     -0.889800
      6 N2         -2.7090    1.2140    0.5630 nd        1 0J4     -0.730300
      7 C2         -1.3970    0.9590    0.1500 cd        1 0J4      0.413600
      8 C3         -1.0070   -0.2420   -0.4840 cc        1 0J4     -0.409400
      9 C6          0.3990   -0.4660   -0.8150 c         1 0J4      0.493000
     10 O2          0.8100   -1.4230   -1.4790 o         1 0J4     -0.530100
     11 N3         -0.4430    1.9610    0.3310 na        1 0J4     -0.377100
     12 N4          0.8720    1.7400    0.2150 nc        1 0J4     -0.410400
     13 C5          1.3170    0.6170   -0.3090 cd        1 0J4      0.397300
     14 C7          2.7890    0.3330   -0.3520 c3        1 0J4     -0.245000
     15 C10         3.5720    1.4310   -1.0300 c3        1 0J4     -0.061100
     16 C8          3.3510    0.0900    1.0910 c         1 0J4      0.932600
     17 O4          4.6040   -0.0010    1.1930 o         1 0J4     -0.828300
     18 O3          2.5340   -0.0220    2.0430 o         1 0J4     -0.828300
     19 H1         -5.4850   -0.2380    0.9870 hn        1 0J4      0.406300
     20 H2         -5.1210    1.3780    1.1430 hn        1 0J4      0.406300
     21 H5          2.9390   -0.6310   -0.9120 hc        1 0J4      0.077700
     22 H6          4.6560    1.1570   -1.0080 hc        1 0J4      0.026033
     23 H7          3.2460    1.5610   -2.0910 hc        1 0J4      0.026033
     24 H8          3.4500    2.4030   -0.4960 hc        1 0J4      0.026033
     25 H4         -4.0630   -1.5910   -0.5540 hn        1 0J4      0.324500
     26 H3         -0.6510    2.7260    0.9490 hn        1 0J4      0.467800
@<TRIPOS>BOND
     1    1    2 2   
     2    2    3 1   
     3    2    8 1   
     4    3    4 1   
     5    3   25 1   
     6    4    5 1   
     7    4    6 2   
     8    5   19 1   
     9    5   20 1   
    10    6    7 1   
    11    7    8 2   
    12    7   11 1   
    13    8    9 1   
    14    9   10 2   
    15    9   13 1   
    16   11   12 1   
    17   11   26 1   
    18   12   13 2   
    19   13   14 1   
    20   14   15 1   
    21   14   16 1   
    22   14   21 1   
    23   15   22 1   
    24   15   23 1   
    25   15   24 1   
    26   16   17 1   
    27   16   18 1   
@<TRIPOS>SUBSTRUCTURE
     1 0J4         1 TEMP              0 ****  ****    0 ROOT
