@<TRIPOS>MOLECULE
0J4
   26    24     1     0     0
SMALL
bcc


@<TRIPOS>ATOM
      1 O1         -2.2880   -0.0420    2.3360 o         1 0J4     -0.332000
      2 C4         -1.0730   -0.0420    2.3360 c1        1 0J4      0.382000
      3 N1         -0.3640   -0.0420    3.5640 n2        1 0J4     -0.354000
      4 C1          1.0950    0.0070    3.5660 c1        1 0J4      0.242000
      5 N5          1.8010    0.0060    4.7960 n2        1 0J4     -0.328000
      6 N2          1.8290    0.0560    2.3040 n1        1 0J4     -0.302000
      7 C2          1.1150    0.0560    1.0530 c1        1 0J4      0.191000
      8 C3         -0.3280    0.0080    1.0470 c2        1 0J4     -0.371000
      9 C6         -1.0520    0.0080   -0.2270 c2        1 0J4      0.304000
     10 O2         -2.2660    0.0450   -0.2360 o         1 0J4     -0.291000
     11 N3          1.8580    0.1060   -0.2240 n3        1 0J4     -0.177000
     12 N4          1.1420    0.1060   -1.4820 n2        1 0J4     -0.036000
     13 C5         -0.3030    0.0580   -1.4960 c2        1 0J4     -0.035000
     14 C7         -1.0460    0.0420   -2.8140 c3        1 0J4     -0.159000
     15 C10        -0.3600    0.9700   -3.7920 c3        1 0J4     -0.179000
     16 C8         -1.0530   -1.3640   -3.3730 c2        1 0J4      0.352000
     17 O4         -0.0350   -2.0950   -3.2480 o         1 0J4     -0.563000
     18 O3         -2.0790   -1.8070   -3.9520 o         1 0J4     -0.563000
     19 H1          2.7130    0.0280    4.7990 hn        1 0J4      0.201500
     20 H2          1.3440   -0.0190    5.5850 hn        1 0J4      0.201500
     21 H5         -1.9650    0.3400   -2.6730 hc        1 0J4      0.117000
     22 H6         -0.8840    1.0230   -4.6130 hc        1 0J4      0.065333
     23 H7         -0.2830    1.8600   -3.3970 hc        1 0J4      0.065333
     24 H8          0.5310    0.6270   -3.9950 hc        1 0J4      0.065333
     25 H4         -0.8200   -0.0720    4.3540 hn        1 0J4      0.238000
     26 H3          2.7700    0.1360   -0.2190 hn        1 0J4      0.263000
@<TRIPOS>BOND
     1    1    2 1   
     2    2    8 1   
     3    3    4 1   
     4    3   25 1   
     5    4    6 1   
     6    5   19 1   
     7    5   20 1   
     8    7    8 1   
     9    7   11 1   
    10    8    9 1   
    11    9   10 1   
    12    9   13 1   
    13   11   12 1   
    14   11   26 1   
    15   12   13 1   
    16   13   14 1   
    17   14   15 1   
    18   14   16 1   
    19   14   21 1   
    20   15   22 1   
    21   15   23 1   
    22   15   24 1   
    23   16   17 1   
    24   16   18 1   
@<TRIPOS>SUBSTRUCTURE
     1 0J4         1 TEMP              0 ****  ****    0 ROOT
