@<TRIPOS>MOLECULE
0J4
   27    28     1     0     0
SMALL
bcc


@<TRIPOS>ATOM
      1 O1         -0.0960    0.6380    0.0050 o         1 0J4     -0.523500
      2 C4          1.1100    0.4620   -0.1560 c         1 0J4      0.752700
      3 N1          1.8090    0.0290    1.0450 n         1 0J4     -0.507400
      4 C1          3.1730   -0.1740    0.9750 cc        1 0J4      0.561800
      5 N5          3.8660   -0.7140    2.2040 n4        1 0J4     -0.814600
      6 N2          3.9700    0.0480   -0.0570 nd        1 0J4     -0.622300
      7 C2          3.3360    0.4290   -1.2620 cd        1 0J4      0.371600
      8 C3          1.9430    0.6250   -1.3280 cc        1 0J4     -0.325400
      9 C6          1.3330    0.8590   -2.6500 c         1 0J4      0.501000
     10 O2          0.2320    1.3750   -2.8240 o         1 0J4     -0.479100
     11 N3          4.1060    0.6310   -2.4110 na        1 0J4     -0.340100
     12 N4          3.5640    0.4110   -3.6260 nc        1 0J4     -0.436400
     13 C5          2.2530    0.4390   -3.7720 cd        1 0J4      0.446300
     14 C7          1.5730   -0.1840   -4.9420 c3        1 0J4     -0.265000
     15 C10         2.3140   -0.0770   -6.2460 c3        1 0J4     -0.064100
     16 C8          1.3750   -1.7130   -4.5530 c         1 0J4      0.942600
     17 O4          0.8770   -2.4490   -5.4320 o         1 0J4     -0.811300
     18 O3          1.7240   -2.0500   -3.3870 o         1 0J4     -0.811300
     19 H1          4.8830   -0.7440    2.0410 hn        1 0J4      0.474467
     20 H2          3.5270   -1.6650    2.3830 hn        1 0J4      0.474467
     21 H5          0.5460    0.2620   -5.0460 hc        1 0J4      0.084700
     22 H6          2.4340    0.9890   -6.5550 hc        1 0J4      0.037033
     23 H7          1.7300   -0.6240   -7.0290 hc        1 0J4      0.037033
     24 H8          3.3240   -0.5480   -6.1810 hc        1 0J4      0.037033
     25 H4          1.2660   -0.2000    1.8480 hn        1 0J4      0.337500
     26 H3          5.0760    0.3600   -2.3900 hn        1 0J4      0.468800
     27 H53         3.6690   -0.1120    3.0090 hn        1 0J4      0.474467
@<TRIPOS>BOND
     1    1    2 2   
     2    2    3 1   
     3    2    8 1   
     4    3    4 1   
     5    3   25 1   
     6    4    5 1   
     7    4    6 2   
     8    5   19 1   
     9    5   20 1   
    10    5   27 1   
    11    6    7 1   
    12    7    8 2   
    13    7   11 1   
    14    8    9 1   
    15    9   10 2   
    16    9   13 1   
    17   11   12 1   
    18   11   26 1   
    19   12   13 2   
    20   13   14 1   
    21   14   15 1   
    22   14   16 1   
    23   14   21 1   
    24   15   22 1   
    25   15   23 1   
    26   15   24 1   
    27   16   17 1   
    28   16   18 1   
@<TRIPOS>SUBSTRUCTURE
     1 0J4         1 TEMP              0 ****  ****    0 ROOT
