@<TRIPOS>MOLECULE
0J4
   27    28     1     0     0
SMALL
bcc


@<TRIPOS>ATOM
      1 O1         -0.0880    0.6840   -0.0030 o         1 0J4     -0.523500
      2 C4          1.1150    0.4910   -0.1610 c         1 0J4      0.752700
      3 N1          1.8080    0.0560    1.0430 ns        1 0J4     -0.507400
      4 C1          3.1690   -0.1660    0.9760 cc        1 0J4      0.561800
      5 N5          3.8530   -0.7070    2.2090 nz        1 0J4     -0.814600
      6 N2          3.9700    0.0400   -0.0560 nd        1 0J4     -0.622300
      7 C2          3.3420    0.4220   -1.2650 cd        1 0J4      0.371600
      8 C3          1.9520    0.6360   -1.3340 cc        1 0J4     -0.325400
      9 C6          1.3470    0.8700   -2.6570 c         1 0J4      0.501000
     10 O2          0.2530    1.3990   -2.8360 o         1 0J4     -0.479100
     11 N3          4.1160    0.6070   -2.4140 na        1 0J4     -0.340100
     12 N4          3.5730    0.3870   -3.6280 nc        1 0J4     -0.436400
     13 C5          2.2620    0.4310   -3.7750 cd        1 0J4      0.446300
     14 C7          1.5750   -0.1910   -4.9430 c3        1 0J4     -0.265000
     15 C10         2.3200   -0.1020   -6.2460 c3        1 0J4     -0.064100
     16 C8          1.3570   -1.7150   -4.5440 c         1 0J4      0.942600
     17 O4          0.8510   -2.4490   -5.4180 o         1 0J4     -0.811300
     18 O3          1.7000   -2.0480   -3.3750 o         1 0J4     -0.811300
     19 H1          4.8700   -0.7510    2.0470 hn        1 0J4      0.474467
     20 H2          3.6630   -0.0980    3.0100 hn        1 0J4      0.474467
     21 H5          0.5550    0.2680   -5.0510 hc        1 0J4      0.084700
     22 H6          1.7290   -0.6470   -7.0260 hc        1 0J4      0.037033
     23 H7          3.3240   -0.5860   -6.1760 hc        1 0J4      0.037033
     24 H8          2.4540    0.9600   -6.5620 hc        1 0J4      0.037033
     25 H4          1.2610   -0.1620    1.8460 hn        1 0J4      0.337500
     26 H3          5.0830    0.3240   -2.3900 hn        1 0J4      0.468800
     27 H53         3.5020   -1.6530    2.3930 hn        1 0J4      0.474467
@<TRIPOS>BOND
     1    1    2 2   
     2    2    3 1   
     3    2    8 1   
     4    3    4 1   
     5    3   25 1   
     6    4    5 1   
     7    4    6 2   
     8    5   19 1   
     9    5   20 1   
    10    5   27 1   
    11    6    7 1   
    12    7    8 2   
    13    7   11 1   
    14    8    9 1   
    15    9   10 2   
    16    9   13 1   
    17   11   12 1   
    18   11   26 1   
    19   12   13 2   
    20   13   14 1   
    21   14   15 1   
    22   14   16 1   
    23   14   21 1   
    24   15   22 1   
    25   15   23 1   
    26   15   24 1   
    27   16   17 1   
    28   16   18 1   
@<TRIPOS>SUBSTRUCTURE
     1 0J4         1 TEMP              0 ****  ****    0 ROOT
