@<TRIPOS>MOLECULE
0J4
   27    28     1     0     0
SMALL
bcc


@<TRIPOS>ATOM
      1 O1         -0.0910    0.6610    0.0020 o         1 0J4     -0.523500
      2 C4          1.1130    0.4740   -0.1570 c         1 0J4      0.752700
      3 N1          1.8080    0.0360    1.0440 n         1 0J4     -0.507400
      4 C1          3.1700   -0.1790    0.9750 cc        1 0J4      0.561800
      5 N5          3.8570   -0.7240    2.2060 n4        1 0J4     -0.814600
      6 N2          3.9700    0.0360   -0.0560 nd        1 0J4     -0.622300
      7 C2          3.3400    0.4210   -1.2620 cd        1 0J4      0.371600
      8 C3          1.9490    0.6290   -1.3290 cc        1 0J4     -0.325400
      9 C6          1.3430    0.8680   -2.6510 c         1 0J4      0.501000
     10 O2          0.2460    1.3930   -2.8260 o         1 0J4     -0.479100
     11 N3          4.1130    0.6160   -2.4100 na        1 0J4     -0.340100
     12 N4          3.5700    0.4000   -3.6250 nc        1 0J4     -0.436400
     13 C5          2.2590    0.4390   -3.7720 cd        1 0J4      0.446300
     14 C7          1.5750   -0.1790   -4.9430 c3        1 0J4     -0.265000
     15 C10         2.3180   -0.0790   -6.2460 c3        1 0J4     -0.064100
     16 C8          1.3630   -1.7060   -4.5530 c         1 0J4      0.942600
     17 O4          0.8600   -2.4380   -5.4310 o         1 0J4     -0.811300
     18 O3          1.7080   -2.0450   -3.3860 o         1 0J4     -0.811300
     19 H1          3.6640   -0.1200    3.0100 hn        1 0J4      0.474467
     20 H2          4.8740   -0.7620    2.0430 hn        1 0J4      0.474467
     21 H5          0.5530    0.2760   -5.0480 hc        1 0J4      0.084700
     22 H6          2.4470    0.9860   -6.5550 hc        1 0J4      0.037033
     23 H7          3.3240   -0.5580   -6.1790 hc        1 0J4      0.037033
     24 H8          1.7300   -0.6220   -7.0290 hc        1 0J4      0.037033
     25 H4          1.2620   -0.1880    1.8470 hn        1 0J4      0.337500
     26 H3          5.0810    0.3370   -2.3880 hn        1 0J4      0.468800
     27 H53         3.5100   -1.6720    2.3850 hn        1 0J4      0.474467
@<TRIPOS>BOND
     1    1    2 2   
     2    2    3 1   
     3    2    8 1   
     4    3    4 1   
     5    3   25 1   
     6    4    5 1   
     7    4    6 2   
     8    5   19 1   
     9    5   20 1   
    10    5   27 1   
    11    6    7 1   
    12    7    8 2   
    13    7   11 1   
    14    8    9 1   
    15    9   10 2   
    16    9   13 1   
    17   11   12 1   
    18   11   26 1   
    19   12   13 2   
    20   13   14 1   
    21   14   15 1   
    22   14   16 1   
    23   14   21 1   
    24   15   22 1   
    25   15   23 1   
    26   15   24 1   
    27   16   17 1   
    28   16   18 1   
@<TRIPOS>SUBSTRUCTURE
     1 0J4         1 TEMP              0 ****  ****    0 ROOT
