@<TRIPOS>MOLECULE
0J5
   24    25     1     0     0
SMALL
bcc


@<TRIPOS>ATOM
      1 O4          1.2910    1.7290    0.0430 o         1 0J5     -0.812300
      2 C8          2.3380    1.1260   -0.2750 c         1 0J5      0.939600
      3 O3          3.5260    1.5120   -0.0850 o         1 0J5     -0.812300
      4 C7          2.1430   -0.2690   -0.9870 c3        1 0J5     -0.283700
      5 C5          3.4880   -0.8780   -1.1130 cc        1 0J5      0.444300
      6 C6          4.2850   -0.4530   -2.3210 c         1 0J5      0.501000
      7 O2          3.8000   -0.2890   -3.4380 o         1 0J5     -0.478100
      8 C3          5.7180   -0.3130   -2.0060 cc        1 0J5     -0.328400
      9 C4          6.5650    0.5390   -2.8130 c         1 0J5      0.752700
     10 O1          6.3500    1.1070   -3.8820 o         1 0J5     -0.523500
     11 N4          4.0330   -1.5560   -0.1180 nd        1 0J5     -0.440400
     12 N3          5.3640   -1.7630   -0.1020 na        1 0J5     -0.339100
     13 C2          6.2050   -0.9200   -0.8320 cd        1 0J5      0.371600
     14 N2          7.5310   -0.7050   -0.3880 nd        1 0J5     -0.622300
     15 C1          8.2530    0.1430   -1.1010 cc        1 0J5      0.561800
     16 N5          9.6140    0.4550   -0.5220 n4        1 0J5     -0.814600
     17 N1          7.9040    0.7580   -2.2860 n         1 0J5     -0.507400
     18 H2          1.6960   -0.0940   -1.9950 hc        1 0J5      0.080700
     19 H3          1.4400   -0.8760   -0.3680 hc        1 0J5      0.080700
     20 H5          9.6390    1.4460   -0.2550 hn        1 0J5      0.474800
     21 H6          9.7730   -0.1240    0.3150 hn        1 0J5      0.474800
     22 H7          8.4890    1.4190   -2.7490 hn        1 0J5      0.337500
     23 H4          5.6740   -2.0850    0.8010 hn        1 0J5      0.469800
     24 H53        10.3410    0.2590   -1.2150 hn        1 0J5      0.474800
@<TRIPOS>BOND
     1    1    2 1   
     2    2    3 1   
     3    2    4 1   
     4    4    5 1   
     5    4   18 1   
     6    4   19 1   
     7    5    6 1   
     8    5   11 2   
     9    6    7 2   
    10    6    8 1   
    11    8    9 1   
    12    8   13 2   
    13    9   10 2   
    14    9   17 1   
    15   11   12 1   
    16   12   13 1   
    17   12   23 1   
    18   13   14 1   
    19   14   15 2   
    20   15   16 1   
    21   15   17 1   
    22   16   20 1   
    23   16   21 1   
    24   16   24 1   
    25   17   22 1   
@<TRIPOS>SUBSTRUCTURE
     1 0J5         1 TEMP              0 ****  ****    0 ROOT
