@<TRIPOS>MOLECULE
0J5
   24    25     1     0     0
SMALL
bcc


@<TRIPOS>ATOM
      1 O4          1.2610    1.9450   -0.5290 o         1 0J5     -0.812300
      2 C8          2.3170    1.2880   -0.6610 c         1 0J5      0.939600
      3 O3          3.4990    1.7170   -0.5450 o         1 0J5     -0.812300
      4 C7          2.1400   -0.2420   -1.0070 c3        1 0J5     -0.283700
      5 C5          3.4880   -0.8540   -0.9440 cc        1 0J5      0.444300
      6 C6          4.3140   -0.7390   -2.2020 c         1 0J5      0.501000
      7 O2          3.8570   -0.8610   -3.3350 o         1 0J5     -0.478100
      8 C3          5.7390   -0.5150   -1.8970 cc        1 0J5     -0.328400
      9 C4          6.6060    0.1150   -2.8710 c         1 0J5      0.752700
     10 O1          6.4170    0.3970   -4.0530 o         1 0J5     -0.523500
     11 N4          4.0080   -1.2580    0.2010 nd        1 0J5     -0.440400
     12 N3          5.3390   -1.4460    0.2990 na        1 0J5     -0.339100
     13 C2          6.1970   -0.8060   -0.5980 cd        1 0J5      0.371600
     14 N2          7.5120   -0.4790   -0.1900 nd        1 0J5     -0.622300
     15 C1          8.2510    0.1690   -1.0740 cc        1 0J5      0.561800
     16 N5          9.5970    0.6240   -0.5600 nz        1 0J5     -0.814600
     17 N1          7.9310    0.4660   -2.3840 ns        1 0J5     -0.507400
     18 H2          1.7180   -0.3260   -2.0380 hc        1 0J5      0.080700
     19 H3          1.4230   -0.6790   -0.2730 hc        1 0J5      0.080700
     20 H5          9.6150    1.6500   -0.5470 hn        1 0J5      0.474800
     21 H6          9.7360    0.2730    0.3990 hn        1 0J5      0.474800
     22 H7          8.5270    0.9950   -2.9820 hn        1 0J5      0.337500
     23 H4          5.6260   -1.5310    1.2610 hn        1 0J5      0.469800
     24 H53        10.3410    0.2660   -1.1640 hn        1 0J5      0.474800
@<TRIPOS>BOND
     1    1    2 1   
     2    2    3 1   
     3    2    4 1   
     4    4    5 1   
     5    4   18 1   
     6    4   19 1   
     7    5    6 1   
     8    5   11 2   
     9    6    7 2   
    10    6    8 1   
    11    8    9 1   
    12    8   13 2   
    13    9   10 2   
    14    9   17 1   
    15   11   12 1   
    16   12   13 1   
    17   12   23 1   
    18   13   14 1   
    19   14   15 2   
    20   15   16 1   
    21   15   17 1   
    22   16   20 1   
    23   16   21 1   
    24   16   24 1   
    25   17   22 1   
@<TRIPOS>SUBSTRUCTURE
     1 0J5         1 TEMP              0 ****  ****    0 ROOT
