@<TRIPOS>MOLECULE
0J5
   23    16     1     0     0
SMALL
bcc


@<TRIPOS>ATOM
      1 O4         -0.5080    3.8400    3.1850 o         1 0J5     -0.566500
      2 C8         -0.1840    3.9460    1.9730 c1        1 0J5      0.349000
      3 O3          0.8020    4.6570    1.6460 o         1 0J5     -0.566500
      4 C7         -0.9770    3.2180    0.9110 c2        1 0J5     -0.212000
      5 C5         -0.3770    1.8480    0.6830 c1        1 0J5     -0.038000
      6 C6         -0.9950    0.9240   -0.2850 c1        1 0J5      0.342500
      7 O2         -1.9500    1.2840   -0.9440 o         1 0J5     -0.312000
      8 C3         -0.4010   -0.3960   -0.5160 c1        1 0J5     -0.372000
      9 C4         -1.0170   -1.3390   -1.4920 c1        1 0J5      0.342500
     10 O1         -1.9930   -1.0000   -2.1310 o         1 0J5     -0.312000
     11 N4          0.8130    1.4510    1.4030 n1        1 0J5     -0.041000
     12 N3          1.4010    0.1480    1.1760 n2        1 0J5     -0.177000
     13 C2          0.7870   -0.7840    0.2070 c1        1 0J5      0.191000
     14 N2          1.3730   -2.0810   -0.0190 n1        1 0J5     -0.303000
     15 C1          0.7670   -3.0020   -0.9760 c1        1 0J5      0.243000
     16 N5          1.3460   -4.2790   -1.1940 n2        1 0J5     -0.328000
     17 N1         -0.4350   -2.6130   -1.7090 n2        1 0J5     -0.354000
     18 H2         -0.9500    3.7280    0.0770 ha        1 0J5      0.104000
     19 H3         -1.9050    3.1230    1.2050 ha        1 0J5      0.104000
     20 H5          0.9720   -4.8540   -1.7990 hn        1 0J5      0.202000
     21 H6          2.0900   -4.5290   -0.7260 hn        1 0J5      0.202000
     22 H7         -0.8110   -3.1900   -2.3060 hn        1 0J5      0.238000
     23 H4          2.1510   -0.0990    1.6320 hn        1 0J5      0.263000
@<TRIPOS>BOND
     1    1    2 1   
     2    2    3 1   
     3    4    5 1   
     4    4   18 1   
     5    4   19 1   
     6    5   11 1   
     7    6    7 1   
     8    8   13 1   
     9    9   10 1   
    10   12   13 1   
    11   12   23 1   
    12   14   15 1   
    13   15   17 1   
    14   16   20 1   
    15   16   21 1   
    16   17   22 1   
@<TRIPOS>SUBSTRUCTURE
     1 0J5         1 TEMP              0 ****  ****    0 ROOT
