@<TRIPOS>MOLECULE
0J5
   24    25     1     0     0
SMALL
bcc


@<TRIPOS>ATOM
      1 O4          1.2730    1.9100   -0.3630 o         1 0J5     -0.812300
      2 C8          2.3250    1.2620   -0.5440 c         1 0J5      0.939600
      3 O3          3.5100    1.6850   -0.4270 o         1 0J5     -0.812300
      4 C7          2.1430   -0.2490   -0.9630 c3        1 0J5     -0.283700
      5 C5          3.4910   -0.8630   -0.9520 cc        1 0J5      0.444300
      6 C6          4.2970   -0.6860   -2.2160 c         1 0J5      0.501000
      7 O2          3.8220   -0.7520   -3.3460 o         1 0J5     -0.478100
      8 C3          5.7270   -0.4780   -1.9240 cc        1 0J5     -0.328400
      9 C4          6.5780    0.2000   -2.8790 c         1 0J5      0.752700
     10 O1          6.3700    0.5390   -4.0420 o         1 0J5     -0.523500
     11 N4          4.0300   -1.3240    0.1630 nd        1 0J5     -0.440400
     12 N3          5.3610   -1.5160    0.2310 na        1 0J5     -0.339100
     13 C2          6.2060   -0.8320   -0.6480 cd        1 0J5      0.371600
     14 N2          7.5270   -0.5260   -0.2450 nd        1 0J5     -0.622300
     15 C1          8.2520    0.1650   -1.1090 cc        1 0J5      0.561800
     16 N5          9.6070    0.5950   -0.5940 n4        1 0J5     -0.814600
     17 N1          7.9120    0.5270   -2.3960 n         1 0J5     -0.507400
     18 H2          1.4370   -0.7230   -0.2400 hc        1 0J5      0.080700
     19 H3          1.7040   -0.2830   -1.9900 hc        1 0J5      0.080700
     20 H5         10.3410    0.2670   -1.2270 hn        1 0J5      0.474800
     21 H6          9.6260    1.6190   -0.5310 hn        1 0J5      0.474800
     22 H7          8.4980    1.0840   -2.9780 hn        1 0J5      0.337500
     23 H4          5.6640   -1.6480    1.1830 hn        1 0J5      0.469800
     24 H53         9.7600    0.1970    0.3440 hn        1 0J5      0.474800
@<TRIPOS>BOND
     1    1    2 1   
     2    2    3 1   
     3    2    4 1   
     4    4    5 1   
     5    4   18 1   
     6    4   19 1   
     7    5    6 1   
     8    5   11 2   
     9    6    7 2   
    10    6    8 1   
    11    8    9 1   
    12    8   13 2   
    13    9   10 2   
    14    9   17 1   
    15   11   12 1   
    16   12   13 1   
    17   12   23 1   
    18   13   14 1   
    19   14   15 2   
    20   15   16 1   
    21   15   17 1   
    22   16   20 1   
    23   16   21 1   
    24   16   24 1   
    25   17   22 1   
@<TRIPOS>SUBSTRUCTURE
     1 0J5         1 TEMP              0 ****  ****    0 ROOT
