@<TRIPOS>MOLECULE
0J5
   23    24     1     0     0
SMALL
bcc


@<TRIPOS>ATOM
      1 O4         -4.9130   -0.0130    0.7920 o         1 0J5     -0.831800
      2 C8         -3.6560   -0.1100    0.7980 c         1 0J5      0.929600
      3 O3         -2.9820   -0.7770    1.6270 o         1 0J5     -0.831800
      4 C7         -2.9100    0.6830   -0.3130 c3        1 0J5     -0.258700
      5 C5         -1.5130    0.2050   -0.5110 cc        1 0J5      0.394300
      6 C6         -0.4020    1.1430   -0.1160 c         1 0J5      0.492000
      7 O2         -0.6010    2.3420    0.1100 o         1 0J5     -0.531100
      8 C3          0.9140    0.5080   -0.0770 cc        1 0J5     -0.410400
      9 C4          2.0760    1.2180    0.4160 c         1 0J5      0.743700
     10 O1          2.1670    2.3930    0.8040 o         1 0J5     -0.607500
     11 N4         -1.2900   -1.0140   -0.9600 nd        1 0J5     -0.415400
     12 N3         -0.0400   -1.4790   -1.0680 na        1 0J5     -0.377100
     13 C2          1.0600   -0.8320   -0.5030 cd        1 0J5      0.413600
     14 N2          2.2710   -1.5290   -0.4310 nd        1 0J5     -0.731300
     15 C1          3.3430   -0.8550    0.0270 cc        1 0J5      0.689800
     16 N5          4.6080   -1.5040    0.0210 nh        1 0J5     -0.889800
     17 N1          3.2940    0.4700    0.4640 n         1 0J5     -0.514400
     18 H2         -3.5010    0.5840   -1.2580 hc        1 0J5      0.064700
     19 H3         -2.8940    1.7620   -0.0120 hc        1 0J5      0.064700
     20 H5          4.5590   -2.4750   -0.2060 hn        1 0J5      0.406800
     21 H6          5.1620   -1.3220    0.8290 hn        1 0J5      0.406800
     22 H7          4.1180    0.9420    0.7620 hn        1 0J5      0.324500
     23 H4         -0.0090   -2.4750   -1.1960 hn        1 0J5      0.468800
@<TRIPOS>BOND
     1    1    2 1   
     2    2    3 1   
     3    2    4 1   
     4    4    5 1   
     5    4   18 1   
     6    4   19 1   
     7    5    6 1   
     8    5   11 2   
     9    6    7 2   
    10    6    8 1   
    11    8    9 1   
    12    8   13 2   
    13    9   10 2   
    14    9   17 1   
    15   11   12 1   
    16   12   13 1   
    17   12   23 1   
    18   13   14 1   
    19   14   15 2   
    20   15   16 1   
    21   15   17 1   
    22   16   20 1   
    23   16   21 1   
    24   17   22 1   
@<TRIPOS>SUBSTRUCTURE
     1 0J5         1 TEMP              0 ****  ****    0 ROOT
