@<TRIPOS>MOLECULE
0J6
   34    37     1     0     0
SMALL
bcc


@<TRIPOS>ATOM
      1 O14         0.2350   -1.1570   -0.0530 o         1 0J6     -0.577100
      2 C13         0.8240   -0.0650    0.0390 c         1 0J6      0.683700
      3 C15         2.3070    0.0140    0.1710 ca        1 0J6     -0.171600
      4 C20         3.0660   -0.8860   -0.5440 ca        1 0J6     -0.003000
      5 C19         4.4680   -0.8260   -0.4260 ca        1 0J6     -0.151000
      6 C23         5.5560   -1.5400   -0.9820 cc        1 0J6     -0.137100
      7 N22         6.6970   -0.9690   -0.4400 na        1 0J6      0.055800
      8 N21         6.4620    0.0330    0.4030 nc        1 0J6     -0.272400
      9 C18         5.0940    0.1690    0.4540 ca        1 0J6     -0.067000
     10 C17         4.2680    1.0620    1.1930 ca        1 0J6     -0.090000
     11 C16         2.9110    0.9730    1.0440 ca        1 0J6     -0.110000
     12 N12         0.1480    1.1530   -0.0040 n         1 0J6     -0.474100
     13 C8         -1.2350    1.3400   -0.1340 ca        1 0J6      0.074600
     14 C7         -2.1730    0.3240    0.1570 ca        1 0J6     -0.105000
     15 C9         -1.7120    2.6080   -0.5490 ca        1 0J6     -0.167000
     16 C10        -3.0770    2.8420   -0.6670 ca        1 0J6     -0.104000
     17 C11        -4.0000    1.8390   -0.3870 ca        1 0J6     -0.144000
     18 C6         -3.5400    0.5820    0.0240 ca        1 0J6     -0.117500
     19 C2         -4.4910   -0.4760    0.3340 cc        1 0J6      0.451000
     20 N3         -5.7280   -0.6790   -0.3180 na        1 0J6     -0.183400
     21 N4         -6.3210   -1.7430    0.2390 nc        1 0J6     -0.195800
     22 N5         -5.5430   -2.1830    1.1600 nd        1 0J6     -0.049000
     23 N1         -4.4240   -1.4720    1.2750 nd        1 0J6     -0.360000
     24 H1          2.5920   -1.6430   -1.1880 ha        1 0J6      0.156000
     25 H2          5.5830   -2.3720   -1.6850 h4        1 0J6      0.188000
     26 H3          7.6380   -1.2420   -0.6230 hn        1 0J6      0.326700
     27 H4          4.7300    1.7940    1.8700 ha        1 0J6      0.151000
     28 H5          2.2600    1.6390    1.6320 ha        1 0J6      0.136000
     29 H6          0.7030    1.9800   -0.0420 hn        1 0J6      0.322500
     30 H7         -1.8340   -0.6760    0.4860 ha        1 0J6      0.194000
     31 H8         -1.0070    3.4210   -0.7790 ha        1 0J6      0.136000
     32 H9         -3.4300    3.8350   -0.9860 ha        1 0J6      0.139000
     33 H10        -5.0760    2.0460   -0.4730 ha        1 0J6      0.133000
     34 H11        -6.1280   -0.1670   -1.0690 hn        1 0J6      0.332700
@<TRIPOS>BOND
     1    1    2 2   
     2    2    3 1   
     3    2   12 1   
     4    3    4 ar  
     5    3   11 ar  
     6    4    5 ar  
     7    4   24 1   
     8    5    6 2   
     9    5    9 ar  
    10    6    7 1   
    11    6   25 1   
    12    7    8 1   
    13    7   26 1   
    14    8    9 2   
    15    9   10 ar  
    16   10   11 ar  
    17   10   27 1   
    18   11   28 1   
    19   12   13 1   
    20   12   29 1   
    21   13   14 ar  
    22   13   15 ar  
    23   14   18 ar  
    24   14   30 1   
    25   15   16 ar  
    26   15   31 1   
    27   16   17 ar  
    28   16   32 1   
    29   17   18 ar  
    30   17   33 1   
    31   18   19 1   
    32   19   20 1   
    33   19   23 2   
    34   20   21 1   
    35   20   34 1   
    36   21   22 2   
    37   22   23 1   
@<TRIPOS>SUBSTRUCTURE
     1 0J6         1 TEMP              0 ****  ****    0 ROOT
