@<TRIPOS>MOLECULE
0J6
   35    38     1     0     0
SMALL
bcc


@<TRIPOS>ATOM
      1 O14         2.8820   -2.5180   -0.4690 o         1 0J6     -0.461100
      2 C13         2.5940   -1.3360   -0.3170 c         1 0J6      0.588700
      3 C15         2.2510   -0.6240    0.8990 ca        1 0J6     -0.237600
      4 C20         2.5630   -1.2630    2.0980 ca        1 0J6      0.080000
      5 C19         2.2700   -0.6110    3.2970 ca        1 0J6     -0.193000
      6 C23         2.4400   -0.9110    4.6790 cc        1 0J6     -0.079100
      7 N22         1.9310    0.1730    5.3620 na        1 0J6      0.076800
      8 N21         1.4490    1.1420    4.5810 nc        1 0J6     -0.234400
      9 C18         1.6300    0.7150    3.2920 ca        1 0J6     -0.046000
     10 C17         1.3000    1.3210    2.0440 ca        1 0J6     -0.052000
     11 C16         1.6070    0.6570    0.8910 ca        1 0J6     -0.127000
     12 N12         2.6890   -0.5190   -1.6090 n4        1 0J6     -0.548200
     13 C8          1.4310   -0.5160   -2.3590 ca        1 0J6     -0.046400
     14 C7          0.7950    0.7040   -2.6360 ca        1 0J6     -0.074000
     15 C9          0.8840   -1.7340   -2.8030 ca        1 0J6     -0.086000
     16 C10        -0.3080   -1.7160   -3.5220 ca        1 0J6     -0.100000
     17 C11        -0.9580   -0.5120   -3.7980 ca        1 0J6     -0.070000
     18 C6         -0.4090    0.6990   -3.3570 ca        1 0J6     -0.092500
     19 C2         -1.0670    1.9710   -3.6050 cc        1 0J6      0.402000
     20 N3         -2.0700    2.2420   -4.5590 na        1 0J6     -0.158400
     21 N4         -2.4000    3.5340   -4.4530 nc        1 0J6     -0.153800
     22 N5         -1.6820    4.0500   -3.5180 nd        1 0J6     -0.025000
     23 N1         -0.8580    3.1710   -2.9650 nd        1 0J6     -0.359000
     24 H1          3.0370   -2.2600    2.1020 ha        1 0J6      0.166000
     25 H2          2.8690   -1.7870    5.1720 h4        1 0J6      0.207000
     26 H3          1.8930    0.2870    6.3560 hn        1 0J6      0.350700
     27 H4          0.7980    2.3020    2.0340 ha        1 0J6      0.177000
     28 H5          1.3090    1.1130   -0.0670 ha        1 0J6      0.129000
     29 H6          3.4140   -0.9430   -2.2060 hn        1 0J6      0.463800
     30 H7          1.2220    1.6660   -2.3000 ha        1 0J6      0.178000
     31 H8          1.3800   -2.6960   -2.5820 ha        1 0J6      0.176000
     32 H9         -0.7440   -2.6670   -3.8720 ha        1 0J6      0.177000
     33 H10        -1.9100   -0.5310   -4.3550 ha        1 0J6      0.162000
     34 H11        -2.4880    1.6350   -5.2270 hn        1 0J6      0.344700
     35 H122        2.9600    0.4450   -1.3820 hn        1 0J6      0.463800
@<TRIPOS>BOND
     1    1    2 2   
     2    2    3 1   
     3    2   12 1   
     4    3    4 ar  
     5    3   11 ar  
     6    4    5 ar  
     7    4   24 1   
     8    5    6 2   
     9    5    9 ar  
    10    6    7 1   
    11    6   25 1   
    12    7    8 1   
    13    7   26 1   
    14    8    9 2   
    15    9   10 ar  
    16   10   11 ar  
    17   10   27 1   
    18   11   28 1   
    19   12   13 1   
    20   12   29 1   
    21   12   35 1   
    22   13   14 ar  
    23   13   15 ar  
    24   14   18 ar  
    25   14   30 1   
    26   15   16 ar  
    27   15   31 1   
    28   16   17 ar  
    29   16   32 1   
    30   17   18 ar  
    31   17   33 1   
    32   18   19 1   
    33   19   20 1   
    34   19   23 2   
    35   20   21 1   
    36   20   34 1   
    37   21   22 2   
    38   22   23 1   
@<TRIPOS>SUBSTRUCTURE
     1 0J6         1 TEMP              0 ****  ****    0 ROOT
