@<TRIPOS>MOLECULE
0J6
   34    37     1     0     0
SMALL
bcc


@<TRIPOS>ATOM
      1 O14        -0.1980    0.6400    0.2510 o         1 0J6     -0.577100
      2 C13         0.9870    0.2660    0.1950 c         1 0J6      0.683700
      3 C15         1.8490    0.2180    1.4110 ca        1 0J6     -0.171600
      4 C20         1.2710   -0.1820    2.5950 ca        1 0J6     -0.003000
      5 C19         2.0720   -0.2290    3.7520 ca        1 0J6     -0.151000
      6 C23         1.8640   -0.5810    5.1070 cc        1 0J6     -0.137100
      7 N22         3.0860   -0.4000    5.7350 na        1 0J6      0.055800
      8 N21         4.0560    0.0320    4.9340 nc        1 0J6     -0.272400
      9 C18         3.4860    0.1590    3.6880 ca        1 0J6     -0.067000
     10 C17         4.0340    0.5910    2.4470 ca        1 0J6     -0.090000
     11 C16         3.2220    0.6140    1.3460 ca        1 0J6     -0.110000
     12 N12         1.5800   -0.1600   -0.9920 n         1 0J6     -0.474100
     13 C8          0.9770   -0.2190   -2.2570 ca        1 0J6      0.074600
     14 C7         -0.1860    0.5140   -2.5810 ca        1 0J6     -0.105000
     15 C9          1.5750   -1.0260   -3.2560 ca        1 0J6     -0.167000
     16 C10         1.0240   -1.0920   -4.5300 ca        1 0J6     -0.104000
     17 C11        -0.1260   -0.3750   -4.8480 ca        1 0J6     -0.144000
     18 C6         -0.7260    0.4260   -3.8680 ca        1 0J6     -0.117500
     19 C2         -1.9220    1.1920   -4.1850 cc        1 0J6      0.451000
     20 N3         -2.9440    0.7820   -5.0690 na        1 0J6     -0.183400
     21 N4         -3.8740    1.7460   -5.1050 nc        1 0J6     -0.195800
     22 N5         -3.4880    2.6870   -4.3220 nd        1 0J6     -0.049000
     23 N1         -2.3230    2.4240   -3.7340 nd        1 0J6     -0.360000
     24 H1          0.2050   -0.4530    2.6430 ha        1 0J6      0.156000
     25 H2          0.9720   -0.9270    5.6280 h4        1 0J6      0.188000
     26 H3          3.2830   -0.5560    6.6990 hn        1 0J6      0.326700
     27 H4          5.0870    0.9030    2.3970 ha        1 0J6      0.151000
     28 H5          3.6270    0.9730    0.3860 ha        1 0J6      0.136000
     29 H6          2.4930   -0.5540   -0.9280 hn        1 0J6      0.322500
     30 H7         -0.6750    1.1560   -1.8260 ha        1 0J6      0.194000
     31 H8          2.4850   -1.6060   -3.0350 ha        1 0J6      0.136000
     32 H9          1.5050   -1.7200   -5.2960 ha        1 0J6      0.139000
     33 H10        -0.5410   -0.4290   -5.8640 ha        1 0J6      0.133000
     34 H11        -3.0200   -0.0640   -5.5840 hn        1 0J6      0.332700
@<TRIPOS>BOND
     1    1    2 2   
     2    2    3 1   
     3    2   12 1   
     4    3    4 ar  
     5    3   11 ar  
     6    4    5 ar  
     7    4   24 1   
     8    5    6 2   
     9    5    9 ar  
    10    6    7 1   
    11    6   25 1   
    12    7    8 1   
    13    7   26 1   
    14    8    9 2   
    15    9   10 ar  
    16   10   11 ar  
    17   10   27 1   
    18   11   28 1   
    19   12   13 1   
    20   12   29 1   
    21   13   14 ar  
    22   13   15 ar  
    23   14   18 ar  
    24   14   30 1   
    25   15   16 ar  
    26   15   31 1   
    27   16   17 ar  
    28   16   32 1   
    29   17   18 ar  
    30   17   33 1   
    31   18   19 1   
    32   19   20 1   
    33   19   23 2   
    34   20   21 1   
    35   20   34 1   
    36   21   22 2   
    37   22   23 1   
@<TRIPOS>SUBSTRUCTURE
     1 0J6         1 TEMP              0 ****  ****    0 ROOT
