@<TRIPOS>MOLECULE
0J6
   34    26     1     0     0
SMALL
bcc


@<TRIPOS>ATOM
      1 O14        -0.8620    0.7770    0.6780 o         1 0J6     -0.345000
      2 C13         0.3490    0.8290    0.7630 c1        1 0J6      0.360000
      3 C15         1.0210    0.6460    2.1050 c1        1 0J6     -0.152500
      4 C20        -0.0740    0.5200    2.9450 c1        1 0J6     -0.057500
      5 C19         0.0230   -0.2520    4.1180 c1        1 0J6     -0.152500
      6 C23        -0.8880   -0.5330    5.1210 c1        1 0J6     -0.110000
      7 N22        -0.2740   -1.3220    6.0340 n2        1 0J6     -0.100000
      8 N21         1.0170   -1.5390    5.6110 n2        1 0J6     -0.092000
      9 C18         1.1930   -0.8750    4.4270 c1        1 0J6     -0.067000
     10 C17         2.3060   -0.7470    3.5740 c1        1 0J6     -0.088000
     11 C16         2.2100    0.0120    2.4200 c1        1 0J6     -0.057500
     12 N12         1.1340    0.9980   -0.4060 n3        1 0J6     -0.328000
     13 C8          0.5070    1.1080   -1.6720 c2        1 0J6      0.083000
     14 C7         -0.0050   -0.0210   -2.2920 c2        1 0J6     -0.174000
     15 C9          0.3930    2.3460   -2.2850 c1        1 0J6     -0.132000
     16 C10        -0.2320    2.4550   -3.5160 c1        1 0J6     -0.108000
     17 C11        -0.7440    1.3260   -4.1360 c1        1 0J6     -0.108000
     18 C6         -0.6300    0.0870   -3.5240 c1        1 0J6     -0.009000
     19 C2         -1.1340   -1.1520   -4.2270 c1        1 0J6     -0.006000
     20 N3         -2.3620   -1.6850   -4.1070 n2        1 0J6     -0.160500
     21 N4         -2.4070   -2.8000   -4.8570 n2        1 0J6     -0.037000
     22 N5         -1.2080   -2.9560   -5.4410 n2        1 0J6     -0.037000
     23 N1         -0.4210   -1.9370   -5.0520 n2        1 0J6     -0.160500
     24 H1         -0.9100    0.9750    2.7280 ha        1 0J6      0.146000
     25 H2         -1.8110   -0.2180    5.1630 DU        1 0J6      0.249667
     26 H3         -0.6490   -1.6470    6.8000 DU        1 0J6      0.249667
     27 H4          3.1440   -1.1940    3.7960 ha        1 0J6      0.152000
     28 H5          2.9860    0.1120    1.8360 ha        1 0J6      0.146000
     29 H6          2.0420    1.0610   -0.3400 hn        1 0J6      0.234000
     30 H7          0.0750   -0.8940   -1.8600 ha        1 0J6      0.127000
     31 H8          0.7540    3.1410   -1.8480 ha        1 0J6      0.179000
     32 H9         -0.3120    3.3270   -3.9480 ha        1 0J6      0.153000
     33 H10        -1.1840    1.4030   -5.0040 ha        1 0J6      0.153000
     34 H11        -3.0450   -1.3490   -3.6040 DU        1 0J6      0.249667
@<TRIPOS>BOND
     1    1    2 1   
     2    2   12 1   
     3    3   11 1   
     4    4    5 1   
     5    4   24 1   
     6    6    7 1   
     7    7    8 1   
     8    8    9 1   
     9    9   10 1   
    10   10   27 1   
    11   11   28 1   
    12   12   13 1   
    13   12   29 1   
    14   13   14 1   
    15   13   15 1   
    16   14   18 1   
    17   14   30 1   
    18   15   31 1   
    19   16   17 1   
    20   16   32 1   
    21   17   33 1   
    22   19   20 1   
    23   19   23 1   
    24   20   21 1   
    25   21   22 1   
    26   22   23 1   
@<TRIPOS>SUBSTRUCTURE
     1 0J6         1 TEMP              0 ****  ****    0 ROOT
