@<TRIPOS>MOLECULE
0J7
   39    42     1     0     0
SMALL
bcc


@<TRIPOS>ATOM
      1 O26        -0.1060   -1.0570   -0.1560 o         1 0J7     -0.567100
      2 C13         0.9960   -0.4830   -0.1520 c         1 0J7      0.682700
      3 N12         1.5030    0.1620    0.9740 ns        1 0J7     -0.475100
      4 C8          0.8760    0.2760    2.2240 ca        1 0J7      0.071600
      5 C7         -0.1400   -0.6100    2.6460 ca        1 0J7     -0.103000
      6 C9          1.3000    1.2990    3.1060 ca        1 0J7     -0.166000
      7 C10         0.7230    1.4260    4.3650 ca        1 0J7     -0.105000
      8 C11        -0.2830    0.5580    4.7790 ca        1 0J7     -0.143000
      9 C6         -0.7090   -0.4580    3.9140 ca        1 0J7     -0.117500
     10 C5         -1.7510   -1.3840    4.3360 cc        1 0J7      0.451000
     11 N4         -2.8540   -1.0550    5.1540 na        1 0J7     -0.183400
     12 N3         -3.5890   -2.1620    5.3240 nc        1 0J7     -0.195800
     13 N2         -3.0140   -3.1120    4.6810 nd        1 0J7     -0.049000
     14 N1         -1.9040   -2.7190    4.0610 nd        1 0J7     -0.359000
     15 C14         1.8590   -0.4310   -1.3690 ca        1 0J7     -0.162600
     16 C19         3.2370   -0.6550   -1.3000 ca        1 0J7     -0.090000
     17 C18         4.0000   -0.6230   -2.4660 ca        1 0J7     -0.148000
     18 C17         3.3970   -0.3660   -3.6970 ca        1 0J7     -0.065000
     19 C16         2.0160   -0.1470   -3.7660 cp        1 0J7     -0.144500
     20 C15         1.2420   -0.1860   -2.6000 ca        1 0J7     -0.036000
     21 C20         1.3670    0.1220   -5.0760 cp        1 0J7      0.694500
     22 N25         0.3430    1.0380   -5.1000 nb        1 0J7     -0.688000
     23 C24        -0.2360    1.2610   -6.2940 ca        1 0J7      0.431200
     24 C23         0.1680    0.6040   -7.4710 ca        1 0J7     -0.362600
     25 C22         1.2270   -0.3140   -7.3430 ca        1 0J7      0.431200
     26 N21         1.8350   -0.5660   -6.1690 nb        1 0J7     -0.688000
     27 H1          2.3330    0.7010    0.8550 hn        1 0J7      0.321500
     28 H2         -0.4920   -1.4190    1.9820 ha        1 0J7      0.193000
     29 H3          2.0920    2.0030    2.8070 ha        1 0J7      0.136000
     30 H4          1.0670    2.2240    5.0400 ha        1 0J7      0.139000
     31 H5         -0.7190    0.6650    5.7820 ha        1 0J7      0.134000
     32 H6         -3.1010   -0.1760    5.5430 hn        1 0J7      0.333700
     33 H7          3.7230   -0.8780   -0.3380 ha        1 0J7      0.140000
     34 H8          5.0840   -0.8060   -2.4170 ha        1 0J7      0.142000
     35 H9          4.0120   -0.3440   -4.6110 ha        1 0J7      0.154000
     36 H10         0.1500   -0.0360   -2.6360 ha        1 0J7      0.170000
     37 H11        -1.0580    2.0000   -6.3010 h4        1 0J7      0.031600
     38 H12        -0.3170    0.7950   -8.4340 ha        1 0J7      0.158000
     39 H13         1.6100   -0.8770   -8.2140 h4        1 0J7      0.031600
@<TRIPOS>BOND
     1    1    2 2   
     2    2    3 1   
     3    2   15 1   
     4    3    4 1   
     5    3   27 1   
     6    4    5 ar  
     7    4    6 ar  
     8    5    9 ar  
     9    5   28 1   
    10    6    7 ar  
    11    6   29 1   
    12    7    8 ar  
    13    7   30 1   
    14    8    9 ar  
    15    8   31 1   
    16    9   10 1   
    17   10   11 1   
    18   10   14 2   
    19   11   12 1   
    20   11   32 1   
    21   12   13 2   
    22   13   14 1   
    23   15   16 ar  
    24   15   20 ar  
    25   16   17 ar  
    26   16   33 1   
    27   17   18 ar  
    28   17   34 1   
    29   18   19 ar  
    30   18   35 1   
    31   19   20 ar  
    32   19   21 1   
    33   20   36 1   
    34   21   22 ar  
    35   21   26 ar  
    36   22   23 ar  
    37   23   24 ar  
    38   23   37 1   
    39   24   25 ar  
    40   24   38 1   
    41   25   26 ar  
    42   25   39 1   
@<TRIPOS>SUBSTRUCTURE
     1 0J7         1 TEMP              0 ****  ****    0 ROOT
