@<TRIPOS>MOLECULE
0J7
   40    43     1     0     0
SMALL
bcc


@<TRIPOS>ATOM
      1 O26         1.6180    2.5360   -0.1720 o         1 0J7     -0.431100
      2 C13         1.6800    1.3150   -0.1260 c         1 0J7      0.590700
      3 N12         2.2190    0.7770    1.2050 n4        1 0J7     -0.552200
      4 C8          1.1550    0.5850    2.1940 ca        1 0J7     -0.050400
      5 C7          0.9180   -0.6970    2.7140 ca        1 0J7     -0.077000
      6 C9          0.3930    1.6900    2.6190 ca        1 0J7     -0.085000
      7 C10        -0.6110    1.4930    3.5640 ca        1 0J7     -0.098000
      8 C11        -0.8660    0.2230    4.0820 ca        1 0J7     -0.069000
      9 C6         -0.1030   -0.8740    3.6590 ca        1 0J7     -0.091500
     10 C5         -0.3560   -2.2160    4.1540 cc        1 0J7      0.400000
     11 N4         -1.0490   -2.5790    5.3270 na        1 0J7     -0.157400
     12 N3         -1.0570   -3.9140    5.4040 nc        1 0J7     -0.151800
     13 N2         -0.4310   -4.3730    4.3780 nd        1 0J7     -0.025000
     14 N1          0.0190   -3.4110    3.5840 nd        1 0J7     -0.360000
     15 C14         1.3800    0.3320   -1.1580 ca        1 0J7     -0.216600
     16 C19         1.0480   -1.0050   -0.8780 ca        1 0J7     -0.082000
     17 C18         0.7630   -1.8740   -1.9230 ca        1 0J7     -0.131000
     18 C17         0.8040   -1.4310   -3.2490 ca        1 0J7     -0.014000
     19 C16         1.1240   -0.0970   -3.5330 cp        1 0J7     -0.122500
     20 C15         1.4060    0.7900   -2.4880 ca        1 0J7     -0.008000
     21 C20         1.1600    0.3830   -4.9400 cp        1 0J7      0.663500
     22 N25         0.7470    1.6690   -5.1790 nb        1 0J7     -0.686500
     23 C24         0.7780    2.0780   -6.4620 ca        1 0J7      0.436200
     24 C23         1.2120    1.2480   -7.5130 ca        1 0J7     -0.335600
     25 C22         1.6210   -0.0520   -7.1620 ca        1 0J7      0.436200
     26 N21         1.6010   -0.5010   -5.8920 nb        1 0J7     -0.686500
     27 H1          2.8890    1.4600    1.5850 hn        1 0J7      0.463800
     28 H2          1.5200   -1.5680    2.3970 ha        1 0J7      0.178000
     29 H3          0.5730    2.6990    2.2080 ha        1 0J7      0.176000
     30 H4         -1.2130    2.3550    3.9010 ha        1 0J7      0.178000
     31 H5         -1.6790    0.0950    4.8160 ha        1 0J7      0.164000
     32 H6         -1.4660   -1.9990    6.0200 hn        1 0J7      0.345700
     33 H7          0.9740   -1.3750    0.1570 ha        1 0J7      0.136000
     34 H8          0.4970   -2.9230   -1.7070 ha        1 0J7      0.170000
     35 H9          0.5800   -2.1390   -4.0660 ha        1 0J7      0.183000
     36 H10         1.6450    1.8490   -2.6960 ha        1 0J7      0.183000
     37 H11         0.4380    3.1150   -6.6460 h4        1 0J7      0.045100
     38 H12         1.2310    1.5970   -8.5530 ha        1 0J7      0.173000
     39 H13         1.9800   -0.7710   -7.9230 h4        1 0J7      0.045100
     40 H122        2.7020   -0.1130    1.0400 hn        1 0J7      0.463800
@<TRIPOS>BOND
     1    1    2 2   
     2    2    3 1   
     3    2   15 1   
     4    3    4 1   
     5    3   27 1   
     6    3   40 1   
     7    4    5 ar  
     8    4    6 ar  
     9    5    9 ar  
    10    5   28 1   
    11    6    7 ar  
    12    6   29 1   
    13    7    8 ar  
    14    7   30 1   
    15    8    9 ar  
    16    8   31 1   
    17    9   10 1   
    18   10   11 1   
    19   10   14 2   
    20   11   12 1   
    21   11   32 1   
    22   12   13 2   
    23   13   14 1   
    24   15   16 ar  
    25   15   20 ar  
    26   16   17 ar  
    27   16   33 1   
    28   17   18 ar  
    29   17   34 1   
    30   18   19 ar  
    31   18   35 1   
    32   19   20 ar  
    33   19   21 1   
    34   20   36 1   
    35   21   22 ar  
    36   21   26 ar  
    37   22   23 ar  
    38   23   24 ar  
    39   23   37 1   
    40   24   25 ar  
    41   24   38 1   
    42   25   26 ar  
    43   25   39 1   
@<TRIPOS>SUBSTRUCTURE
     1 0J7         1 TEMP              0 ****  ****    0 ROOT
