@<TRIPOS>MOLECULE
0J7
   39    31     1     0     0
SMALL
bcc


@<TRIPOS>ATOM
      1 O26        -1.6300   -1.5390   -0.0580 o         1 0J7     -0.344000
      2 C13        -0.4240   -1.3900   -0.0630 c1        1 0J7      0.359000
      3 N12         0.2770   -1.2430    1.1630 n3        1 0J7     -0.324000
      4 C8         -0.4300   -1.2700    2.3940 c2        1 0J7      0.083000
      5 C7         -0.6510   -0.0920    3.0910 c2        1 0J7     -0.139000
      6 C9         -0.8370   -2.4810    2.9320 c1        1 0J7     -0.138000
      7 C10        -1.4650   -2.5140    4.1680 c1        1 0J7     -0.120833
      8 C11        -1.6860   -1.3360    4.8650 c1        1 0J7     -0.120833
      9 C6         -1.2790   -0.1250    4.3270 c1        1 0J7     -0.007000
     10 C5         -1.4580    1.1520    5.1190 c1        1 0J7     -0.005000
     11 N4         -2.5730    1.9010    5.1690 n2        1 0J7     -0.162000
     12 N3         -2.3380    2.9430    5.9860 n2        1 0J7     -0.036500
     13 N2         -1.0790    2.8380    6.4410 n2        1 0J7     -0.036500
     14 N1         -0.5340    1.7310    5.9040 n2        1 0J7     -0.162000
     15 C14         0.3320   -1.3800   -1.3750 c1        1 0J7     -0.142000
     16 C19         0.9700   -2.5290   -1.8160 c1        1 0J7     -0.120833
     17 C18         1.6890   -2.5110   -3.0020 c1        1 0J7     -0.120833
     18 C17         1.7710   -1.3440   -3.7450 c1        1 0J7     -0.063000
     19 C16         1.1330   -0.1950   -3.3040 c1        1 0J7     -0.038000
     20 C15         0.4140   -0.2130   -2.1180 c2        1 0J7     -0.063000
     21 C20         1.2000    1.0720   -4.1290 c1        1 0J7      0.061000
     22 N25         2.1450    2.0150   -3.8550 n1        1 0J7     -0.168000
     23 C24         2.2100    3.1340   -4.5920 c1        1 0J7     -0.033000
     24 C23         1.3300    3.3280   -5.6160 c1        1 0J7     -0.120833
     25 C22         0.3840    2.3830   -5.8900 c1        1 0J7     -0.120833
     26 N21         0.3200    1.2650   -5.1520 n1        1 0J7     -0.162000
     27 H1          1.1810   -1.1180    1.1590 hn        1 0J7      0.242000
     28 H2         -0.3640    0.7600    2.7120 ha        1 0J7      0.159000
     29 H3         -0.6820   -3.3100    2.4410 ha        1 0J7      0.181000
     30 H4         -1.7520   -3.3670    4.5470 ha        1 0J7      0.150000
     31 H5         -2.1280   -1.3600    5.7350 ha        1 0J7      0.150000
     32 H6         -3.3520    1.7320    4.7260 DU        1 0J7      0.285000
     33 H7          0.9120   -3.3510   -1.2930 ha        1 0J7      0.150000
     34 H8          2.1380   -3.3200   -3.3120 ha        1 0J7      0.150000
     35 H9          2.2770   -1.3310   -4.5800 ha        1 0J7      0.155000
     36 H10        -0.0350    0.5960   -1.8080 ha        1 0J7      0.153000
     37 H11         2.8870    3.8090   -4.3950 ha        1 0J7      0.170000
     38 H12         1.3770    4.1420   -6.1530 ha        1 0J7      0.150000
     39 H13        -0.2460    2.5210   -6.6230 ha        1 0J7      0.150000
@<TRIPOS>BOND
     1    1    2 1   
     2    2    3 1   
     3    3    4 1   
     4    3   27 1   
     5    4    5 1   
     6    4    6 1   
     7    5    9 1   
     8    5   28 1   
     9    6   29 1   
    10    7    8 1   
    11    7   30 1   
    12    8   31 1   
    13   10   11 1   
    14   10   14 1   
    15   11   12 1   
    16   12   13 1   
    17   13   14 1   
    18   15   20 1   
    19   16   17 1   
    20   16   33 1   
    21   17   34 1   
    22   18   19 1   
    23   18   35 1   
    24   19   20 1   
    25   20   36 1   
    26   21   26 1   
    27   22   23 1   
    28   23   37 1   
    29   24   25 1   
    30   24   38 1   
    31   25   39 1   
@<TRIPOS>SUBSTRUCTURE
     1 0J7         1 TEMP              0 ****  ****    0 ROOT
