@<TRIPOS>MOLECULE
0J7
   39    42     1     0     0
SMALL
bcc


@<TRIPOS>ATOM
      1 O26         0.3370   -0.5570   -0.6480 o         1 0J7     -0.567100
      2 C13        -0.0280    0.5980   -0.3730 c         1 0J7      0.682700
      3 N12         0.8460    1.5670    0.1150 n         1 0J7     -0.475100
      4 C8          2.2140    1.4000    0.3760 ca        1 0J7      0.071600
      5 C7          2.9830    0.3790   -0.2250 ca        1 0J7     -0.103000
      6 C9          2.8540    2.3090    1.2530 ca        1 0J7     -0.166000
      7 C10         4.2150    2.1950    1.5150 ca        1 0J7     -0.105000
      8 C11         4.9710    1.1840    0.9270 ca        1 0J7     -0.143000
      9 C6          4.3480    0.2800    0.0590 ca        1 0J7     -0.117500
     10 C5          5.1260   -0.7740   -0.5750 cc        1 0J7      0.451000
     11 N4          6.2100   -1.4590    0.0180 na        1 0J7     -0.183400
     12 N3          6.6710   -2.3530   -0.8680 nc        1 0J7     -0.195800
     13 N2          5.9550   -2.2520   -1.9290 nd        1 0J7     -0.049000
     14 N1          5.0070   -1.3250   -1.8260 nd        1 0J7     -0.359000
     15 C14        -1.4470    1.0320   -0.5350 ca        1 0J7     -0.162600
     16 C19        -1.7760    2.2670   -1.1030 ca        1 0J7     -0.090000
     17 C18        -3.1150    2.6190   -1.2580 ca        1 0J7     -0.148000
     18 C17        -4.1270    1.7500   -0.8490 ca        1 0J7     -0.065000
     19 C16        -3.7970    0.5110   -0.2850 cp        1 0J7     -0.144500
     20 C15        -2.4540    0.1470   -0.1330 ca        1 0J7     -0.036000
     21 C20        -4.8700   -0.4210    0.1480 cp        1 0J7      0.694500
     22 N25        -4.6540   -1.1470    1.2940 nb        1 0J7     -0.688000
     23 C24        -5.6350   -1.9910    1.6650 ca        1 0J7      0.431200
     24 C23        -6.8280   -2.1400    0.9340 ca        1 0J7     -0.362600
     25 C22        -6.9550   -1.3500   -0.2240 ca        1 0J7      0.431200
     26 N21        -6.0000   -0.4930   -0.6300 nb        1 0J7     -0.688000
     27 H1          0.4470    2.4250    0.4250 hn        1 0J7      0.321500
     28 H2          2.5140   -0.3460   -0.9150 ha        1 0J7      0.193000
     29 H3          2.2820    3.1180    1.7340 ha        1 0J7      0.136000
     30 H4          4.6970    2.9130    2.1950 ha        1 0J7      0.139000
     31 H5          6.0480    1.1160    1.1350 ha        1 0J7      0.134000
     32 H6          6.5900   -1.3530    0.9280 hn        1 0J7      0.333700
     33 H7         -0.9890    2.9540   -1.4470 ha        1 0J7      0.140000
     34 H8         -3.3780    3.5870   -1.7110 ha        1 0J7      0.142000
     35 H9         -5.1810    2.0410   -0.9780 ha        1 0J7      0.154000
     36 H10        -2.1740   -0.8330    0.2890 ha        1 0J7      0.170000
     37 H11        -5.4490   -2.5700    2.5890 h4        1 0J7      0.031600
     38 H12        -7.6140   -2.8340    1.2480 ha        1 0J7      0.158000
     39 H13        -7.8580   -1.4020   -0.8600 h4        1 0J7      0.031600
@<TRIPOS>BOND
     1    1    2 2   
     2    2    3 1   
     3    2   15 1   
     4    3    4 1   
     5    3   27 1   
     6    4    5 ar  
     7    4    6 ar  
     8    5    9 ar  
     9    5   28 1   
    10    6    7 ar  
    11    6   29 1   
    12    7    8 ar  
    13    7   30 1   
    14    8    9 ar  
    15    8   31 1   
    16    9   10 1   
    17   10   11 1   
    18   10   14 2   
    19   11   12 1   
    20   11   32 1   
    21   12   13 2   
    22   13   14 1   
    23   15   16 ar  
    24   15   20 ar  
    25   16   17 ar  
    26   16   33 1   
    27   17   18 ar  
    28   17   34 1   
    29   18   19 ar  
    30   18   35 1   
    31   19   20 ar  
    32   19   21 1   
    33   20   36 1   
    34   21   22 ar  
    35   21   26 ar  
    36   22   23 ar  
    37   23   24 ar  
    38   23   37 1   
    39   24   25 ar  
    40   24   38 1   
    41   25   26 ar  
    42   25   39 1   
@<TRIPOS>SUBSTRUCTURE
     1 0J7         1 TEMP              0 ****  ****    0 ROOT
