@<TRIPOS>MOLECULE
0J8
   57    61     1     0     0
SMALL
bcc


@<TRIPOS>ATOM
      1 C4          0.0030    0.3320    0.0480 ca        1 0J8      0.665300
      2 C5          1.4360    0.1930    0.0050 ca        1 0J8     -0.315600
      3 C6          2.1240    0.0450    1.2860 ca        1 0J8      0.712200
      4 N1          1.4290    0.0330    2.4490 nb        1 0J8     -0.755000
      5 N3         -0.6850    0.3330    1.2590 nb        1 0J8     -0.645000
      6 CAP         1.4600   -1.0460   -7.7950 c3        1 0J8     -0.093400
      7 CAN         1.2640   -1.0710   -9.3110 c3        1 0J8      0.163800
      8 NAW         0.4890    0.0510   -9.8000 n3        1 0J8     -0.825200
      9 CAO         1.0060    1.3390   -9.3830 c3        1 0J8      0.163800
     10 CAQ         1.1930    1.4460   -7.8710 c3        1 0J8     -0.093400
     11 CBG         2.0830    0.2950   -7.3760 c3        1 0J8      0.061000
     12 NBI         2.3120    0.3630   -5.9300 na        1 0J8      0.100400
     13 CAM         1.3050    0.2820   -4.9670 cc        1 0J8     -0.113300
     14 NAT         3.5260    0.5140   -5.3740 nc        1 0J8     -0.501800
     15 CAJ         3.3450    0.5320   -4.0320 cd        1 0J8      0.312200
     16 CBA         1.9370    0.3870   -3.7090 cd        1 0J8     -0.232300
     17 CAZ         1.3380    0.3570   -2.4110 ca        1 0J8     -0.093300
     18 CAL         2.0830    0.2150   -1.2520 ca        1 0J8     -0.073000
     19 CAI        -0.0870    0.4800   -2.2660 ca        1 0J8      0.440200
     20 NAS        -0.7390    0.4720   -1.1210 nb        1 0J8     -0.622000
     21 C2          0.0660    0.1910    2.3550 ca        1 0J8      0.621300
     22 CBJ        -0.7240    0.1900    3.7110 c3        1 0J8      0.617600
     23 FAD        -1.4610    1.3290    3.8940 f         1 0J8     -0.219300
     24 FAE        -1.6130   -0.8470    3.7980 f         1 0J8     -0.219300
     25 FAC         0.0360    0.0890    4.8430 f         1 0J8     -0.219300
     26 NAX         3.5120   -0.0220    1.3120 nh        1 0J8     -0.846900
     27 CAR         4.2150   -0.3180    2.5430 c3        1 0J8      0.247100
     28 CAY         5.7050   -0.3110    2.3520 ca        1 0J8     -0.123300
     29 CAK         6.4300   -1.4960    2.4990 ca        1 0J8     -0.057000
     30 CAG         6.3700    0.8870    2.0640 ca        1 0J8     -0.070000
     31 CAF         7.7560    0.9060    1.9230 ca        1 0J8     -0.142000
     32 CAH         8.4980   -0.2650    2.0690 ca        1 0J8     -0.059000
     33 CBB         7.8260   -1.4640    2.3570 ca        1 0J8     -0.178200
     34 NBH         8.6050   -2.7210    2.5110 no        1 0J8      0.313200
     35 OAB         9.8010   -2.6800    2.4030 o         1 0J8     -0.204000
     36 OAA         8.0170   -3.7440    2.7370 o         1 0J8     -0.204000
     37 H2          0.4750   -1.1910   -7.2810 hc        1 0J8      0.061700
     38 H3          2.2840   -1.1280   -9.7960 h1        1 0J8      0.036700
     39 H4          0.7050   -2.0100   -9.5840 h1        1 0J8      0.036700
     40 H5          0.4170    0.0130  -10.8000 hn        1 0J8      0.372800
     41 H7          1.9940    1.5820   -9.8770 h1        1 0J8      0.036700
     42 H8          0.2630    2.1210   -9.7090 h1        1 0J8      0.036700
     43 H9          0.1970    1.4100   -7.3590 hc        1 0J8      0.061700
     44 H10         1.6680    2.4330   -7.6390 hc        1 0J8      0.061700
     45 H11         3.0920    0.3880   -7.8840 h1        1 0J8      0.089700
     46 H12         0.2560    0.1540   -5.2330 h4        1 0J8      0.183000
     47 H13         4.1800    0.6520   -3.3400 h4        1 0J8      0.042100
     48 H14         3.1770    0.1270   -1.3310 ha        1 0J8      0.138000
     49 H15        -0.7150    0.5960   -3.1710 h4        1 0J8      0.031100
     50 H16         3.9440   -0.3520    0.4780 hn        1 0J8      0.428800
     51 H17         3.8890   -1.3170    2.9580 h1        1 0J8      0.075700
     52 H18         3.9420    0.4700    3.3050 h1        1 0J8      0.075700
     53 H19         5.9170   -2.4460    2.7300 ha        1 0J8      0.175000
     54 H20         5.7890    1.8170    1.9530 ha        1 0J8      0.155000
     55 H21         8.2740    1.8520    1.6990 ha        1 0J8      0.153000
     56 H22         9.5970   -0.2520    1.9620 ha        1 0J8      0.174000
     57 H1          2.1320   -1.8940   -7.5080 hc        1 0J8      0.061700
@<TRIPOS>BOND
     1    1    2 ar  
     2    1    5 ar  
     3    1   20 ar  
     4    2    3 ar  
     5    2   18 ar  
     6    3    4 ar  
     7    3   26 1   
     8    4   21 ar  
     9    5   21 ar  
    10    6    7 1   
    11    6   11 1   
    12    6   37 1   
    13    6   57 1   
    14    7    8 1   
    15    7   38 1   
    16    7   39 1   
    17    8    9 1   
    18    8   40 1   
    19    9   10 1   
    20    9   41 1   
    21    9   42 1   
    22   10   11 1   
    23   10   43 1   
    24   10   44 1   
    25   11   12 1   
    26   11   45 1   
    27   12   13 1   
    28   12   14 1   
    29   13   16 2   
    30   13   46 1   
    31   14   15 2   
    32   15   16 1   
    33   15   47 1   
    34   16   17 1   
    35   17   18 ar  
    36   17   19 ar  
    37   18   48 1   
    38   19   20 ar  
    39   19   49 1   
    40   21   22 1   
    41   22   23 1   
    42   22   24 1   
    43   22   25 1   
    44   26   27 1   
    45   26   50 1   
    46   27   28 1   
    47   27   51 1   
    48   27   52 1   
    49   28   29 ar  
    50   28   30 ar  
    51   29   33 ar  
    52   29   53 1   
    53   30   31 ar  
    54   30   54 1   
    55   31   32 ar  
    56   31   55 1   
    57   32   33 ar  
    58   32   56 1   
    59   33   34 1   
    60   34   35 1   
    61   34   36 1   
@<TRIPOS>SUBSTRUCTURE
     1 0J8         1 TEMP              0 ****  ****    0 ROOT
