@<TRIPOS>MOLECULE
0J8
   57    61     1     0     0
SMALL
bcc


@<TRIPOS>ATOM
      1 C4         -0.0000    0.3240    0.0480 ca        1 0J8      0.665300
      2 C5          1.4340    0.1900    0.0050 ca        1 0J8     -0.315600
      3 C6          2.1220    0.0390    1.2860 ca        1 0J8      0.712200
      4 N1          1.4260    0.0220    2.4490 nb        1 0J8     -0.755000
      5 N3         -0.6880    0.3190    1.2590 nb        1 0J8     -0.645000
      6 CAP         1.4760   -1.0420   -7.7940 c3        1 0J8     -0.093400
      7 CAN         1.2810   -1.0690   -9.3100 c3        1 0J8      0.163800
      8 NAW         0.4960    0.0450   -9.8000 n3        1 0J8     -0.825200
      9 CAO         1.0000    1.3380   -9.3830 c3        1 0J8      0.163800
     10 CAQ         1.1850    1.4470   -7.8700 c3        1 0J8     -0.093400
     11 CBG         2.0850    0.3050   -7.3750 c3        1 0J8      0.061000
     12 NBI         2.3120    0.3750   -5.9290 na        1 0J8      0.100400
     13 CAM         1.3060    0.2850   -4.9660 cc        1 0J8     -0.113300
     14 NAT         3.5250    0.5360   -5.3710 nc        1 0J8     -0.501800
     15 CAJ         3.3430    0.5520   -4.0290 cd        1 0J8      0.312200
     16 CBA         1.9360    0.3950   -3.7080 cd        1 0J8     -0.232300
     17 CAZ         1.3370    0.3600   -2.4100 ca        1 0J8     -0.093300
     18 CAL         2.0810    0.2170   -1.2510 ca        1 0J8     -0.073000
     19 CAI        -0.0890    0.4780   -2.2660 ca        1 0J8      0.440200
     20 NAS        -0.7410    0.4650   -1.1210 nb        1 0J8     -0.622000
     21 C2          0.0630    0.1760    2.3550 ca        1 0J8      0.621300
     22 CBJ        -0.7280    0.1690    3.7100 c3        1 0J8      0.617600
     23 FAD        -1.4680    1.3060    3.8970 f         1 0J8     -0.219300
     24 FAE        -1.6150   -0.8710    3.7940 f         1 0J8     -0.219300
     25 FAC         0.0320    0.0660    4.8430 f         1 0J8     -0.219300
     26 NAX         3.5100   -0.0240    1.3130 nh        1 0J8     -0.846900
     27 CAR         4.2130   -0.3220    2.5430 c3        1 0J8      0.247100
     28 CAY         5.7030   -0.3120    2.3530 ca        1 0J8     -0.123300
     29 CAK         6.4300   -1.4960    2.4920 ca        1 0J8     -0.057000
     30 CAG         6.3650    0.8890    2.0730 ca        1 0J8     -0.070000
     31 CAF         7.7520    0.9120    1.9330 ca        1 0J8     -0.142000
     32 CAH         8.4960   -0.2580    2.0710 ca        1 0J8     -0.059000
     33 CBB         7.8260   -1.4600    2.3500 ca        1 0J8     -0.178200
     34 NBH         8.6070   -2.7170    2.4970 no        1 0J8      0.313200
     35 OAB         9.8030   -2.6740    2.3890 o         1 0J8     -0.204000
     36 OAA         8.0210   -3.7430    2.7150 o         1 0J8     -0.204000
     37 H2          2.1550   -1.8840   -7.5060 hc        1 0J8      0.061700
     38 H3          2.3030   -1.1170   -9.7940 h1        1 0J8      0.036700
     39 H4          0.7310   -2.0140   -9.5830 h1        1 0J8      0.036700
     40 H5          0.4250    0.0060  -10.8000 hn        1 0J8      0.372800
     41 H7          0.2490    2.1120   -9.7090 h1        1 0J8      0.036700
     42 H8          1.9860    1.5900   -9.8760 h1        1 0J8      0.036700
     43 H9          0.1880    1.4010   -7.3590 hc        1 0J8      0.061700
     44 H10         1.6500    2.4390   -7.6380 hc        1 0J8      0.061700
     45 H11         3.0940    0.4070   -7.8820 h1        1 0J8      0.089700
     46 H12         0.2580    0.1490   -5.2320 h4        1 0J8      0.183000
     47 H13         4.1760    0.6780   -3.3370 h4        1 0J8      0.042100
     48 H14         3.1750    0.1320   -1.3300 ha        1 0J8      0.138000
     49 H15        -0.7170    0.5960   -3.1710 h4        1 0J8      0.031100
     50 H16         3.9430   -0.3500    0.4780 hn        1 0J8      0.428800
     51 H17         3.9380    0.4630    3.3080 h1        1 0J8      0.075700
     52 H18         3.8890   -1.3240    2.9550 h1        1 0J8      0.075700
     53 H19         5.9180   -2.4490    2.7160 ha        1 0J8      0.175000
     54 H20         5.7830    1.8200    1.9680 ha        1 0J8      0.155000
     55 H21         8.2680    1.8600    1.7150 ha        1 0J8      0.153000
     56 H22         9.5940   -0.2430    1.9640 ha        1 0J8      0.174000
     57 H1          0.4920   -1.1970   -7.2800 hc        1 0J8      0.061700
@<TRIPOS>BOND
     1    1    2 ar  
     2    1    5 ar  
     3    1   20 ar  
     4    2    3 ar  
     5    2   18 ar  
     6    3    4 ar  
     7    3   26 1   
     8    4   21 ar  
     9    5   21 ar  
    10    6    7 1   
    11    6   11 1   
    12    6   37 1   
    13    6   57 1   
    14    7    8 1   
    15    7   38 1   
    16    7   39 1   
    17    8    9 1   
    18    8   40 1   
    19    9   10 1   
    20    9   41 1   
    21    9   42 1   
    22   10   11 1   
    23   10   43 1   
    24   10   44 1   
    25   11   12 1   
    26   11   45 1   
    27   12   13 1   
    28   12   14 1   
    29   13   16 2   
    30   13   46 1   
    31   14   15 2   
    32   15   16 1   
    33   15   47 1   
    34   16   17 1   
    35   17   18 ar  
    36   17   19 ar  
    37   18   48 1   
    38   19   20 ar  
    39   19   49 1   
    40   21   22 1   
    41   22   23 1   
    42   22   24 1   
    43   22   25 1   
    44   26   27 1   
    45   26   50 1   
    46   27   28 1   
    47   27   51 1   
    48   27   52 1   
    49   28   29 ar  
    50   28   30 ar  
    51   29   33 ar  
    52   29   53 1   
    53   30   31 ar  
    54   30   54 1   
    55   31   32 ar  
    56   31   55 1   
    57   32   33 ar  
    58   32   56 1   
    59   33   34 1   
    60   34   35 1   
    61   34   36 1   
@<TRIPOS>SUBSTRUCTURE
     1 0J8         1 TEMP              0 ****  ****    0 ROOT
