@<TRIPOS>MOLECULE
0J8
   57    61     1     0     0
SMALL
bcc


@<TRIPOS>ATOM
      1 C4          0.0020    0.3340    0.0480 ca        1 0J8      0.665300
      2 C5          1.4350    0.1910    0.0050 ca        1 0J8     -0.315600
      3 C6          2.1230    0.0390    1.2860 ca        1 0J8      0.712200
      4 N1          1.4270    0.0280    2.4490 nb        1 0J8     -0.755000
      5 N3         -0.6850    0.3350    1.2580 nb        1 0J8     -0.645000
      6 CAP         1.4680   -1.0510   -7.7940 c3        1 0J8     -0.093400
      7 CAN         1.2730   -1.0780   -9.3090 c3        1 0J8      0.163800
      8 NAW         0.4950    0.0410   -9.8000 n7        1 0J8     -0.825200
      9 CAO         1.0080    1.3310   -9.3850 c3        1 0J8      0.163800
     10 CAQ         1.1930    1.4400   -7.8720 c3        1 0J8     -0.093400
     11 CBG         2.0860    0.2920   -7.3760 c3        1 0J8      0.061000
     12 NBI         2.3140    0.3630   -5.9300 na        1 0J8      0.100400
     13 CAM         1.3070    0.2810   -4.9670 cc        1 0J8     -0.113300
     14 NAT         3.5280    0.5160   -5.3730 nc        1 0J8     -0.501800
     15 CAJ         3.3470    0.5350   -4.0310 cd        1 0J8      0.312200
     16 CBA         1.9380    0.3880   -3.7090 cd        1 0J8     -0.232300
     17 CAZ         1.3390    0.3580   -2.4110 ca        1 0J8     -0.093300
     18 CAL         2.0830    0.2130   -1.2520 ca        1 0J8     -0.073000
     19 CAI        -0.0860    0.4840   -2.2670 ca        1 0J8      0.440200
     20 NAS        -0.7380    0.4760   -1.1220 nb        1 0J8     -0.622000
     21 C2          0.0650    0.1900    2.3540 ca        1 0J8      0.621300
     22 CBJ        -0.7270    0.1890    3.7100 c3        1 0J8      0.617600
     23 FAD        -1.4590    1.3310    3.8950 f         1 0J8     -0.219300
     24 FAE        -1.6190   -0.8450    3.7950 f         1 0J8     -0.219300
     25 FAC         0.0330    0.0830    4.8430 f         1 0J8     -0.219300
     26 NAX         3.5100   -0.0310    1.3130 nu        1 0J8     -0.846900
     27 CAR         4.2120   -0.3310    2.5430 c3        1 0J8      0.247100
     28 CAY         5.7020   -0.3280    2.3530 ca        1 0J8     -0.123300
     29 CAK         6.4230   -1.5160    2.4960 ca        1 0J8     -0.057000
     30 CAG         6.3700    0.8680    2.0690 ca        1 0J8     -0.070000
     31 CAF         7.7570    0.8840    1.9290 ca        1 0J8     -0.142000
     32 CAH         8.4950   -0.2900    2.0710 ca        1 0J8     -0.059000
     33 CBB         7.8190   -1.4880    2.3540 ca        1 0J8     -0.178200
     34 NBH         8.5940   -2.7480    2.5040 no        1 0J8      0.313200
     35 OAB         9.7900   -2.7110    2.3960 o         1 0J8     -0.204000
     36 OAA         8.0020   -3.7710    2.7260 o         1 0J8     -0.204000
     37 H2          0.4830   -1.1990   -7.2790 hc        1 0J8      0.061700
     38 H3          2.2940   -1.1330   -9.7930 h1        1 0J8      0.036700
     39 H4          0.7170   -2.0200   -9.5820 h1        1 0J8      0.036700
     40 H5          0.4230    0.0020  -10.8000 hn        1 0J8      0.372800
     41 H7          1.9950    1.5760   -9.8780 h1        1 0J8      0.036700
     42 H8          0.2620    2.1100   -9.7110 h1        1 0J8      0.036700
     43 H9          0.1960    1.4010   -7.3610 hc        1 0J8      0.061700
     44 H10         1.6650    2.4290   -7.6410 hc        1 0J8      0.061700
     45 H11         3.0950    0.3870   -7.8830 h1        1 0J8      0.089700
     46 H12         0.2580    0.1510   -5.2330 h4        1 0J8      0.183000
     47 H13         4.1800    0.6560   -3.3390 h4        1 0J8      0.042100
     48 H14         3.1760    0.1220   -1.3310 ha        1 0J8      0.138000
     49 H15        -0.7140    0.6040   -3.1720 h4        1 0J8      0.031100
     50 H16         3.9420   -0.3610    0.4780 hn        1 0J8      0.428800
     51 H17         3.8830   -1.3300    2.9570 h1        1 0J8      0.075700
     52 H18         3.9410    0.4570    3.3070 h1        1 0J8      0.075700
     53 H19         5.9070   -2.4650    2.7230 ha        1 0J8      0.175000
     54 H20         5.7930    1.8010    1.9610 ha        1 0J8      0.155000
     55 H21         8.2780    1.8280    1.7080 ha        1 0J8      0.153000
     56 H22         9.5940   -0.2810    1.9640 ha        1 0J8      0.174000
     57 H1          2.1420   -1.8970   -7.5050 hc        1 0J8      0.061700
@<TRIPOS>BOND
     1    1    2 ar  
     2    1    5 ar  
     3    1   20 ar  
     4    2    3 ar  
     5    2   18 ar  
     6    3    4 ar  
     7    3   26 1   
     8    4   21 ar  
     9    5   21 ar  
    10    6    7 1   
    11    6   11 1   
    12    6   37 1   
    13    6   57 1   
    14    7    8 1   
    15    7   38 1   
    16    7   39 1   
    17    8    9 1   
    18    8   40 1   
    19    9   10 1   
    20    9   41 1   
    21    9   42 1   
    22   10   11 1   
    23   10   43 1   
    24   10   44 1   
    25   11   12 1   
    26   11   45 1   
    27   12   13 1   
    28   12   14 1   
    29   13   16 2   
    30   13   46 1   
    31   14   15 2   
    32   15   16 1   
    33   15   47 1   
    34   16   17 1   
    35   17   18 ar  
    36   17   19 ar  
    37   18   48 1   
    38   19   20 ar  
    39   19   49 1   
    40   21   22 1   
    41   22   23 1   
    42   22   24 1   
    43   22   25 1   
    44   26   27 1   
    45   26   50 1   
    46   27   28 1   
    47   27   51 1   
    48   27   52 1   
    49   28   29 ar  
    50   28   30 ar  
    51   29   33 ar  
    52   29   53 1   
    53   30   31 ar  
    54   30   54 1   
    55   31   32 ar  
    56   31   55 1   
    57   32   33 ar  
    58   32   56 1   
    59   33   34 1   
    60   34   35 1   
    61   34   36 1   
@<TRIPOS>SUBSTRUCTURE
     1 0J8         1 TEMP              0 ****  ****    0 ROOT
