@<TRIPOS>MOLECULE
0J8
   57    61     1     0     0
SMALL
bcc


@<TRIPOS>ATOM
      1 C4          0.0690   -2.9010    0.1660 ca        1 0J8      0.665300
      2 C5          0.4600   -1.5170    0.2460 ca        1 0J8     -0.315600
      3 C6          1.8940   -1.2340    0.2470 ca        1 0J8      0.713200
      4 N1          2.7990   -2.2410    0.1700 nb        1 0J8     -0.755000
      5 N3          1.0210   -3.9160    0.1030 nb        1 0J8     -0.646000
      6 CAP        -6.8500    1.0600   -1.2740 c3        1 0J8     -0.132400
      7 CAN        -8.3520    1.3330   -1.3850 c3        1 0J8      0.151800
      8 NAW        -9.1840    0.6250   -0.4340 n3        1 0J8     -0.799200
      9 CAO        -8.7090    0.7580    0.9270 c3        1 0J8      0.151800
     10 CAQ        -7.2220    0.4610    1.1370 c3        1 0J8     -0.132400
     11 CBG        -6.3880    1.3140    0.1690 c3        1 0J8      0.063000
     12 NBI        -4.9500    1.0800    0.3330 na        1 0J8      0.100400
     13 CAM        -4.3200   -0.1480    0.1270 cc        1 0J8     -0.116300
     14 NAT        -4.0780    2.0340    0.7030 nc        1 0J8     -0.499800
     15 CAJ        -2.8540    1.4550    0.7450 cd        1 0J8      0.312200
     16 CBA        -2.9470    0.0520    0.3850 cd        1 0J8     -0.230300
     17 CAZ        -1.8830   -0.9010    0.3100 ca        1 0J8     -0.094300
     18 CAL        -0.5490   -0.5300    0.3220 ca        1 0J8     -0.071000
     19 CAI        -2.1730   -2.3060    0.2190 ca        1 0J8      0.440200
     20 NAS        -1.2730   -3.2670    0.1510 nb        1 0J8     -0.622000
     21 C2          2.2970   -3.5190    0.1150 ca        1 0J8      0.621300
     22 CBJ         3.3560   -4.6750    0.0400 c3        1 0J8      0.618600
     23 FAD         3.2250   -5.5790    1.0590 f         1 0J8     -0.219300
     24 FAE         3.2580   -5.4000   -1.1170 f         1 0J8     -0.219300
     25 FAC         4.6660   -4.2860    0.0940 f         1 0J8     -0.219300
     26 NAX         2.3330    0.0760    0.3930 nh        1 0J8     -0.846900
     27 CAR         3.7350    0.4080    0.2510 c3        1 0J8      0.248100
     28 CAY         3.9900    1.8720    0.4730 ca        1 0J8     -0.123300
     29 CAK         4.4230    2.6700   -0.5870 ca        1 0J8     -0.057000
     30 CAG         3.8260    2.4250    1.7480 ca        1 0J8     -0.070000
     31 CAF         4.0980    3.7740    1.9690 ca        1 0J8     -0.142000
     32 CAH         4.5350    4.5880    0.9260 ca        1 0J8     -0.058000
     33 CBB         4.6940    4.0270   -0.3520 ca        1 0J8     -0.178200
     34 NBH         5.1570    4.8850   -1.4760 no        1 0J8      0.313200
     35 OAB         5.4020    6.0410   -1.2610 o         1 0J8     -0.204000
     36 OAA         5.2690    4.3980   -2.5690 o         1 0J8     -0.204000
     37 H2         -6.3040    1.7370   -1.9800 hc        1 0J8      0.057950
     38 H3         -8.5300    2.4360   -1.2340 h1        1 0J8      0.061200
     39 H4         -8.6930    1.0680   -2.4240 h1        1 0J8      0.061200
     40 H5         -9.2460   -0.3450   -0.6850 hn        1 0J8      0.355800
     41 H7         -8.9150    1.8180    1.2550 h1        1 0J8      0.061200
     42 H8         -9.3120    0.0720    1.5850 h1        1 0J8      0.061200
     43 H9         -6.9490    0.6990    2.1970 hc        1 0J8      0.057950
     44 H10        -7.0190   -0.6280    0.9670 hc        1 0J8      0.057950
     45 H11        -6.5830    2.4050    0.4100 h1        1 0J8      0.094700
     46 H12        -4.8670   -1.0380   -0.1810 h4        1 0J8      0.180000
     47 H13        -1.9620    2.0150    1.0280 h4        1 0J8      0.043100
     48 H14        -0.2960    0.5390    0.3980 ha        1 0J8      0.139000
     49 H15        -3.2290   -2.6420    0.2090 h4        1 0J8      0.029100
     50 H16         1.6900    0.7810    0.1090 hn        1 0J8      0.429800
     51 H17         4.3190   -0.1840    1.0160 h1        1 0J8      0.075700
     52 H18         4.1140    0.1060   -0.7710 h1        1 0J8      0.075700
     53 H19         4.5590    2.2430   -1.5960 ha        1 0J8      0.175000
     54 H20         3.4860    1.7860    2.5790 ha        1 0J8      0.155000
     55 H21         3.9700    4.2040    2.9750 ha        1 0J8      0.153000
     56 H22         4.7530    5.6560    1.0980 ha        1 0J8      0.175000
     57 H1         -6.6270    0.0030   -1.5710 hc        1 0J8      0.057950
@<TRIPOS>BOND
     1    1    2 ar  
     2    1    5 ar  
     3    1   20 ar  
     4    2    3 ar  
     5    2   18 ar  
     6    3    4 ar  
     7    3   26 1   
     8    4   21 ar  
     9    5   21 ar  
    10    6    7 1   
    11    6   11 1   
    12    6   37 1   
    13    6   57 1   
    14    7    8 1   
    15    7   38 1   
    16    7   39 1   
    17    8    9 1   
    18    8   40 1   
    19    9   10 1   
    20    9   41 1   
    21    9   42 1   
    22   10   11 1   
    23   10   43 1   
    24   10   44 1   
    25   11   12 1   
    26   11   45 1   
    27   12   13 1   
    28   12   14 1   
    29   13   16 2   
    30   13   46 1   
    31   14   15 2   
    32   15   16 1   
    33   15   47 1   
    34   16   17 1   
    35   17   18 ar  
    36   17   19 ar  
    37   18   48 1   
    38   19   20 ar  
    39   19   49 1   
    40   21   22 1   
    41   22   23 1   
    42   22   24 1   
    43   22   25 1   
    44   26   27 1   
    45   26   50 1   
    46   27   28 1   
    47   27   51 1   
    48   27   52 1   
    49   28   29 ar  
    50   28   30 ar  
    51   29   33 ar  
    52   29   53 1   
    53   30   31 ar  
    54   30   54 1   
    55   31   32 ar  
    56   31   55 1   
    57   32   33 ar  
    58   32   56 1   
    59   33   34 1   
    60   34   35 1   
    61   34   36 1   
@<TRIPOS>SUBSTRUCTURE
     1 0J8         1 TEMP              0 ****  ****    0 ROOT
