@<TRIPOS>MOLECULE
0J8
   57    52     1     0     0
SMALL
bcc


@<TRIPOS>ATOM
      1 C4         -3.3270    0.8200    1.7160 c1        1 0J8      0.070000
      2 C5         -1.9690    0.7800    1.7000 c1        1 0J8     -0.180000
      3 C6         -1.2660    0.7680    2.8960 c1        1 0J8      0.182000
      4 N1         -1.9380    0.7950    4.0780 n2        1 0J8     -0.226000
      5 N3         -3.9970    0.8480    2.9070 n1        1 0J8     -0.103000
      6 CAP        -0.4350    0.6500   -6.3890 c3        1 0J8     -0.169000
      7 CAN        -0.1070    0.1100   -7.7540 c3        1 0J8     -0.073000
      8 NAW         1.2460   -0.4470   -7.8250 n3        1 0J8     -0.302000
      9 CAO         1.5210   -1.4370   -6.7440 c3        1 0J8     -0.073000
     10 CAQ         1.2000   -0.9000   -5.3780 c3        1 0J8     -0.169000
     11 CBG        -0.1650   -0.3430   -5.3020 c3        1 0J8      0.052000
     12 NBI        -0.3570    0.3230   -3.9640 n3        1 0J8     -0.113000
     13 CAM        -1.3180    0.0120   -3.0460 c1        1 0J8     -0.093000
     14 NAT         0.3720    1.3950   -3.4750 n2        1 0J8     -0.065000
     15 CAJ        -0.1440    1.7370   -2.2620 c1        1 0J8     -0.155000
     16 CBA        -1.1930    0.8830   -1.9880 c1        1 0J8     -0.165000
     17 CAZ        -1.9990    0.8420   -0.6980 c1        1 0J8     -0.028000
     18 CAL        -1.2910    0.7910    0.4950 c2        1 0J8     -0.071000
     19 CAI        -3.3570    0.8820   -0.6810 c1        1 0J8     -0.026000
     20 NAS        -4.0330    0.8710    0.5240 n1        1 0J8     -0.103000
     21 C2         -3.3020    0.8350    4.0860 c1        1 0J8     -0.002000
     22 CBJ        -4.2680    0.8160    5.2780 c3        1 0J8      0.498000
     23 FAD        -4.6450    2.1100    5.5850 f         1 0J8     -0.146667
     24 FAE        -5.3670    0.0840    4.9570 f         1 0J8     -0.146667
     25 FAC        -3.6330    0.2410    6.3860 f         1 0J8     -0.146667
     26 NAX         0.1250    0.6300    3.0590 n2        1 0J8     -0.271000
     27 CAR         0.7330    0.9260    4.3360 c3        1 0J8     -0.006000
     28 CAY         1.9870    0.0000    4.5510 c2        1 0J8     -0.131000
     29 CAK         1.9200   -1.0640    5.4360 c2        1 0J8     -0.038000
     30 CAG         3.2000    0.3320    3.9610 c1        1 0J8     -0.089000
     31 CAF         4.3400   -0.4010    4.2590 c1        1 0J8     -0.100500
     32 CAH         4.2690   -1.4620    5.1420 c1        1 0J8     -0.100500
     33 CBB         3.0620   -1.7950    5.7310 c1        1 0J8     -0.130000
     34 NBH         2.9920   -2.8780    6.6320 no        1 0J8      0.568000
     35 OAB         1.7930   -3.5130    6.8500 o         1 0J8     -0.352500
     36 OAA         4.0270   -3.2730    7.2200 o         1 0J8     -0.352500
     37 H1          0.1050    1.4530   -6.2280 hc        1 0J8      0.108000
     38 H2         -1.3420    0.8830   -6.3670 hc        1 0J8      0.108000
     39 H3         -0.1840    0.8270   -8.3970 h1        1 0J8      0.072500
     40 H4         -0.7730   -0.6140   -7.9900 h1        1 0J8      0.072500
     41 H5          1.3710   -0.8500   -8.6500 hn        1 0J8      0.166000
     42 H7          2.4970   -1.6900   -6.7740 h1        1 0J8      0.072500
     43 H8          0.9630   -2.2610   -6.9090 h1        1 0J8      0.072500
     44 H9          1.2820   -1.6080   -4.7370 hc        1 0J8      0.108000
     45 H10         1.8480   -0.1910   -5.1550 hc        1 0J8      0.108000
     46 H11        -0.7940   -1.0600   -5.3820 h1        1 0J8      0.099000
     47 H12        -2.0200   -0.7490   -3.1290 DU        1 0J8      0.180000
     48 H13         0.1880    2.4920   -1.6600 DU        1 0J8      0.180000
     49 H14        -0.3350    0.8560    0.4860 ha        1 0J8      0.140000
     50 H15        -3.8560    0.9080   -1.5250 ha        1 0J8      0.167000
     51 H16         0.6330    0.3110    2.3780 hn        1 0J8      0.211000
     52 H17         0.1100    0.7730    5.0200 h1        1 0J8      0.123500
     53 H18         1.0290    1.9180    4.3550 h1        1 0J8      0.123500
     54 H19         1.0880   -1.2950    5.8430 ha        1 0J8      0.186000
     55 H20         3.2500    1.0710    3.3440 ha        1 0J8      0.136000
     56 H21         5.1960   -0.1680    3.8440 ha        1 0J8      0.161500
     57 H22         5.0690   -1.9750    5.3510 ha        1 0J8      0.161500
@<TRIPOS>BOND
     1    1    5 1   
     2    1   20 1   
     3    2    3 1   
     4    2   18 1   
     5    3    4 1   
     6    4   21 1   
     7    6    7 1   
     8    6   11 1   
     9    6   37 1   
    10    6   38 1   
    11    7    8 1   
    12    7   39 1   
    13    7   40 1   
    14    8    9 1   
    15    8   41 1   
    16    9   10 1   
    17    9   42 1   
    18    9   43 1   
    19   10   11 1   
    20   10   44 1   
    21   10   45 1   
    22   11   12 1   
    23   11   46 1   
    24   12   13 1   
    25   12   14 1   
    26   13   16 1   
    27   14   15 1   
    28   15   16 1   
    29   17   18 1   
    30   17   19 1   
    31   18   49 1   
    32   19   50 1   
    33   21   22 1   
    34   22   23 1   
    35   22   24 1   
    36   22   25 1   
    37   26   27 1   
    38   26   51 1   
    39   27   28 1   
    40   27   52 1   
    41   27   53 1   
    42   28   29 1   
    43   28   30 1   
    44   29   33 1   
    45   29   54 1   
    46   30   55 1   
    47   31   32 1   
    48   31   56 1   
    49   32   57 1   
    50   33   34 1   
    51   34   35 1   
    52   34   36 1   
@<TRIPOS>SUBSTRUCTURE
     1 0J8         1 TEMP              0 ****  ****    0 ROOT
