@<TRIPOS>MOLECULE
0J9
   43    46     1     0     0
SMALL
bcc


@<TRIPOS>ATOM
      1 N1         -0.0880    0.4480   -0.0050 nb        1 0J9     -0.802000
      2 C2          1.2710    0.4030    0.0550 ca        1 0J9      0.692900
      3 N3          2.0940    0.2430    1.1140 nb        1 0J9     -0.745000
      4 C4          1.4190    0.1120    2.3010 ca        1 0J9      0.476800
      5 C5         -0.0320    0.1400    2.3920 ca        1 0J9     -0.501500
      6 C6         -0.7710    0.3030    1.1810 ca        1 0J9      0.763200
      7 CAA         4.0860    1.0900    3.6320 c3        1 0J9     -0.105433
      8 CAB         3.9600   -1.3870    3.3410 c3        1 0J9     -0.105433
      9 CAC         3.4530   -0.3610    5.5430 c3        1 0J9     -0.105433
     10 NAD        -2.1430    0.2780    1.2010 nh        1 0J9     -0.959500
     11 CAE        -3.2290    3.2110    6.5850 ca        1 0J9     -0.124000
     12 CAF        -1.9360    3.3040    6.0170 ca        1 0J9     -0.127000
     13 CAI        -2.4010   -1.2120    4.2650 ca        1 0J9     -0.112000
     14 CAJ        -3.9690    2.0650    6.4320 ca        1 0J9     -0.121000
     15 CAK        -4.2060   -0.2320    5.5390 ca        1 0J9     -0.110000
     16 CAL        -1.4090    2.2510    5.3090 ca        1 0J9     -0.109000
     17 NAO         0.8560   -0.1330    4.4880 nc        1 0J9     -0.496100
     18 CAQ        -1.6390   -0.0700    4.4090 ca        1 0J9     -0.092900
     19 CAR        -0.3110   -0.0170    3.8050 cd        1 0J9      0.411500
     20 CAS        -3.4490    0.9590    5.7040 ca        1 0J9     -0.042000
     21 CAT        -2.1500    1.0490    5.1370 ca        1 0J9     -0.020000
     22 NAW         1.8840   -0.0540    3.6210 na        1 0J9      0.000200
     23 CAX         3.3070   -0.1750    4.0240 c3        1 0J9      0.099700
     24 CAG        -3.6930   -1.2910    4.8330 ca        1 0J9     -0.136000
     25 H1          1.7790    0.5180   -0.9280 h5        1 0J9      0.050100
     26 H2          4.0990    1.2350    2.5260 hc        1 0J9      0.051811
     27 H3          5.1390    0.9780    3.9850 hc        1 0J9      0.051811
     28 H4          3.6430    1.9940    4.1130 hc        1 0J9      0.051811
     29 H5          3.9670   -1.2750    2.2320 hc        1 0J9      0.051811
     30 H6          5.0160   -1.4650    3.6950 hc        1 0J9      0.051811
     31 H7          3.4240   -2.3290    3.6080 hc        1 0J9      0.051811
     32 H8          3.0280    0.5090    6.0970 hc        1 0J9      0.051811
     33 H9          2.9440   -1.2930    5.8850 hc        1 0J9      0.051811
     34 H10         4.5410   -0.4400    5.7840 hc        1 0J9      0.051811
     35 H11        -2.5950    0.2980    2.0840 hn        1 0J9      0.443300
     36 H12        -2.6590    0.5060    0.3880 hn        1 0J9      0.443300
     37 H13        -3.6280    4.0660    7.1490 ha        1 0J9      0.134000
     38 H14        -1.3590    4.2310    6.1500 ha        1 0J9      0.135000
     39 H15        -2.0050   -2.0780    3.7120 ha        1 0J9      0.145000
     40 H16        -4.9750    1.9800    6.8690 ha        1 0J9      0.133000
     41 H17        -5.2090   -0.2860    5.9900 ha        1 0J9      0.135000
     42 H18        -0.4040    2.3230    4.8670 ha        1 0J9      0.146000
     43 H19        -4.2730   -2.2170    4.7060 ha        1 0J9      0.137000
@<TRIPOS>BOND
     1    1    2 ar  
     2    1    6 ar  
     3    2    3 ar  
     4    2   25 1   
     5    3    4 ar  
     6    4    5 ar  
     7    4   22 1   
     8    5    6 ar  
     9    5   19 1   
    10    6   10 1   
    11    7   23 1   
    12    7   26 1   
    13    7   27 1   
    14    7   28 1   
    15    8   23 1   
    16    8   29 1   
    17    8   30 1   
    18    8   31 1   
    19    9   23 1   
    20    9   32 1   
    21    9   33 1   
    22    9   34 1   
    23   10   35 1   
    24   10   36 1   
    25   11   12 ar  
    26   11   14 ar  
    27   11   37 1   
    28   12   16 ar  
    29   12   38 1   
    30   13   18 ar  
    31   13   24 ar  
    32   13   39 1   
    33   14   20 ar  
    34   14   40 1   
    35   15   20 ar  
    36   15   24 ar  
    37   15   41 1   
    38   16   21 ar  
    39   16   42 1   
    40   17   19 2   
    41   17   22 1   
    42   18   19 1   
    43   18   21 ar  
    44   20   21 ar  
    45   22   23 1   
    46   24   43 1   
@<TRIPOS>SUBSTRUCTURE
     1 0J9         1 TEMP              0 ****  ****    0 ROOT
