@<TRIPOS>MOLECULE
0J9
   43    46     1     0     0
SMALL
bcc


@<TRIPOS>ATOM
      1 N1         -1.9650   -2.9290    1.3220 nb        1 0J9     -0.802000
      2 C2         -3.1090   -2.1920    1.2840 ca        1 0J9      0.692900
      3 N3         -3.3360   -0.9570    0.7880 nb        1 0J9     -0.745000
      4 C4         -2.2140   -0.3830    0.2470 ca        1 0J9      0.476800
      5 C5         -0.9220   -1.0500    0.2160 ca        1 0J9     -0.501500
      6 C6         -0.8400   -2.3640    0.7690 ca        1 0J9      0.763200
      7 CAA        -3.6720    2.3470    0.7620 c3        1 0J9     -0.105433
      8 CAB        -4.1780    1.3450   -1.4690 c3        1 0J9     -0.105433
      9 CAC        -2.4900    3.1540   -1.2660 c3        1 0J9     -0.105433
     10 NAD         0.3410   -3.0630    0.7130 nh        1 0J9     -0.959500
     11 CAE         4.4120    1.5510    1.6220 ca        1 0J9     -0.124000
     12 CAF         3.0500    1.7850    1.9260 ca        1 0J9     -0.127000
     13 CAI         1.7470   -1.1380   -1.7390 ca        1 0J9     -0.112000
     14 CAJ         4.7540    0.7240    0.5820 ca        1 0J9     -0.121000
     15 CAK         4.0920   -0.7650   -1.2820 ca        1 0J9     -0.110000
     16 CAL         2.0590    1.1900    1.1850 ca        1 0J9     -0.109000
     17 NAO        -0.7290    1.0250   -0.7400 nc        1 0J9     -0.496100
     18 CAQ         1.3820   -0.3080   -0.6980 ca        1 0J9     -0.092900
     19 CAR        -0.0350   -0.0960   -0.4180 cd        1 0J9      0.411500
     20 CAS         3.7490    0.0930   -0.2030 ca        1 0J9     -0.042000
     21 CAT         2.3810    0.3300    0.0980 ca        1 0J9     -0.020000
     22 NAW        -2.0110    0.8770   -0.3510 na        1 0J9      0.000200
     23 CAX        -3.0590    1.9030   -0.5750 c3        1 0J9      0.099700
     24 CAG         3.1110   -1.3680   -2.0310 ca        1 0J9     -0.136000
     25 H1         -3.9940   -2.6920    1.7360 h5        1 0J9      0.050100
     26 H2         -2.8890    2.7630    1.4390 hc        1 0J9      0.051922
     27 H3         -4.4260    3.1440    0.5560 hc        1 0J9      0.051922
     28 H4         -4.1860    1.5010    1.2760 hc        1 0J9      0.051922
     29 H5         -4.9270    2.1550   -1.6430 hc        1 0J9      0.051922
     30 H6         -3.7710    1.0180   -2.4550 hc        1 0J9      0.051922
     31 H7         -4.6950    0.4840   -0.9840 hc        1 0J9      0.051922
     32 H8         -1.6940    3.6290   -0.6450 hc        1 0J9      0.051922
     33 H9         -2.0690    2.9040   -2.2680 hc        1 0J9      0.051922
     34 H10        -3.3210    3.8870   -1.4010 hc        1 0J9      0.051922
     35 H11         0.4360   -3.9220    1.1950 hn        1 0J9      0.443300
     36 H12         1.1550   -2.5770    0.4230 hn        1 0J9      0.443300
     37 H13         5.1880    2.0410    2.2290 ha        1 0J9      0.134000
     38 H14         2.7970    2.4510    2.7640 ha        1 0J9      0.135000
     39 H15         0.9780   -1.6230   -2.3600 ha        1 0J9      0.145000
     40 H16         5.8090    0.5340    0.3340 ha        1 0J9      0.133000
     41 H17         5.1560   -0.9330   -1.5060 ha        1 0J9      0.135000
     42 H18         0.9990    1.3710    1.4210 ha        1 0J9      0.146000
     43 H19         3.3710   -2.0300   -2.8700 ha        1 0J9      0.137000
@<TRIPOS>BOND
     1    1    2 ar  
     2    1    6 ar  
     3    2    3 ar  
     4    2   25 1   
     5    3    4 ar  
     6    4    5 ar  
     7    4   22 1   
     8    5    6 ar  
     9    5   19 1   
    10    6   10 1   
    11    7   23 1   
    12    7   26 1   
    13    7   27 1   
    14    7   28 1   
    15    8   23 1   
    16    8   29 1   
    17    8   30 1   
    18    8   31 1   
    19    9   23 1   
    20    9   32 1   
    21    9   33 1   
    22    9   34 1   
    23   10   35 1   
    24   10   36 1   
    25   11   12 ar  
    26   11   14 ar  
    27   11   37 1   
    28   12   16 ar  
    29   12   38 1   
    30   13   18 ar  
    31   13   24 ar  
    32   13   39 1   
    33   14   20 ar  
    34   14   40 1   
    35   15   20 ar  
    36   15   24 ar  
    37   15   41 1   
    38   16   21 ar  
    39   16   42 1   
    40   17   19 2   
    41   17   22 1   
    42   18   19 1   
    43   18   21 ar  
    44   20   21 ar  
    45   22   23 1   
    46   24   43 1   
@<TRIPOS>SUBSTRUCTURE
     1 0J9         1 TEMP              0 ****  ****    0 ROOT
