@<TRIPOS>MOLECULE
0J9
   43    33     1     0     0
SMALL
bcc


@<TRIPOS>ATOM
      1 N1          0.2610    0.1930   -4.0450 n1        1 0J9     -0.277000
      2 C2          1.6230    0.1670   -3.9810 c1        1 0J9      0.030000
      3 N3          2.2500    0.1800   -2.7710 n1        1 0J9     -0.219000
      4 C4          1.5170    0.2180   -1.6230 c1        1 0J9     -0.100500
      5 C5          0.1720    0.2430   -1.6840 c1        1 0J9     -0.100500
      6 C6         -0.4640    0.2300   -2.9160 c1        1 0J9      0.239000
      7 CAA         3.8700    1.5250   -0.1720 c3        1 0J9     -0.223333
      8 CAB         3.9850   -0.9410   -0.2390 c3        1 0J9     -0.223333
      9 CAC         3.0970    0.2000    1.7640 c3        1 0J9     -0.223333
     10 NAD        -1.7070    0.3270   -3.5920 n2        1 0J9     -0.351000
     11 CAE        -4.1150   -2.4230    2.3220 c1        1 0J9     -0.120167
     12 CAF        -3.0440   -2.8750    1.5570 c1        1 0J9     -0.120167
     13 CAI        -1.7220    1.7050    0.7030 c1        1 0J9     -0.120167
     14 CAJ        -4.3230   -1.0600    2.4900 c1        1 0J9     -0.120167
     15 CAK        -3.6580    1.2450    2.0600 c1        1 0J9     -0.112000
     16 CAL        -2.1830   -1.9630    0.9610 c1        1 0J9     -0.120167
     17 NAO         0.7370    0.2130    0.4550 n2        1 0J9     -0.032000
     18 CAQ        -1.5170    0.3430    0.5310 c1        1 0J9     -0.008000
     19 CAR        -0.3160    0.2400   -0.3840 c1        1 0J9     -0.043000
     20 CAS        -3.4510   -0.1360    1.8860 c1        1 0J9     -0.042000
     21 CAT        -2.3930   -0.5820    1.1300 c1        1 0J9     -0.034000
     22 NAW         1.8800    0.1990   -0.2980 n1        1 0J9     -0.133000
     23 CAX         3.1870    0.2450    0.2540 c2        1 0J9      0.119000
     24 CAG        -2.7940    2.1570    1.4680 c1        1 0J9     -0.120167
     25 H1          2.1500    0.1400   -4.8030 ha        1 0J9      0.187000
     26 H2          4.6900    1.6480    0.3510 hc        1 0J9      0.091111
     27 H3          3.2670    2.2840   -0.0190 hc        1 0J9      0.091111
     28 H4          4.0940    1.4740   -1.1250 hc        1 0J9      0.091111
     29 H5          4.0920   -0.8810   -1.2120 hc        1 0J9      0.091111
     30 H6          3.5140   -1.7690   -0.0120 hc        1 0J9      0.091111
     31 H7          4.8680   -0.9400    0.1870 hc        1 0J9      0.091111
     32 H8          2.7050   -0.6540    2.0430 hc        1 0J9      0.091111
     33 H9          3.9960    0.2880    2.1470 hc        1 0J9      0.091111
     34 H10         2.5340    0.9380    2.0800 hc        1 0J9      0.091111
     35 H11        -1.7300    0.5700   -4.4730 hn        1 0J9      0.238000
     36 H12        -2.4850    0.1510   -3.1460 hn        1 0J9      0.238000
     37 H13        -4.7190   -3.0640    2.7410 ha        1 0J9      0.139167
     38 H14        -2.8980   -3.8320    1.4400 ha        1 0J9      0.139167
     39 H15        -1.1160    2.3460    0.2880 ha        1 0J9      0.139167
     40 H16        -5.0750   -0.7440    3.0270 ha        1 0J9      0.139167
     41 H17        -4.4090    1.5630    2.5970 ha        1 0J9      0.135000
     42 H18        -1.4320   -2.2800    0.4240 ha        1 0J9      0.139167
     43 H19        -2.9370    3.1150    1.5890 ha        1 0J9      0.139167
@<TRIPOS>BOND
     1    1    6 1   
     2    2    3 1   
     3    2   25 1   
     4    4    5 1   
     5    7   23 1   
     6    7   26 1   
     7    7   27 1   
     8    7   28 1   
     9    8   23 1   
    10    8   29 1   
    11    8   30 1   
    12    8   31 1   
    13    9   23 1   
    14    9   32 1   
    15    9   33 1   
    16    9   34 1   
    17   10   35 1   
    18   10   36 1   
    19   11   14 1   
    20   11   37 1   
    21   12   16 1   
    22   12   38 1   
    23   13   24 1   
    24   13   39 1   
    25   14   40 1   
    26   15   20 1   
    27   15   41 1   
    28   16   42 1   
    29   17   19 1   
    30   17   22 1   
    31   18   19 1   
    32   18   21 1   
    33   24   43 1   
@<TRIPOS>SUBSTRUCTURE
     1 0J9         1 TEMP              0 ****  ****    0 ROOT
