@<TRIPOS>MOLECULE
0J9
   44    47     1     0     0
SMALL
bcc


@<TRIPOS>ATOM
      1 N1         -0.1000    1.2110    0.3740 nb        1 0J9     -0.698000
      2 C2          1.2660    1.0560    0.3210 ca        1 0J9      0.677900
      3 N3          2.1000    0.6150    1.2820 nb        1 0J9     -0.625000
      4 C4          1.4870    0.2820    2.4570 ca        1 0J9      0.458800
      5 C5          0.0280    0.4050    2.6480 ca        1 0J9     -0.433500
      6 C6         -0.6930    0.8800    1.5410 ca        1 0J9      0.558200
      7 CAA         4.2510    0.7940    3.8300 c3        1 0J9     -0.112767
      8 CAB         3.9700   -1.5490    2.9960 c3        1 0J9     -0.112767
      9 CAC         3.6090   -1.0240    5.3990 c3        1 0J9     -0.112767
     10 NAD        -2.1590    1.0260    1.6580 n4        1 0J9     -0.834300
     11 CAE        -3.8920    3.2550    5.4450 ca        1 0J9     -0.130000
     12 CAF        -2.6140    3.4130    4.8580 ca        1 0J9     -0.095000
     13 CAI        -1.9280   -1.4010    5.0890 ca        1 0J9     -0.066000
     14 CAJ        -4.3460    2.0020    5.7780 ca        1 0J9     -0.094000
     15 CAK        -3.9870   -0.4450    5.9200 ca        1 0J9     -0.085000
     16 CAL        -1.8280    2.3170    4.5930 ca        1 0J9     -0.199000
     17 NAO         0.9960   -0.4010    4.5560 nc        1 0J9     -0.424100
     18 CAQ        -1.4860   -0.1610    4.6720 ca        1 0J9     -0.153900
     19 CAR        -0.1960   -0.0480    4.0040 cd        1 0J9      0.403500
     20 CAS        -3.5470    0.8510    5.5300 ca        1 0J9     -0.052000
     21 CAT        -2.2780    1.0040    4.9120 ca        1 0J9     -0.051000
     22 NAW         1.9850   -0.2160    3.6730 na        1 0J9      0.041200
     23 CAX         3.4290   -0.4940    3.9690 c3        1 0J9      0.091700
     24 CAG        -3.1900   -1.5430    5.7120 ca        1 0J9     -0.133000
     25 H1          1.7300    1.3360   -0.6530 h5        1 0J9      0.097100
     26 H2          3.8770    1.5860    4.5220 hc        1 0J9      0.063589
     27 H3          4.2370    1.1820    2.7840 hc        1 0J9      0.063589
     28 H4          5.3100    0.5600    4.1000 hc        1 0J9      0.063589
     29 H5          3.3850   -2.4980    3.0650 hc        1 0J9      0.063589
     30 H6          5.0300   -1.7670    3.2750 hc        1 0J9      0.063589
     31 H7          3.9560   -1.1850    1.9420 hc        1 0J9      0.063589
     32 H8          4.6980   -1.2120    5.5630 hc        1 0J9      0.063589
     33 H9          3.2610   -0.2800    6.1550 hc        1 0J9      0.063589
     34 H10         3.0580   -1.9830    5.5480 hc        1 0J9      0.063589
     35 H11        -2.3720    1.4570    2.5760 hn        1 0J9      0.478467
     36 H12        -2.5850    0.0930    1.6140 hn        1 0J9      0.478467
     37 H13        -4.5030    4.1480    5.6500 ha        1 0J9      0.158000
     38 H14        -2.2500    4.4300    4.6360 ha        1 0J9      0.152000
     39 H15        -1.3000   -2.2960    4.9470 ha        1 0J9      0.156000
     40 H16        -5.3280    1.8670    6.2590 ha        1 0J9      0.155000
     41 H17        -4.9710   -0.5450    6.4070 ha        1 0J9      0.156000
     42 H18        -0.8080    2.4450    4.1970 ha        1 0J9      0.141000
     43 H19        -3.5150   -2.5450    6.0350 ha        1 0J9      0.159000
     44 HAD3       -2.5360    1.6090    0.9000 hn        1 0J9      0.478467
@<TRIPOS>BOND
     1    1    2 ar  
     2    1    6 ar  
     3    2    3 ar  
     4    2   25 1   
     5    3    4 ar  
     6    4    5 ar  
     7    4   22 1   
     8    5    6 ar  
     9    5   19 1   
    10    6   10 1   
    11    7   23 1   
    12    7   26 1   
    13    7   27 1   
    14    7   28 1   
    15    8   23 1   
    16    8   29 1   
    17    8   30 1   
    18    8   31 1   
    19    9   23 1   
    20    9   32 1   
    21    9   33 1   
    22    9   34 1   
    23   10   35 1   
    24   10   36 1   
    25   10   44 1   
    26   11   12 ar  
    27   11   14 ar  
    28   11   37 1   
    29   12   16 ar  
    30   12   38 1   
    31   13   18 ar  
    32   13   24 ar  
    33   13   39 1   
    34   14   20 ar  
    35   14   40 1   
    36   15   20 ar  
    37   15   24 ar  
    38   15   41 1   
    39   16   21 ar  
    40   16   42 1   
    41   17   19 2   
    42   17   22 1   
    43   18   19 1   
    44   18   21 ar  
    45   20   21 ar  
    46   22   23 1   
    47   24   43 1   
@<TRIPOS>SUBSTRUCTURE
     1 0J9         1 TEMP              0 ****  ****    0 ROOT
