@<TRIPOS>MOLECULE
0J9
   43    46     1     0     0
SMALL
bcc


@<TRIPOS>ATOM
      1 N1         -0.0920    0.4480   -0.0060 nb        1 0J9     -0.802000
      2 C2          1.2670    0.4020    0.0530 ca        1 0J9      0.692900
      3 N3          2.0910    0.2420    1.1110 nb        1 0J9     -0.745000
      4 C4          1.4170    0.1120    2.2980 ca        1 0J9      0.476800
      5 C5         -0.0340    0.1400    2.3910 ca        1 0J9     -0.501500
      6 C6         -0.7740    0.3040    1.1800 ca        1 0J9      0.763200
      7 CAA         4.0850    1.0900    3.6270 c3        1 0J9     -0.105433
      8 CAB         3.9600   -1.3870    3.3360 c3        1 0J9     -0.105433
      9 CAC         3.4540   -0.3620    5.5390 c3        1 0J9     -0.105433
     10 NAD        -2.1470    0.2790    1.2020 nv        1 0J9     -0.959500
     11 CAE        -3.2230    3.2090    6.5940 ca        1 0J9     -0.124000
     12 CAF        -1.9310    3.3010    6.0240 ca        1 0J9     -0.127000
     13 CAI        -2.4020   -1.2100    4.2640 ca        1 0J9     -0.112000
     14 CAJ        -3.9640    2.0640    6.4400 ca        1 0J9     -0.121000
     15 CAK        -4.2050   -0.2310    5.5420 ca        1 0J9     -0.110000
     16 CAL        -1.4060    2.2500    5.3140 ca        1 0J9     -0.109000
     17 NAO         0.8560   -0.1340    4.4860 nc        1 0J9     -0.496100
     18 CAQ        -1.6390   -0.0690    4.4100 ca        1 0J9     -0.092900
     19 CAR        -0.3120   -0.0160    3.8040 cd        1 0J9      0.411500
     20 CAS        -3.4460    0.9590    5.7090 ca        1 0J9     -0.042000
     21 CAT        -2.1480    1.0490    5.1400 ca        1 0J9     -0.020000
     22 NAW         1.8830   -0.0550    3.6180 na        1 0J9      0.000200
     23 CAX         3.3060   -0.1750    4.0190 c3        1 0J9      0.099700
     24 CAG        -3.6940   -1.2890    4.8340 ca        1 0J9     -0.136000
     25 H1          1.7740    0.5170   -0.9300 h5        1 0J9      0.050100
     26 H2          5.1380    0.9790    3.9800 hc        1 0J9      0.051811
     27 H3          3.6410    1.9940    4.1090 hc        1 0J9      0.051811
     28 H4          4.0970    1.2350    2.5220 hc        1 0J9      0.051811
     29 H5          3.4240   -2.3290    3.6030 hc        1 0J9      0.051811
     30 H6          5.0160   -1.4640    3.6890 hc        1 0J9      0.051811
     31 H7          3.9660   -1.2740    2.2260 hc        1 0J9      0.051811
     32 H8          3.0290    0.5080    6.0940 hc        1 0J9      0.051811
     33 H9          2.9460   -1.2940    5.8810 hc        1 0J9      0.051811
     34 H10         4.5420   -0.4400    5.7780 hc        1 0J9      0.051811
     35 H11        -2.5970    0.2990    2.0850 hn        1 0J9      0.443300
     36 H12        -2.6630    0.5070    0.3890 hn        1 0J9      0.443300
     37 H13        -3.6210    4.0640    7.1600 ha        1 0J9      0.134000
     38 H14        -1.3530    4.2280    6.1590 ha        1 0J9      0.135000
     39 H15        -2.0080   -2.0750    3.7090 ha        1 0J9      0.145000
     40 H16        -4.9700    1.9790    6.8780 ha        1 0J9      0.133000
     41 H17        -5.2070   -0.2850    5.9950 ha        1 0J9      0.135000
     42 H18        -0.4010    2.3220    4.8710 ha        1 0J9      0.146000
     43 H19        -4.2750   -2.2140    4.7050 ha        1 0J9      0.137000
@<TRIPOS>BOND
     1    1    2 ar  
     2    1    6 ar  
     3    2    3 ar  
     4    2   25 1   
     5    3    4 ar  
     6    4    5 ar  
     7    4   22 1   
     8    5    6 ar  
     9    5   19 1   
    10    6   10 1   
    11    7   23 1   
    12    7   26 1   
    13    7   27 1   
    14    7   28 1   
    15    8   23 1   
    16    8   29 1   
    17    8   30 1   
    18    8   31 1   
    19    9   23 1   
    20    9   32 1   
    21    9   33 1   
    22    9   34 1   
    23   10   35 1   
    24   10   36 1   
    25   11   12 ar  
    26   11   14 ar  
    27   11   37 1   
    28   12   16 ar  
    29   12   38 1   
    30   13   18 ar  
    31   13   24 ar  
    32   13   39 1   
    33   14   20 ar  
    34   14   40 1   
    35   15   20 ar  
    36   15   24 ar  
    37   15   41 1   
    38   16   21 ar  
    39   16   42 1   
    40   17   19 2   
    41   17   22 1   
    42   18   19 1   
    43   18   21 ar  
    44   20   21 ar  
    45   22   23 1   
    46   24   43 1   
@<TRIPOS>SUBSTRUCTURE
     1 0J9         1 TEMP              0 ****  ****    0 ROOT
