@<TRIPOS>MOLECULE
0JA
   59    64     1     0     0
SMALL
bcc


@<TRIPOS>ATOM
      1 F1         -0.7040   -1.1790   -1.6340 f         1 0JA     -0.109900
      2 C2          0.5840   -1.2250   -1.2300 ca        1 0JA      0.166900
      3 C3          0.9020   -1.6960    0.0570 ca        1 0JA     -0.123000
      4 C4          2.2250   -1.7450    0.4780 ca        1 0JA     -0.055000
      5 C5          3.2390   -1.3380   -0.3990 ca        1 0JA      0.105100
      6 O6          4.5710   -1.2200    0.0010 os        1 0JA     -0.341400
      7 C7          5.2240   -2.3150    0.5400 ca        1 0JA      0.672600
      8 C8          6.5500   -1.9950    1.0040 ca        1 0JA     -0.225300
      9 C9          7.3210   -2.9960    1.5430 ca        1 0JA      0.015000
     10 C10         6.7690   -4.3070    1.6180 ca        1 0JA     -0.054900
     11 N11         7.3840   -5.4350    2.1210 nc        1 0JA     -0.447100
     12 C12         6.5350   -6.4750    2.0130 cd        1 0JA      0.282100
     13 N13         6.9050   -7.8080    2.4620 n4        1 0JA     -0.598800
     14 C14         6.7690   -7.9480    3.9950 c         1 0JA      0.608100
     15 O15         5.7130   -8.4460    4.3430 o         1 0JA     -0.410100
     16 C16         7.9270   -7.4970    4.7720 cx        1 0JA     -0.283700
     17 C17         7.7110   -7.2150    6.2520 cx        1 0JA     -0.062400
     18 C18         8.4660   -8.4320    5.8470 cx        1 0JA     -0.062400
     19 S19         4.9900   -6.1360    1.3140 ss        1 0JA      0.116500
     20 C20         5.4230   -4.5160    1.1210 ca        1 0JA      0.421600
     21 N21         4.6550   -3.5340    0.5880 nb        1 0JA     -0.697000
     22 C22         2.9600   -0.8730   -1.6880 ca        1 0JA     -0.074000
     23 C23         1.6210   -0.8020   -2.1070 ca        1 0JA     -0.068400
     24 N24         1.2950   -0.2940   -3.4340 n4        1 0JA     -0.557200
     25 C25         1.1950    1.2340   -3.5380 c         1 0JA      0.576700
     26 O26         1.3990    1.8760   -2.5250 o         1 0JA     -0.374100
     27 C27         0.8050    1.7050   -4.8730 ca        1 0JA     -0.209600
     28 C28        -0.2580    2.6180   -4.9350 ca        1 0JA     -0.043000
     29 C29        -0.6790    3.1050   -6.1710 ca        1 0JA     -0.112000
     30 C30        -0.0440    2.6940   -7.3400 ca        1 0JA     -0.043000
     31 C31         1.0440    1.8050   -7.2960 ca        1 0JA     -0.013300
     32 C32         1.4690    1.3160   -6.0520 ca        1 0JA      0.048400
     33 CL3         2.8160    0.2730   -5.9640 cl        1 0JA     -0.065400
     34 C34         1.6960    1.3750   -8.5540 cx        1 0JA     -0.066600
     35 C35         1.7900    2.3290   -9.7340 cx        1 0JA     -0.080400
     36 C36         3.0240    1.9930   -8.9680 cx        1 0JA     -0.080400
     37 C37         1.4860   -0.0160   -8.8350 c1        1 0JA      0.228700
     38 N38         1.3180   -1.1450   -9.0560 n1        1 0JA     -0.331800
     39 H1          0.0840   -2.0120    0.7280 ha        1 0JA      0.194000
     40 H2          2.4700   -2.0950    1.4960 ha        1 0JA      0.182000
     41 H3          6.9090   -0.9580    0.9150 ha        1 0JA      0.196000
     42 H4          8.3420   -2.8030    1.9130 ha        1 0JA      0.191000
     43 H5          6.2860   -8.4890    2.0020 hn        1 0JA      0.473300
     44 H6          8.6490   -6.8560    4.2230 hc        1 0JA      0.137700
     45 H7          8.2480   -6.3490    6.6850 hc        1 0JA      0.112450
     46 H8          6.6920   -7.3290    6.6700 hc        1 0JA      0.112450
     47 H9          7.9960   -9.4260    5.9770 hc        1 0JA      0.112450
     48 H10         9.5660   -8.4700    5.9760 hc        1 0JA      0.112450
     49 H11         3.7910   -0.5480   -2.3370 ha        1 0JA      0.178000
     50 H12         2.0170   -0.6030   -4.1150 hn        1 0JA      0.474800
     51 H13        -0.7550    2.9510   -4.0080 ha        1 0JA      0.172000
     52 H14        -1.5210    3.8170   -6.2200 ha        1 0JA      0.181000
     53 H15        -0.3970    3.0680   -8.3180 ha        1 0JA      0.180000
     54 H16         1.6520    1.9150  -10.7520 hc        1 0JA      0.098200
     55 H17         1.3510    3.3390   -9.6360 hc        1 0JA      0.098200
     56 H18         3.4750    2.7540   -8.3040 hc        1 0JA      0.098200
     57 H19         3.7870    1.3360   -9.4270 hc        1 0JA      0.098200
     58 H132        7.8810   -8.0070    2.1980 hn        1 0JA      0.473300
     59 H242        0.3870   -0.6840   -3.7260 hn        1 0JA      0.474800
@<TRIPOS>BOND
     1    1    2 1   
     2    2    3 ar  
     3    2   23 ar  
     4    3    4 ar  
     5    3   39 1   
     6    4    5 ar  
     7    4   40 1   
     8    5    6 1   
     9    5   22 ar  
    10    6    7 1   
    11    7    8 ar  
    12    7   21 ar  
    13    8    9 ar  
    14    8   41 1   
    15    9   10 ar  
    16    9   42 1   
    17   10   11 1   
    18   10   20 ar  
    19   11   12 2   
    20   12   13 1   
    21   12   19 1   
    22   13   14 1   
    23   13   43 1   
    24   13   58 1   
    25   14   15 2   
    26   14   16 1   
    27   16   17 1   
    28   16   18 1   
    29   16   44 1   
    30   17   18 1   
    31   17   45 1   
    32   17   46 1   
    33   18   47 1   
    34   18   48 1   
    35   19   20 1   
    36   20   21 ar  
    37   22   23 ar  
    38   22   49 1   
    39   23   24 1   
    40   24   25 1   
    41   24   50 1   
    42   24   59 1   
    43   25   26 2   
    44   25   27 1   
    45   27   28 ar  
    46   27   32 ar  
    47   28   29 ar  
    48   28   51 1   
    49   29   30 ar  
    50   29   52 1   
    51   30   31 ar  
    52   30   53 1   
    53   31   32 ar  
    54   31   34 1   
    55   32   33 1   
    56   34   35 1   
    57   34   36 1   
    58   34   37 1   
    59   35   36 1   
    60   35   54 1   
    61   35   55 1   
    62   36   56 1   
    63   36   57 1   
    64   37   38 3   
@<TRIPOS>SUBSTRUCTURE
     1 0JA         1 TEMP              0 ****  ****    0 ROOT
