@<TRIPOS>MOLECULE
0JA
   57    62     1     0     0
SMALL
bcc


@<TRIPOS>ATOM
      1 F1          0.8400    0.6100   -1.3180 f         1 0JA     -0.147900
      2 C2          2.1420    0.3060   -1.0720 ca        1 0JA      0.060900
      3 C3          2.5990    0.3090    0.2540 ca        1 0JA     -0.126000
      4 C4          3.9240    0.0070    0.5430 ca        1 0JA     -0.128000
      5 C5          4.7850   -0.3020   -0.5130 ca        1 0JA      0.117100
      6 O6          6.1550   -0.4800   -0.3000 os        1 0JA     -0.365400
      7 C7          6.5620   -1.5630    0.4710 ca        1 0JA      0.624600
      8 C8          7.9840   -1.6260    0.6390 ca        1 0JA     -0.243300
      9 C9          8.5160   -2.6620    1.3750 ca        1 0JA     -0.029000
     10 C10         7.6330   -3.6180    1.9330 ca        1 0JA     -0.031900
     11 N11         7.9860   -4.7230    2.6990 nc        1 0JA     -0.572100
     12 C12         6.8670   -5.3890    3.0420 cd        1 0JA      0.384800
     13 N13         6.8870   -6.5500    3.8150 ns        1 0JA     -0.456400
     14 C14         5.7280   -7.2350    4.1710 c         1 0JA      0.693100
     15 O15         4.6140   -6.8140    3.7970 o         1 0JA     -0.586100
     16 C16         5.8930   -8.4650    5.0000 cx        1 0JA     -0.226700
     17 C17         4.8060   -8.7800    6.0020 cx        1 0JA     -0.096400
     18 C18         4.9260   -9.6020    4.7590 cx        1 0JA     -0.096400
     19 S19         5.3630   -4.7100    2.4570 ss        1 0JA      0.041500
     20 C20         6.2170   -3.4560    1.7000 ca        1 0JA      0.363600
     21 N21         5.6800   -2.4430    0.9790 nb        1 0JA     -0.674000
     22 C22         4.3610   -0.3280   -1.8450 ca        1 0JA     -0.138000
     23 C23         3.0240   -0.0140   -2.1550 ca        1 0JA      0.053600
     24 N24         2.5140   -0.0250   -3.4610 ns        1 0JA     -0.458100
     25 C25         3.2320   -0.1670   -4.6400 c         1 0JA      0.686700
     26 O26         4.4550   -0.3830   -4.6810 o         1 0JA     -0.567100
     27 C27         2.4200   -0.1130   -5.8980 ca        1 0JA     -0.143600
     28 C28         2.4740   -1.2270   -6.7410 ca        1 0JA     -0.068000
     29 C29         1.7600   -1.2320   -7.9380 ca        1 0JA     -0.134000
     30 C30         0.9970   -0.1250   -8.2970 ca        1 0JA     -0.087000
     31 C31         0.9380    1.0040   -7.4700 ca        1 0JA     -0.055300
     32 C32         1.6610    1.0080   -6.2640 ca        1 0JA      0.054400
     33 Cl3         1.6390    2.3790   -5.2610 cl        1 0JA     -0.064400
     34 C34         0.1270    2.1670   -7.8960 cx        1 0JA     -0.029600
     35 C35        -1.2670    1.9300   -8.4540 cx        1 0JA     -0.096400
     36 C36        -1.1130    2.5490   -7.1040 cx        1 0JA     -0.096400
     37 C37         0.9000    3.2260   -8.4770 c1        1 0JA      0.245700
     38 N38         1.5260    4.0830   -8.9520 n1        1 0JA     -0.355800
     39 H1          1.8920    0.5540    1.0610 ha        1 0JA      0.153000
     40 H2          4.2860    0.0010    1.5810 ha        1 0JA      0.157000
     41 H3          8.6100   -0.8520    0.1760 ha        1 0JA      0.165000
     42 H4          9.6020   -2.7540    1.5320 ha        1 0JA      0.158000
     43 H5          7.7730   -6.8920    4.1170 hn        1 0JA      0.341500
     44 H6          6.9380   -8.7160    5.2680 hc        1 0JA      0.095700
     45 H7          5.1030   -9.2100    6.9750 hc        1 0JA      0.087950
     46 H8          3.9570   -8.0760    6.0920 hc        1 0JA      0.087950
     47 H9          4.1640   -9.4820    3.9670 hc        1 0JA      0.087950
     48 H10         5.3130  -10.6350    4.8200 hc        1 0JA      0.087950
     49 H11         5.0890   -0.5800   -2.6350 ha        1 0JA      0.193000
     50 H12         1.5430    0.1940   -3.5410 hn        1 0JA      0.332500
     51 H13         3.0960   -2.0910   -6.4560 ha        1 0JA      0.159000
     52 H14         1.8060   -2.1090   -8.6010 ha        1 0JA      0.147000
     53 H15         0.4360   -0.1260   -9.2450 ha        1 0JA      0.147000
     54 H16        -1.6090    2.5540   -9.3000 hc        1 0JA      0.086950
     55 H17        -1.6240    0.8870   -8.5340 hc        1 0JA      0.086950
     56 H18        -1.3550    1.9550   -6.2040 hc        1 0JA      0.086950
     57 H19        -1.3410    3.6210   -6.9690 hc        1 0JA      0.086950
@<TRIPOS>BOND
     1    1    2 1   
     2    2    3 ar  
     3    2   23 ar  
     4    3    4 ar  
     5    3   39 1   
     6    4    5 ar  
     7    4   40 1   
     8    5    6 1   
     9    5   22 ar  
    10    6    7 1   
    11    7    8 ar  
    12    7   21 ar  
    13    8    9 ar  
    14    8   41 1   
    15    9   10 ar  
    16    9   42 1   
    17   10   11 1   
    18   10   20 ar  
    19   11   12 2   
    20   12   13 1   
    21   12   19 1   
    22   13   14 1   
    23   13   43 1   
    24   14   15 2   
    25   14   16 1   
    26   16   17 1   
    27   16   18 1   
    28   16   44 1   
    29   17   18 1   
    30   17   45 1   
    31   17   46 1   
    32   18   47 1   
    33   18   48 1   
    34   19   20 1   
    35   20   21 ar  
    36   22   23 ar  
    37   22   49 1   
    38   23   24 1   
    39   24   25 1   
    40   24   50 1   
    41   25   26 2   
    42   25   27 1   
    43   27   28 ar  
    44   27   32 ar  
    45   28   29 ar  
    46   28   51 1   
    47   29   30 ar  
    48   29   52 1   
    49   30   31 ar  
    50   30   53 1   
    51   31   32 ar  
    52   31   34 1   
    53   32   33 1   
    54   34   35 1   
    55   34   36 1   
    56   34   37 1   
    57   35   36 1   
    58   35   54 1   
    59   35   55 1   
    60   36   56 1   
    61   36   57 1   
    62   37   38 3   
@<TRIPOS>SUBSTRUCTURE
     1 0JA         1 TEMP              0 ****  ****    0 ROOT
