@<TRIPOS>MOLECULE
0JA
   57    62     1     0     0
SMALL
bcc


@<TRIPOS>ATOM
      1 F1         -1.5500   -3.6180    1.6760 f         1 0JA     -0.122900
      2 C2         -0.9420   -2.4160    1.7920 ca        1 0JA      0.131900
      3 C3          0.2460   -2.3270    2.5430 ca        1 0JA     -0.144000
      4 C4          0.9180   -1.1200    2.6660 ca        1 0JA     -0.109000
      5 C5          0.3920    0.0120    2.0350 ca        1 0JA      0.104100
      6 O6          0.9540    1.2770    2.2300 os        1 0JA     -0.368400
      7 C7          2.2400    1.5010    1.7510 ca        1 0JA      0.620600
      8 C8          2.7360    2.8070    2.0630 ca        1 0JA     -0.245300
      9 C9          3.9960    3.1570    1.6280 ca        1 0JA     -0.028000
     10 C10         4.7430    2.2070    0.8910 ca        1 0JA     -0.030900
     11 N11         6.0220    2.3810    0.3730 nc        1 0JA     -0.573100
     12 C12         6.3900    1.2530   -0.2620 cd        1 0JA      0.384800
     13 N13         7.6260    1.1090   -0.8920 n         1 0JA     -0.457400
     14 C14         8.0020   -0.0620   -1.5460 c         1 0JA      0.693100
     15 O15         7.2200   -1.0340   -1.5820 o         1 0JA     -0.585100
     16 C16         9.3530   -0.0830   -2.1800 cx        1 0JA     -0.227700
     17 C17        10.0940   -1.4010   -2.1990 cx        1 0JA     -0.096400
     18 C18         9.5080   -0.8640   -3.4650 cx        1 0JA     -0.096400
     19 S19         5.2160   -0.0470   -0.2580 ss        1 0JA      0.045500
     20 C20         4.1450    0.9170    0.6340 ca        1 0JA      0.361600
     21 N21         2.9080    0.5620    1.0560 nb        1 0JA     -0.673000
     22 C22        -0.7860   -0.0380    1.2890 ca        1 0JA     -0.140000
     23 C23        -1.4840   -1.2570    1.1640 ca        1 0JA      0.027600
     24 N24        -2.6560   -1.3100    0.3850 n         1 0JA     -0.466100
     25 C25        -3.8530   -1.8650    0.8250 c         1 0JA      0.676700
     26 O26        -3.9600   -2.4570    1.9110 o         1 0JA     -0.553100
     27 C27        -5.0000   -1.7740   -0.1320 ca        1 0JA     -0.135600
     28 C28        -5.5400   -2.9730   -0.6090 ca        1 0JA     -0.068000
     29 C29        -6.6220   -2.9490   -1.4860 ca        1 0JA     -0.133000
     30 C30        -7.1750   -1.7320   -1.8780 ca        1 0JA     -0.090000
     31 C31        -6.6580   -0.5230   -1.3970 ca        1 0JA     -0.054300
     32 C32        -5.5580   -0.5490   -0.5230 ca        1 0JA      0.052400
     33 CL3        -4.9070    0.9030    0.0780 cl        1 0JA     -0.073400
     34 C34        -7.2770    0.7500   -1.8310 cx        1 0JA     -0.032600
     35 C35        -8.7920    0.8640   -1.8620 cx        1 0JA     -0.095400
     36 C36        -8.0220    1.6050   -0.8190 cx        1 0JA     -0.095400
     37 C37        -6.5410    1.4230   -2.8620 c1        1 0JA      0.247700
     38 N38        -5.9440    1.9660   -3.6990 n1        1 0JA     -0.361800
     39 H1          0.6360   -3.2360    3.0260 ha        1 0JA      0.156000
     40 H2          1.8530   -1.0520    3.2400 ha        1 0JA      0.156000
     41 H3          2.1020    3.4950    2.6390 ha        1 0JA      0.163000
     42 H4          4.4210    4.1490    1.8420 ha        1 0JA      0.158000
     43 H5          8.2540    1.8830   -0.8660 hn        1 0JA      0.341500
     44 H6          9.9450    0.8460   -2.0600 hc        1 0JA      0.095700
     45 H7         11.1880   -1.3850   -2.0510 hc        1 0JA      0.088200
     46 H8          9.6150   -2.2770   -1.7210 hc        1 0JA      0.088200
     47 H9          8.6130   -1.3590   -3.8870 hc        1 0JA      0.088200
     48 H10        10.1720   -0.4540   -4.2460 hc        1 0JA      0.088200
     49 H11        -1.1630    0.8810    0.8150 ha        1 0JA      0.154000
     50 H12        -2.6850   -0.6940   -0.3980 hn        1 0JA      0.327500
     51 H13        -5.1060   -3.9300   -0.2780 ha        1 0JA      0.161000
     52 H14        -7.0420   -3.8930   -1.8660 ha        1 0JA      0.147000
     53 H15        -8.0290   -1.7140   -2.5730 ha        1 0JA      0.146000
     54 H16        -9.2610    1.4250   -2.6900 hc        1 0JA      0.087950
     55 H17        -9.3850   -0.0220   -1.5690 hc        1 0JA      0.087950
     56 H18        -8.0520    1.2560    0.2290 hc        1 0JA      0.087950
     57 H19        -7.9310    2.7040   -0.8900 hc        1 0JA      0.087950
@<TRIPOS>BOND
     1    1    2 1   
     2    2    3 ar  
     3    2   23 ar  
     4    3    4 ar  
     5    3   39 1   
     6    4    5 ar  
     7    4   40 1   
     8    5    6 1   
     9    5   22 ar  
    10    6    7 1   
    11    7    8 ar  
    12    7   21 ar  
    13    8    9 ar  
    14    8   41 1   
    15    9   10 ar  
    16    9   42 1   
    17   10   11 1   
    18   10   20 ar  
    19   11   12 2   
    20   12   13 1   
    21   12   19 1   
    22   13   14 1   
    23   13   43 1   
    24   14   15 2   
    25   14   16 1   
    26   16   17 1   
    27   16   18 1   
    28   16   44 1   
    29   17   18 1   
    30   17   45 1   
    31   17   46 1   
    32   18   47 1   
    33   18   48 1   
    34   19   20 1   
    35   20   21 ar  
    36   22   23 ar  
    37   22   49 1   
    38   23   24 1   
    39   24   25 1   
    40   24   50 1   
    41   25   26 2   
    42   25   27 1   
    43   27   28 ar  
    44   27   32 ar  
    45   28   29 ar  
    46   28   51 1   
    47   29   30 ar  
    48   29   52 1   
    49   30   31 ar  
    50   30   53 1   
    51   31   32 ar  
    52   31   34 1   
    53   32   33 1   
    54   34   35 1   
    55   34   36 1   
    56   34   37 1   
    57   35   36 1   
    58   35   54 1   
    59   35   55 1   
    60   36   56 1   
    61   36   57 1   
    62   37   38 3   
@<TRIPOS>SUBSTRUCTURE
     1 0JA         1 TEMP              0 ****  ****    0 ROOT
