@<TRIPOS>MOLECULE
0JB
   34    37     1     0     0
SMALL
bcc


@<TRIPOS>ATOM
      1 O14        -0.1520    0.4200    0.2360 o         1 0JB     -0.609100
      2 C13         1.0640    0.1550    0.1440 c         1 0JB      0.694700
      3 C15         1.9370    0.1190    1.3460 ca        1 0JB     -0.158600
      4 C20         1.3420   -0.0850    2.6030 ca        1 0JB     -0.028200
      5 N21         0.0190   -0.2740    2.9990 na        1 0JB     -0.269300
      6 C22         0.0450   -0.4200    4.4000 cc        1 0JB      0.427700
      7 N23         1.2810   -0.3640    4.9200 nd        1 0JB     -0.563100
      8 C19         2.1390   -0.1470    3.8220 ca        1 0JB      0.054400
      9 C18         3.5250    0.0190    3.7430 ca        1 0JB     -0.035000
     10 C17         4.0900    0.2470    2.4940 ca        1 0JB     -0.169000
     11 C16         3.3200    0.2990    1.3230 ca        1 0JB     -0.079000
     12 N12         1.6580   -0.1470   -1.0770 ns        1 0JB     -0.468100
     13 C8          1.0250   -0.1710   -2.3300 ca        1 0JB      0.070600
     14 C7         -0.1810    0.5180   -2.5860 ca        1 0JB     -0.101000
     15 C9          1.6380   -0.8890   -3.3850 ca        1 0JB     -0.163000
     16 C10         1.0590   -0.9130   -4.6490 ca        1 0JB     -0.105000
     17 C11        -0.1330   -0.2400   -4.9000 ca        1 0JB     -0.141000
     18 C6         -0.7490    0.4720   -3.8640 ca        1 0JB     -0.117500
     19 C2         -1.9920    1.1910   -4.1080 cc        1 0JB      0.450000
     20 N3         -2.9940    0.8050   -5.0250 na        1 0JB     -0.183400
     21 N4         -3.9810    1.7090   -4.9660 nc        1 0JB     -0.194800
     22 N5         -3.6460    2.5930   -4.0970 nd        1 0JB     -0.049000
     23 N1         -2.4640    2.3470   -3.5400 nd        1 0JB     -0.361000
     24 H1         -0.7680   -0.1790    2.4060 hn        1 0JB      0.334700
     25 H2         -0.8760   -0.5760    4.9750 h5        1 0JB      0.074800
     26 H4          4.1450   -0.0240    4.6510 ha        1 0JB      0.155000
     27 H5          5.1780    0.3960    2.4160 ha        1 0JB      0.140000
     28 H6          3.8400    0.5100    0.3760 ha        1 0JB      0.132000
     29 H7          2.5950   -0.4840   -1.0630 hn        1 0JB      0.322500
     30 H8         -0.6830    1.0910   -1.7860 ha        1 0JB      0.193000
     31 H9          2.5800   -1.4340   -3.2170 ha        1 0JB      0.137000
     32 H10         1.5520   -1.4720   -5.4590 ha        1 0JB      0.141000
     33 H11        -0.5690   -0.2600   -5.9090 ha        1 0JB      0.134000
     34 H12        -3.0230    0.0100   -5.6190 hn        1 0JB      0.333700
@<TRIPOS>BOND
     1    1    2 2   
     2    2    3 1   
     3    2   12 1   
     4    3    4 ar  
     5    3   11 ar  
     6    4    5 1   
     7    4    8 ar  
     8    5    6 1   
     9    5   24 1   
    10    6    7 2   
    11    6   25 1   
    12    7    8 1   
    13    8    9 ar  
    14    9   10 ar  
    15    9   26 1   
    16   10   11 ar  
    17   10   27 1   
    18   11   28 1   
    19   12   13 1   
    20   12   29 1   
    21   13   14 ar  
    22   13   15 ar  
    23   14   18 ar  
    24   14   30 1   
    25   15   16 ar  
    26   15   31 1   
    27   16   17 ar  
    28   16   32 1   
    29   17   18 ar  
    30   17   33 1   
    31   18   19 1   
    32   19   20 1   
    33   19   23 2   
    34   20   21 1   
    35   20   34 1   
    36   21   22 2   
    37   22   23 1   
@<TRIPOS>SUBSTRUCTURE
     1 0JB         1 TEMP              0 ****  ****    0 ROOT
