@<TRIPOS>MOLECULE
0JB
   35    38     1     0     0
SMALL
bcc


@<TRIPOS>ATOM
      1 O14         2.0890   -2.5530    0.0500 o         1 0JB     -0.486100
      2 C13         2.0170   -1.3300   -0.0560 c         1 0JB      0.593700
      3 C15         1.7620   -0.3460    0.9680 ca        1 0JB     -0.227600
      4 C20         1.7250   -0.7800    2.3100 ca        1 0JB      0.010800
      5 N21         1.8870   -2.0180    2.9090 na        1 0JB     -0.278300
      6 C22         1.7450   -1.8080    4.3070 cc        1 0JB      0.453700
      7 N23         1.5120   -0.5320    4.6280 nd        1 0JB     -0.521100
      8 C19         1.4870    0.1700    3.4000 ca        1 0JB      0.052400
      9 C18         1.2810    1.5140    3.1150 ca        1 0JB      0.032000
     10 C17         1.3040    1.9190    1.7720 ca        1 0JB     -0.160000
     11 C16         1.5340    1.0260    0.7340 ca        1 0JB     -0.053000
     12 N12         2.2970   -0.8360   -1.4750 n4        1 0JB     -0.544200
     13 C8          1.0670   -0.6600   -2.2520 ca        1 0JB     -0.048400
     14 C7          0.7430    0.6100   -2.7540 ca        1 0JB     -0.075000
     15 C9          0.2350   -1.7680   -2.4970 ca        1 0JB     -0.086000
     16 C10        -0.9260   -1.5880   -3.2440 ca        1 0JB     -0.098000
     17 C11        -1.2690   -0.3300   -3.7390 ca        1 0JB     -0.068000
     18 C6         -0.4370    0.7710   -3.4960 ca        1 0JB     -0.090500
     19 C2         -0.7720    2.1030   -3.9730 cc        1 0JB      0.399000
     20 N3         -1.6800    2.4410   -4.9970 na        1 0JB     -0.156400
     21 N4         -1.6920    3.7740   -5.1110 nc        1 0JB     -0.151800
     22 N5         -0.8720    4.2530   -4.2430 nd        1 0JB     -0.024000
     23 N1         -0.2820    3.3080   -3.5240 nd        1 0JB     -0.359000
     24 H1          2.0390   -2.8790    2.4460 hn        1 0JB      0.332700
     25 H2          1.8290   -2.6430    5.0200 h5        1 0JB      0.099800
     26 H4          1.0990    2.2430    3.9230 ha        1 0JB      0.184000
     27 H5          1.1290    2.9830    1.5360 ha        1 0JB      0.170000
     28 H6          1.5100    1.4190   -0.2950 ha        1 0JB      0.130000
     29 H7          2.8780   -1.5410   -1.9520 hn        1 0JB      0.464800
     30 H8          1.3950    1.4840   -2.5780 ha        1 0JB      0.178000
     31 H9          0.4880   -2.7680   -2.1020 ha        1 0JB      0.174000
     32 H10        -1.5830   -2.4530   -3.4390 ha        1 0JB      0.178000
     33 H11        -2.2040   -0.2140   -4.3120 ha        1 0JB      0.164000
     34 H12        -2.2300    1.8480   -5.5770 hn        1 0JB      0.345700
     35 H122        2.8110    0.0510   -1.4330 hn        1 0JB      0.464800
@<TRIPOS>BOND
     1    1    2 2   
     2    2    3 1   
     3    2   12 1   
     4    3    4 ar  
     5    3   11 ar  
     6    4    5 1   
     7    4    8 ar  
     8    5    6 1   
     9    5   24 1   
    10    6    7 2   
    11    6   25 1   
    12    7    8 1   
    13    8    9 ar  
    14    9   10 ar  
    15    9   26 1   
    16   10   11 ar  
    17   10   27 1   
    18   11   28 1   
    19   12   13 1   
    20   12   29 1   
    21   12   35 1   
    22   13   14 ar  
    23   13   15 ar  
    24   14   18 ar  
    25   14   30 1   
    26   15   16 ar  
    27   15   31 1   
    28   16   17 ar  
    29   16   32 1   
    30   17   18 ar  
    31   17   33 1   
    32   18   19 1   
    33   19   20 1   
    34   19   23 2   
    35   20   21 1   
    36   20   34 1   
    37   21   22 2   
    38   22   23 1   
@<TRIPOS>SUBSTRUCTURE
     1 0JB         1 TEMP              0 ****  ****    0 ROOT
