@<TRIPOS>MOLECULE
0JB
   34    26     1     0     0
SMALL
bcc


@<TRIPOS>ATOM
      1 O14        -1.0720    0.0280    0.9880 o         1 0JB     -0.379000
      2 C13         0.1340    0.1700    0.9660 c1        1 0JB      0.370000
      3 C15         0.9060    0.2750    2.2630 c1        1 0JB     -0.140000
      4 C20         0.6710    1.3300    3.1660 c1        1 0JB      0.017000
      5 N21        -0.0550    2.4700    3.0620 n1        1 0JB     -0.228000
      6 C22         0.0650    3.1530    4.2300 c1        1 0JB     -0.030000
      7 N23         0.8670    2.4330    5.0580 n2        1 0JB     -0.135000
      8 C19         1.2430    1.3070    4.4040 c1        1 0JB     -0.085000
      9 C18         2.0680    0.2290    4.7780 c1        1 0JB     -0.112250
     10 C17         2.2980   -0.8090    3.8900 c1        1 0JB     -0.112250
     11 C16         1.7170   -0.7860    2.6320 c1        1 0JB     -0.078000
     12 N12         0.8090    0.3100   -0.2730 n3        1 0JB     -0.319000
     13 C8          0.0760    0.2850   -1.4870 c2        1 0JB      0.078000
     14 C7         -0.3240   -0.9270   -2.0290 c2        1 0JB     -0.136000
     15 C9         -0.1780    1.4650   -2.1680 c1        1 0JB     -0.131000
     16 C10        -0.8320    1.4340   -3.3890 c1        1 0JB     -0.112250
     17 C11        -1.2320    0.2220   -3.9310 c1        1 0JB     -0.112250
     18 C6         -0.9780   -0.9580   -3.2510 c1        1 0JB     -0.007000
     19 C2         -1.3520   -2.2870   -3.8750 c1        1 0JB     -0.007000
     20 N3         -2.5690   -2.8560   -3.8510 n2        1 0JB     -0.161500
     21 N4         -2.4960   -4.0200   -4.5200 n2        1 0JB     -0.035000
     22 N5         -1.2350   -4.1700   -4.9570 n2        1 0JB     -0.035000
     23 N1         -0.5270   -3.0980   -4.5580 n2        1 0JB     -0.161500
     24 H1         -0.5390    2.7320    2.3350 DU        1 0JB      0.257000
     25 H2         -0.3460    4.0150    4.4360 DU        1 0JB      0.257000
     26 H4          2.4770    0.2120    5.6640 ha        1 0JB      0.142500
     27 H5          2.8690   -1.5560    4.1490 ha        1 0JB      0.142500
     28 H6          1.8790   -1.5170    2.0060 ha        1 0JB      0.134000
     29 H7          1.7160    0.4020   -0.2900 hn        1 0JB      0.240000
     30 H8         -0.1460   -1.7590   -1.5500 ha        1 0JB      0.158000
     31 H9          0.1030    2.3190   -1.7860 ha        1 0JB      0.178000
     32 H10        -1.0110    2.2660   -3.8690 ha        1 0JB      0.142500
     33 H11        -1.6930    0.2010   -4.7910 ha        1 0JB      0.142500
     34 H12        -3.3130   -2.5130   -3.4510 DU        1 0JB      0.257000
@<TRIPOS>BOND
     1    1    2 1   
     2    2   12 1   
     3    3   11 1   
     4    4    8 1   
     5    5    6 1   
     6    6    7 1   
     7    7    8 1   
     8    9   10 1   
     9    9   26 1   
    10   10   27 1   
    11   11   28 1   
    12   12   13 1   
    13   12   29 1   
    14   13   14 1   
    15   13   15 1   
    16   14   18 1   
    17   14   30 1   
    18   15   31 1   
    19   16   17 1   
    20   16   32 1   
    21   17   33 1   
    22   19   20 1   
    23   19   23 1   
    24   20   21 1   
    25   21   22 1   
    26   22   23 1   
@<TRIPOS>SUBSTRUCTURE
     1 0JB         1 TEMP              0 ****  ****    0 ROOT
