@<TRIPOS>MOLECULE
0JB
   34    37     1     0     0
SMALL
bcc


@<TRIPOS>ATOM
      1 O14         0.6160   -0.8530   -0.0430 o         1 0JB     -0.609100
      2 C13         1.1420    0.2730    0.0820 c         1 0JB      0.694700
      3 C15         2.6100    0.4200    0.2610 ca        1 0JB     -0.158600
      4 C20         3.4470   -0.6220   -0.1730 ca        1 0JB     -0.028200
      5 N21         3.1870   -1.8500   -0.7780 na        1 0JB     -0.269300
      6 C22         4.4390   -2.4660   -0.9730 cc        1 0JB      0.426700
      7 N23         5.4730   -1.7150   -0.5640 nd        1 0JB     -0.563100
      8 C19         4.8970   -0.5370   -0.0430 ca        1 0JB      0.054400
      9 C18         5.4670    0.5960    0.5440 ca        1 0JB     -0.035000
     10 C17         4.6190    1.6020    0.9920 ca        1 0JB     -0.169000
     11 C16         3.2250    1.5190    0.8580 ca        1 0JB     -0.079000
     12 N12         0.3900    1.4420    0.0340 n         1 0JB     -0.468100
     13 C8         -1.0010    1.5340   -0.1260 ca        1 0JB      0.070600
     14 C7         -1.8740    0.4640    0.1710 ca        1 0JB     -0.101000
     15 C9         -1.5520    2.7600   -0.5730 ca        1 0JB     -0.163000
     16 C10        -2.9270    2.9020   -0.7150 ca        1 0JB     -0.105000
     17 C11        -3.7870    1.8450   -0.4300 ca        1 0JB     -0.141000
     18 C6         -3.2530    0.6280    0.0110 ca        1 0JB     -0.117500
     19 C2         -4.1360   -0.4870    0.3240 cc        1 0JB      0.450000
     20 N3         -5.3690   -0.7580   -0.3080 na        1 0JB     -0.183400
     21 N4         -5.8870   -1.8620    0.2460 nc        1 0JB     -0.194800
     22 N5         -5.0670   -2.2630    1.1500 nd        1 0JB     -0.049000
     23 N1         -3.9920   -1.4870    1.2530 nd        1 0JB     -0.361000
     24 H1          2.2850   -2.2390   -0.9030 hn        1 0JB      0.334700
     25 H2          4.5220   -3.4600   -1.4310 h5        1 0JB      0.074800
     26 H4          6.5590    0.6790    0.6520 ha        1 0JB      0.155000
     27 H5          5.0510    2.4940    1.4710 ha        1 0JB      0.140000
     28 H6          2.6210    2.3470    1.2620 ha        1 0JB      0.132000
     29 H7          0.8850    2.3050    0.0010 hn        1 0JB      0.322500
     30 H8         -1.4760   -0.5040    0.5250 ha        1 0JB      0.193000
     31 H9         -0.8980    3.6140   -0.8090 ha        1 0JB      0.137000
     32 H10        -3.3390    3.8630   -1.0590 ha        1 0JB      0.141000
     33 H11        -4.8720    1.9810   -0.5360 ha        1 0JB      0.134000
     34 H12        -5.8130   -0.2640   -1.0460 hn        1 0JB      0.333700
@<TRIPOS>BOND
     1    1    2 2   
     2    2    3 1   
     3    2   12 1   
     4    3    4 ar  
     5    3   11 ar  
     6    4    5 1   
     7    4    8 ar  
     8    5    6 1   
     9    5   24 1   
    10    6    7 2   
    11    6   25 1   
    12    7    8 1   
    13    8    9 ar  
    14    9   10 ar  
    15    9   26 1   
    16   10   11 ar  
    17   10   27 1   
    18   11   28 1   
    19   12   13 1   
    20   12   29 1   
    21   13   14 ar  
    22   13   15 ar  
    23   14   18 ar  
    24   14   30 1   
    25   15   16 ar  
    26   15   31 1   
    27   16   17 ar  
    28   16   32 1   
    29   17   18 ar  
    30   17   33 1   
    31   18   19 1   
    32   19   20 1   
    33   19   23 2   
    34   20   21 1   
    35   20   34 1   
    36   21   22 2   
    37   22   23 1   
@<TRIPOS>SUBSTRUCTURE
     1 0JB         1 TEMP              0 ****  ****    0 ROOT
