@<TRIPOS>MOLECULE
0JD
   20    21     1     0     0
SMALL
bcc


@<TRIPOS>ATOM
      1 OAA         1.2590    1.1970   -0.6340 o         1 0JD     -0.812300
      2 CAJ         1.3680    0.0590   -0.1110 c         1 0JD      0.934600
      3 OAB         0.8810   -1.0140   -0.5480 o         1 0JD     -0.812300
      4 CAM         2.1240   -0.0360    1.2600 c3        1 0JD     -0.032900
      5 OAI         3.5340   -0.0660    0.9670 os        1 0JD     -0.284900
      6 CAL         4.3300    0.2030    2.0550 ca        1 0JD      0.086100
      7 CAF         5.6910   -0.1220    1.9610 ca        1 0JD     -0.146000
      8 CAD         6.5360    0.1520    3.0350 ca        1 0JD     -0.146000
      9 CAC         6.0420    0.7390    4.1980 ca        1 0JD     -0.162000
     10 CAE         4.6940    1.0780    4.3030 ca        1 0JD     -0.140000
     11 CAK         3.8370    0.8160    3.2280 ca        1 0JD      0.061100
     12 OAH         2.5070    1.1570    3.3730 os        1 0JD     -0.346900
     13 CAG         1.7770    1.1560    2.1320 c3        1 0JD      0.103400
     14 H2          1.8680   -0.9990    1.7760 h1        1 0JD      0.049700
     15 H3          6.0670   -0.5870    1.0400 ha        1 0JD      0.142000
     16 H4          7.6020   -0.1030    2.9600 ha        1 0JD      0.114000
     17 H5          6.7170    0.9430    5.0400 ha        1 0JD      0.113000
     18 H6          4.2930    1.5470    5.2110 ha        1 0JD      0.131000
     19 H7          1.9930    2.1100    1.5840 h1        1 0JD      0.073700
     20 H8          0.7050    1.1200    2.4530 h1        1 0JD      0.073700
@<TRIPOS>BOND
     1    1    2 1   
     2    2    3 1   
     3    2    4 1   
     4    4    5 1   
     5    4   13 1   
     6    4   14 1   
     7    5    6 1   
     8    6    7 ar  
     9    6   11 ar  
    10    7    8 ar  
    11    7   15 1   
    12    8    9 ar  
    13    8   16 1   
    14    9   10 ar  
    15    9   17 1   
    16   10   11 ar  
    17   10   18 1   
    18   11   12 1   
    19   12   13 1   
    20   13   19 1   
    21   13   20 1   
@<TRIPOS>SUBSTRUCTURE
     1 0JD         1 TEMP              0 ****  ****    0 ROOT
