@<TRIPOS>MOLECULE
0JD
   20    21     1     0     0
SMALL
bcc


@<TRIPOS>ATOM
      1 OAA        -3.0910    0.1410    1.2350 o         1 0JD     -0.812300
      2 CAJ        -2.7640    0.3760    0.0430 c         1 0JD      0.934600
      3 OAB        -3.4920    0.8850   -0.8450 o         1 0JD     -0.812300
      4 CAM        -1.3310   -0.0700   -0.4120 c3        1 0JD     -0.032900
      5 OAI        -0.4110    0.9530    0.0130 os        1 0JD     -0.284900
      6 CAL         0.9040    0.5540    0.0020 ca        1 0JD      0.086100
      7 CAF         1.8870    1.5510    0.0750 ca        1 0JD     -0.146000
      8 CAD         3.2320    1.1870    0.0850 ca        1 0JD     -0.146000
      9 CAC         3.6080   -0.1530    0.0190 ca        1 0JD     -0.162000
     10 CAE         2.6420   -1.1570   -0.0430 ca        1 0JD     -0.140000
     11 CAK         1.2880   -0.8050   -0.0450 ca        1 0JD      0.061100
     12 OAH         0.3620   -1.8260   -0.1170 os        1 0JD     -0.346900
     13 CAG        -0.9770   -1.4090    0.2080 c3        1 0JD      0.103400
     14 H2         -1.2810   -0.1210   -1.5330 h1        1 0JD      0.049700
     15 H3          1.5790    2.6040    0.1240 ha        1 0JD      0.142000
     16 H4          4.0030    1.9690    0.1420 ha        1 0JD      0.114000
     17 H5          4.6720   -0.4270    0.0200 ha        1 0JD      0.113000
     18 H6          2.9250   -2.2170   -0.0880 ha        1 0JD      0.131000
     19 H7         -1.0780   -1.3550    1.3240 h1        1 0JD      0.073700
     20 H8         -1.6200   -2.2260   -0.2070 h1        1 0JD      0.073700
@<TRIPOS>BOND
     1    1    2 1   
     2    2    3 1   
     3    2    4 1   
     4    4    5 1   
     5    4   13 1   
     6    4   14 1   
     7    5    6 1   
     8    6    7 ar  
     9    6   11 ar  
    10    7    8 ar  
    11    7   15 1   
    12    8    9 ar  
    13    8   16 1   
    14    9   10 ar  
    15    9   17 1   
    16   10   11 ar  
    17   10   18 1   
    18   11   12 1   
    19   12   13 1   
    20   13   19 1   
    21   13   20 1   
@<TRIPOS>SUBSTRUCTURE
     1 0JD         1 TEMP              0 ****  ****    0 ROOT
