@<TRIPOS>MOLECULE
0JD
   20    18     1     0     0
SMALL
bcc


@<TRIPOS>ATOM
      1 OAA        -3.6700   -0.6130   -2.3720 o         1 0JD     -0.547000
      2 CAJ        -2.4440   -0.3260   -2.3490 c2        1 0JD      0.354000
      3 OAB        -1.8430   -0.0460   -3.4200 o         1 0JD     -0.547000
      4 CAM        -1.6450   -0.3390   -0.9630 c3        1 0JD     -0.094000
      5 OAI        -0.3550   -0.7840   -1.1530 os        1 0JD     -0.168000
      6 CAL         0.6520   -0.4400   -0.1220 c2        1 0JD      0.041000
      7 CAF         1.9010   -1.0380   -0.0880 c2        1 0JD     -0.146000
      8 CAD         2.7890   -0.7550    0.9680 c1        1 0JD     -0.146000
      9 CAC         2.4040    0.1510    2.0050 c1        1 0JD     -0.151000
     10 CAE         1.1360    0.7610    1.9740 c1        1 0JD     -0.151000
     11 CAK         0.2590    0.4850    0.9370 c1        1 0JD      0.016000
     12 OAH        -1.0380    1.1600    0.8150 o         1 0JD     -0.230000
     13 CAG        -1.7030    1.0070   -0.3100 c3        1 0JD     -0.047000
     14 H2         -2.1640   -0.9930   -0.4540 h1        1 0JD      0.089000
     15 H3          2.1650   -1.6570   -0.7950 ha        1 0JD      0.142000
     16 H4          3.6680   -1.1770    0.9910 ha        1 0JD      0.114000
     17 H5          3.0210    0.3440    2.7370 ha        1 0JD      0.122000
     18 H6          0.8750    1.3790    2.6830 ha        1 0JD      0.122000
     19 H7         -1.3630    1.6660   -0.9510 h1        1 0JD      0.113000
     20 H8         -2.6440    1.2140   -0.1320 h1        1 0JD      0.113000
@<TRIPOS>BOND
     1    1    2 1   
     2    2    3 1   
     3    2    4 1   
     4    4    5 1   
     5    4   13 1   
     6    4   14 1   
     7    5    6 1   
     8    6    7 1   
     9    6   11 1   
    10    7    8 1   
    11    7   15 1   
    12    8   16 1   
    13    9   10 1   
    14    9   17 1   
    15   10   18 1   
    16   12   13 1   
    17   13   19 1   
    18   13   20 1   
@<TRIPOS>SUBSTRUCTURE
     1 0JD         1 TEMP              0 ****  ****    0 ROOT
