@<TRIPOS>MOLECULE
0JD
   20    21     1     0     0
SMALL
bcc


@<TRIPOS>ATOM
      1 OAA         1.1730    1.2270   -0.5410 o         1 0JD     -0.812300
      2 CAJ         1.4200    0.0580   -0.1480 c         1 0JD      0.934600
      3 OAB         1.0610   -1.0090   -0.7060 o         1 0JD     -0.812300
      4 CAM         2.1920   -0.0990    1.2080 c3        1 0JD     -0.032900
      5 OAI         3.5930    0.0680    0.9220 os        1 0JD     -0.284900
      6 CAL         4.3610    0.3060    2.0370 ca        1 0JD      0.086100
      7 CAF         5.7490    0.1540    1.9160 ca        1 0JD     -0.146000
      8 CAD         6.5640    0.4040    3.0180 ca        1 0JD     -0.146000
      9 CAC         6.0140    0.7970    4.2370 ca        1 0JD     -0.162000
     10 CAE         4.6360    0.9620    4.3700 ca        1 0JD     -0.140000
     11 CAK         3.8080    0.7230    3.2690 ca        1 0JD      0.061100
     12 OAH         2.4480    0.8880    3.4430 os        1 0JD     -0.346900
     13 CAG         1.7140    0.9400    2.2050 c3        1 0JD      0.103400
     14 H2          2.0530   -1.1370    1.6120 h1        1 0JD      0.049700
     15 H3          6.1710   -0.1590    0.9510 ha        1 0JD      0.142000
     16 H4          7.6530    0.2840    2.9220 ha        1 0JD      0.114000
     17 H5          6.6670    0.9830    5.1000 ha        1 0JD      0.113000
     18 H6          4.1900    1.2780    5.3230 ha        1 0JD      0.131000
     19 H7          0.6560    0.7440    2.5140 h1        1 0JD      0.073700
     20 H8          1.8140    1.9680    1.7680 h1        1 0JD      0.073700
@<TRIPOS>BOND
     1    1    2 1   
     2    2    3 1   
     3    2    4 1   
     4    4    5 1   
     5    4   13 1   
     6    4   14 1   
     7    5    6 1   
     8    6    7 ar  
     9    6   11 ar  
    10    7    8 ar  
    11    7   15 1   
    12    8    9 ar  
    13    8   16 1   
    14    9   10 ar  
    15    9   17 1   
    16   10   11 ar  
    17   10   18 1   
    18   11   12 1   
    19   12   13 1   
    20   13   19 1   
    21   13   20 1   
@<TRIPOS>SUBSTRUCTURE
     1 0JD         1 TEMP              0 ****  ****    0 ROOT
