@<TRIPOS>MOLECULE
0JD
   20    21     1     0     0
SMALL
bcc


@<TRIPOS>ATOM
      1 OAA         1.1660    1.2080   -0.5400 o         1 0JD     -0.812300
      2 CAJ         1.4350    0.0400   -0.1590 c         1 0JD      0.934600
      3 OAB         1.0970   -1.0280   -0.7300 o         1 0JD     -0.812300
      4 CAM         2.2070   -0.1180    1.1970 c3        1 0JD     -0.032900
      5 OAI         3.6050    0.0820    0.9170 os        1 0JD     -0.284900
      6 CAL         4.3650    0.3230    2.0370 ca        1 0JD      0.086100
      7 CAF         5.7560    0.2020    1.9180 ca        1 0JD     -0.146000
      8 CAD         6.5630    0.4550    3.0250 ca        1 0JD     -0.146000
      9 CAC         6.0010    0.8210    4.2470 ca        1 0JD     -0.162000
     10 CAE         4.6200    0.9570    4.3790 ca        1 0JD     -0.140000
     11 CAK         3.8000    0.7130    3.2720 ca        1 0JD      0.061100
     12 OAH         2.4370    0.8480    3.4440 os        1 0JD     -0.346900
     13 CAG         1.7050    0.8990    2.2050 c3        1 0JD      0.103400
     14 H2          2.0890   -1.1630    1.5890 h1        1 0JD      0.049700
     15 H3          6.1870   -0.0910    0.9510 ha        1 0JD      0.142000
     16 H4          7.6540    0.3590    2.9310 ha        1 0JD      0.114000
     17 H5          6.6480    1.0110    5.1140 ha        1 0JD      0.113000
     18 H6          4.1660    1.2510    5.3330 ha        1 0JD      0.131000
     19 H7          1.7840    1.9350    1.7800 h1        1 0JD      0.073700
     20 H8          0.6500    0.6780    2.5090 h1        1 0JD      0.073700
@<TRIPOS>BOND
     1    1    2 1   
     2    2    3 1   
     3    2    4 1   
     4    4    5 1   
     5    4   13 1   
     6    4   14 1   
     7    5    6 1   
     8    6    7 ar  
     9    6   11 ar  
    10    7    8 ar  
    11    7   15 1   
    12    8    9 ar  
    13    8   16 1   
    14    9   10 ar  
    15    9   17 1   
    16   10   11 ar  
    17   10   18 1   
    18   11   12 1   
    19   12   13 1   
    20   13   19 1   
    21   13   20 1   
@<TRIPOS>SUBSTRUCTURE
     1 0JD         1 TEMP              0 ****  ****    0 ROOT
