@<TRIPOS>MOLECULE
0JE
   49    51     1     0     0
SMALL
bcc


@<TRIPOS>ATOM
      1 CAZ         0.1060   -0.5800    0.1740 c3        1 0JE     -0.108100
      2 CAY         1.5750   -0.5180   -0.1680 c3        1 0JE      0.130400
      3 OAX         2.1950    0.1730    0.9370 os        1 0JE     -0.290900
      4 CAB         3.5500    0.3150    0.9000 ca        1 0JE      0.148100
      5 CAC         4.3710   -0.0680   -0.1430 ca        1 0JE     -0.193000
      6 CAA         4.0800    0.9420    2.1050 ca        1 0JE      0.204900
      7 FAW         3.2190    1.2950    3.0720 f         1 0JE     -0.069900
      8 CAD         5.4410    1.1670    2.2570 ca        1 0JE     -0.166000
      9 CAH         6.2830    0.7700    1.2020 ca        1 0JE     -0.036200
     10 NAG         7.6610    0.8510    1.0450 na        1 0JE     -0.188300
     11 CAI         5.7620    0.1540   -0.0140 ca        1 0JE      0.105400
     12 NAE         6.8140   -0.1290   -0.8700 nc        1 0JE     -0.655100
     13 CAF         7.9490    0.2830   -0.2070 cd        1 0JE      0.334400
     14 CAJ         9.2550    0.0990   -0.7770 cd        1 0JE      0.007800
     15 NAK        10.4560    0.6870   -0.4320 na        1 0JE      0.034400
     16 NAL        11.4710    0.2810   -1.2100 nd        1 0JE     -0.404800
     17 CAM        10.9850   -0.5920   -2.1180 cc        1 0JE      0.361200
     18 CAN         9.5510   -0.7460   -1.9020 cc        1 0JE     -0.367700
     19 NAO         8.6700   -1.6830   -2.5080 n4        1 0JE     -0.429200
     20 CAP         7.5850   -1.1000   -3.3880 c         1 0JE      0.518100
     21 OAR         6.6190   -1.8010   -3.6430 o         1 0JE     -0.328100
     22 NAQ         7.7520    0.2860   -3.9050 n4        1 0JE     -0.552200
     23 CAU         8.9180    0.3660   -4.8650 c3        1 0JE      0.117800
     24 CAV         8.8260   -0.5860   -6.0340 c3        1 0JE     -0.143100
     25 CAS         6.4760    0.7750   -4.5720 c3        1 0JE      0.117800
     26 CAT         5.3880    1.1450   -3.5950 c3        1 0JE     -0.143100
     27 H1         -0.0520   -1.1380    1.1290 hc        1 0JE      0.070033
     28 H2         -0.3140    0.4480    0.2950 hc        1 0JE      0.070033
     29 H3         -0.4350   -1.1040   -0.6510 hc        1 0JE      0.070033
     30 H4          1.7580    0.0670   -1.1070 h1        1 0JE      0.042200
     31 H5          2.0250   -1.5420   -0.2570 h1        1 0JE      0.042200
     32 H6          3.9690   -0.5480   -1.0460 ha        1 0JE      0.163000
     33 H7          5.8350    1.6350    3.1730 ha        1 0JE      0.191000
     34 H8          8.3110    1.1540    1.7270 hn        1 0JE      0.336700
     35 H10        10.6330    1.3280    0.3210 hn        1 0JE      0.377700
     36 H11        11.6280   -1.0860   -2.8560 h4        1 0JE      0.090100
     37 H12         8.1710   -2.2190   -1.7620 hn        1 0JE      0.506800
     38 H13         9.8590    0.1760   -4.2680 hx        1 0JE      0.121950
     39 H14         8.9520    1.4340   -5.2390 hx        1 0JE      0.121950
     40 H15         8.7670   -1.6520   -5.7050 hc        1 0JE      0.091867
     41 H16         7.9490   -0.3610   -6.6910 hc        1 0JE      0.091867
     42 H17         9.7540   -0.4610   -6.6550 hc        1 0JE      0.091867
     43 H18         6.1230   -0.0360   -5.2740 hx        1 0JE      0.121950
     44 H19         6.7750    1.6820   -5.1780 hx        1 0JE      0.121950
     45 H20         4.5220    1.5430   -4.1910 hc        1 0JE      0.091867
     46 H21         5.0300    0.2590   -3.0130 hc        1 0JE      0.091867
     47 H22         5.7120    1.9440   -2.8830 hc        1 0JE      0.091867
     48 HAO2        9.2210   -2.3470   -3.0800 hn        1 0JE      0.506800
     49 HAQ1        7.9450    0.9030   -3.0940 hn        1 0JE      0.490800
@<TRIPOS>BOND
     1    1    2 1   
     2    1   27 1   
     3    1   28 1   
     4    1   29 1   
     5    2    3 1   
     6    2   30 1   
     7    2   31 1   
     8    3    4 1   
     9    4    5 ar  
    10    4    6 ar  
    11    5   11 ar  
    12    5   32 1   
    13    6    7 1   
    14    6    8 ar  
    15    8    9 ar  
    16    8   33 1   
    17    9   10 1   
    18    9   11 ar  
    19   10   13 1   
    20   10   34 1   
    21   11   12 1   
    22   12   13 2   
    23   13   14 1   
    24   14   15 1   
    25   14   18 2   
    26   15   16 1   
    27   15   35 1   
    28   16   17 2   
    29   17   18 1   
    30   17   36 1   
    31   18   19 1   
    32   19   20 1   
    33   19   37 1   
    34   19   48 1   
    35   20   21 2   
    36   20   22 1   
    37   22   23 1   
    38   22   25 1   
    39   22   49 1   
    40   23   24 1   
    41   23   38 1   
    42   23   39 1   
    43   24   40 1   
    44   24   41 1   
    45   24   42 1   
    46   25   26 1   
    47   25   43 1   
    48   25   44 1   
    49   26   45 1   
    50   26   46 1   
    51   26   47 1   
@<TRIPOS>SUBSTRUCTURE
     1 0JE         1 TEMP              0 ****  ****    0 ROOT
