@<TRIPOS>MOLECULE
0JE
   47    49     1     0     0
SMALL
bcc


@<TRIPOS>ATOM
      1 CAZ         5.9690    3.6100   -0.1790 c3        1 0JE     -0.100100
      2 CAY         4.7100    2.7750   -0.2260 c3        1 0JE      0.127400
      3 OAX         5.1060    1.4500    0.1590 os        1 0JE     -0.317900
      4 CAB         4.1070    0.4990    0.1590 ca        1 0JE      0.088100
      5 CAC         2.7740    0.7530   -0.1380 ca        1 0JE     -0.143000
      6 CAA         4.5670   -0.8140    0.5050 ca        1 0JE      0.121900
      7 FAW         5.8770   -1.0020    0.7880 f         1 0JE     -0.123900
      8 CAD         3.6860   -1.8970    0.5550 ca        1 0JE     -0.144000
      9 CAH         2.3450   -1.6460    0.2580 ca        1 0JE     -0.086200
     10 NAG         1.2300   -2.4900    0.1780 na        1 0JE     -0.275300
     11 CAI         1.8720   -0.3190   -0.0890 ca        1 0JE      0.099400
     12 NAE         0.4880   -0.3620   -0.3360 nc        1 0JE     -0.597100
     13 CAF         0.1280   -1.6570   -0.1480 cd        1 0JE      0.521400
     14 CAJ        -1.2100   -2.1780   -0.2870 cd        1 0JE     -0.250200
     15 NAK        -1.5250   -3.5630   -0.3480 na        1 0JE     -0.014600
     16 NAL        -2.8360   -3.7530   -0.5020 nd        1 0JE     -0.480800
     17 CAM        -3.4510   -2.5570   -0.4280 cc        1 0JE      0.303200
     18 CAN        -2.4500   -1.4880   -0.3030 cc        1 0JE     -0.000700
     19 NAO        -2.6430   -0.1310   -0.2160 n         1 0JE     -0.442100
     20 CAP        -3.9190    0.4540   -0.0640 c         1 0JE      0.783100
     21 OAR        -4.9550   -0.2520   -0.1350 o         1 0JE     -0.634100
     22 NAQ        -4.0190    1.8320    0.1860 n         1 0JE     -0.473800
     23 CAU        -5.3280    2.4500    0.0890 c3        1 0JE      0.093000
     24 CAV        -5.8770    2.9490    1.4170 c3        1 0JE     -0.119100
     25 CAS        -2.8780    2.7120    0.2270 c3        1 0JE      0.093000
     26 CAT        -2.2700    3.0800   -1.1190 c3        1 0JE     -0.119100
     27 H1          6.4040    3.6040    0.8490 hc        1 0JE      0.051033
     28 H2          6.7320    3.2050   -0.8850 hc        1 0JE      0.051033
     29 H3          5.7200    4.6590   -0.4680 hc        1 0JE      0.051033
     30 H4          3.9410    3.1560    0.4970 h1        1 0JE      0.039200
     31 H5          4.2760    2.7490   -1.2600 h1        1 0JE      0.039200
     32 H6          2.4190    1.7560   -0.4090 ha        1 0JE      0.157000
     33 H7          4.0500   -2.8990    0.8170 ha        1 0JE      0.156000
     34 H8          1.1710   -3.3940    0.5670 hn        1 0JE      0.307700
     35 H10        -0.9030   -4.2330   -0.7470 hn        1 0JE      0.308700
     36 H11        -4.5380   -2.4250   -0.4500 h4        1 0JE      0.086100
     37 H12        -1.8270    0.4420   -0.1790 hn        1 0JE      0.350500
     38 H13        -5.2530    3.3200   -0.6270 h1        1 0JE      0.056450
     39 H14        -6.0580    1.7060   -0.3440 h1        1 0JE      0.056450
     40 H15        -5.9980    2.1080    2.1410 hc        1 0JE      0.044533
     41 H16        -5.2070    3.7160    1.8750 hc        1 0JE      0.044533
     42 H17        -6.8770    3.4110    1.2350 hc        1 0JE      0.044533
     43 H18        -3.2130    3.6640    0.7360 h1        1 0JE      0.056450
     44 H19        -2.0800    2.2610    0.8850 h1        1 0JE      0.056450
     45 H20        -3.0240    3.5780   -1.7760 hc        1 0JE      0.044533
     46 H21        -1.4240    3.7880   -0.9480 hc        1 0JE      0.044533
     47 H22        -1.8760    2.1830   -1.6550 hc        1 0JE      0.044533
@<TRIPOS>BOND
     1    1    2 1   
     2    1   27 1   
     3    1   28 1   
     4    1   29 1   
     5    2    3 1   
     6    2   30 1   
     7    2   31 1   
     8    3    4 1   
     9    4    5 ar  
    10    4    6 ar  
    11    5   11 ar  
    12    5   32 1   
    13    6    7 1   
    14    6    8 ar  
    15    8    9 ar  
    16    8   33 1   
    17    9   10 1   
    18    9   11 ar  
    19   10   13 1   
    20   10   34 1   
    21   11   12 1   
    22   12   13 2   
    23   13   14 1   
    24   14   15 1   
    25   14   18 2   
    26   15   16 1   
    27   15   35 1   
    28   16   17 2   
    29   17   18 1   
    30   17   36 1   
    31   18   19 1   
    32   19   20 1   
    33   19   37 1   
    34   20   21 2   
    35   20   22 1   
    36   22   23 1   
    37   22   25 1   
    38   23   24 1   
    39   23   38 1   
    40   23   39 1   
    41   24   40 1   
    42   24   41 1   
    43   24   42 1   
    44   25   26 1   
    45   25   43 1   
    46   25   44 1   
    47   26   45 1   
    48   26   46 1   
    49   26   47 1   
@<TRIPOS>SUBSTRUCTURE
     1 0JE         1 TEMP              0 ****  ****    0 ROOT
