@<TRIPOS>MOLECULE
0JE
   48    50     1     0     0
SMALL
bcc


@<TRIPOS>ATOM
      1 CAZ         0.0200   -1.0210   -0.0810 c3        1 0JE     -0.103100
      2 CAY         1.5040   -0.8160   -0.2800 c3        1 0JE      0.129400
      3 OAX         2.0890   -0.9320    1.0280 os        1 0JE     -0.306900
      4 CAB         3.4520   -0.7720    1.1020 ca        1 0JE      0.107100
      5 CAC         4.2850   -0.5230    0.0220 ca        1 0JE     -0.154000
      6 CAA         3.9640   -0.8910    2.4450 ca        1 0JE      0.152900
      7 FAW         3.1000   -1.1340    3.4520 f         1 0JE     -0.103900
      8 CAD         5.3250   -0.7580    2.7110 ca        1 0JE     -0.146000
      9 CAH         6.1680   -0.5050    1.6210 ca        1 0JE     -0.069200
     10 NAG         7.5520   -0.3260    1.5380 na        1 0JE     -0.251300
     11 CAI         5.6630   -0.3860    0.2680 ca        1 0JE      0.092400
     12 NAE         6.7290   -0.1360   -0.6070 nc        1 0JE     -0.615100
     13 CAF         7.8410   -0.1010    0.1770 cd        1 0JE      0.467400
     14 CAJ         9.1770    0.1340   -0.3280 cd        1 0JE     -0.121200
     15 NAK        10.3620    0.0870    0.4140 na        1 0JE      0.009400
     16 NAL        11.4380    0.3440   -0.3240 nd        1 0JE     -0.449800
     17 CAM        11.0240    0.5900   -1.5910 cc        1 0JE      0.323200
     18 CAN         9.5760    0.4720   -1.6530 cc        1 0JE     -0.144700
     19 NAO         8.7310    0.6870   -2.7420 ns        1 0JE     -0.357100
     20 CAP         9.1860    0.5030   -4.0210 c         1 0JE      0.632100
     21 OAR        10.3550    0.3860   -4.4120 o         1 0JE     -0.505100
     22 NAQ         8.1700    0.5380   -5.1760 nx        1 0JE     -0.585200
     23 CAU         7.4580   -0.7720   -5.3150 c3        1 0JE      0.111800
     24 CAV         6.3590   -1.0460   -4.3140 c3        1 0JE     -0.136100
     25 CAS         7.2390    1.7060   -5.1280 c3        1 0JE      0.111800
     26 CAT         7.9530    3.0390   -5.2190 c3        1 0JE     -0.136100
     27 H1         -0.1800   -2.0270    0.3590 hc        1 0JE      0.058700
     28 H2         -0.3920   -0.2480    0.6110 hc        1 0JE      0.058700
     29 H3         -0.4930   -0.9420   -1.0690 hc        1 0JE      0.058700
     30 H4          1.7260    0.2030   -0.6940 h1        1 0JE      0.036700
     31 H5          1.9410   -1.6020   -0.9500 h1        1 0JE      0.036700
     32 H6          3.8950   -0.4340   -1.0000 ha        1 0JE      0.152000
     33 H7          5.7060   -0.8490    3.7370 ha        1 0JE      0.170000
     34 H8          8.1810   -0.3140    2.2950 hn        1 0JE      0.315700
     35 H10        10.4560   -0.1320    1.3810 hn        1 0JE      0.343700
     36 H11        11.7120    0.8190   -2.4100 h4        1 0JE      0.081100
     37 H12         7.7460    0.6940   -2.5480 hn        1 0JE      0.372500
     38 H13         7.0210   -0.7900   -6.3570 hx        1 0JE      0.102700
     39 H14         8.2480   -1.5780   -5.2450 hx        1 0JE      0.102700
     40 H15         6.7420   -1.1430   -3.2700 hc        1 0JE      0.080367
     41 H16         5.8890   -2.0260   -4.5930 hc        1 0JE      0.080367
     42 H17         5.5620   -0.2640   -4.3410 hc        1 0JE      0.080367
     43 H18         6.5260    1.5940   -5.9970 hx        1 0JE      0.102700
     44 H19         6.6340    1.6530   -4.1790 hx        1 0JE      0.102700
     45 H20         7.1820    3.8490   -5.1700 hc        1 0JE      0.080367
     46 H21         8.6680    3.1840   -4.3720 hc        1 0JE      0.080367
     47 H22         8.5100    3.1450   -6.1820 hc        1 0JE      0.080367
     48 HAQ1        8.7630    0.6480   -6.0190 hn        1 0JE      0.469800
@<TRIPOS>BOND
     1    1    2 1   
     2    1   27 1   
     3    1   28 1   
     4    1   29 1   
     5    2    3 1   
     6    2   30 1   
     7    2   31 1   
     8    3    4 1   
     9    4    5 ar  
    10    4    6 ar  
    11    5   11 ar  
    12    5   32 1   
    13    6    7 1   
    14    6    8 ar  
    15    8    9 ar  
    16    8   33 1   
    17    9   10 1   
    18    9   11 ar  
    19   10   13 1   
    20   10   34 1   
    21   11   12 1   
    22   12   13 2   
    23   13   14 1   
    24   14   15 1   
    25   14   18 2   
    26   15   16 1   
    27   15   35 1   
    28   16   17 2   
    29   17   18 1   
    30   17   36 1   
    31   18   19 1   
    32   19   20 1   
    33   19   37 1   
    34   20   21 2   
    35   20   22 1   
    36   22   23 1   
    37   22   25 1   
    38   22   48 1   
    39   23   24 1   
    40   23   38 1   
    41   23   39 1   
    42   24   40 1   
    43   24   41 1   
    44   24   42 1   
    45   25   26 1   
    46   25   43 1   
    47   25   44 1   
    48   26   45 1   
    49   26   46 1   
    50   26   47 1   
@<TRIPOS>SUBSTRUCTURE
     1 0JE         1 TEMP              0 ****  ****    0 ROOT
