@<TRIPOS>MOLECULE
0JE
   47    40     1     0     0
SMALL
bcc


@<TRIPOS>ATOM
      1 CAZ        -3.5270   -5.5160    5.2150 c3        1 0JE     -0.217000
      2 CAY        -2.7460   -4.2230    4.9360 c3        1 0JE     -0.023000
      3 OAX        -1.7390   -4.4770    3.9930 os        1 0JE     -0.219000
      4 CAB        -1.4630   -3.3900    3.1520 c2        1 0JE      0.002000
      5 CAC        -0.3530   -2.5630    3.1850 c1        1 0JE     -0.059000
      6 CAA        -2.0050   -3.7740    1.9420 c2        1 0JE      0.091000
      7 FAW        -3.1350   -4.4150    1.6210 f         1 0JE     -0.096000
      8 CAD        -1.4390   -3.3320    0.7570 c1        1 0JE     -0.167000
      9 CAH        -0.3100   -2.4920    0.7860 c1        1 0JE     -0.043500
     10 NAG         0.3990   -1.8790   -0.2020 n1        1 0JE     -0.182500
     11 CAI         0.2250   -2.1130    1.9830 c1        1 0JE     -0.043500
     12 NAE         1.2630   -1.2670    1.7310 n1        1 0JE     -0.182500
     13 CAF         1.3720   -1.1220    0.3850 c1        1 0JE      0.087000
     14 CAJ         2.5510   -0.1240    0.1920 c1        1 0JE     -0.127000
     15 NAK         3.7620   -0.2160    0.7610 n2        1 0JE     -0.086500
     16 NAL         4.4830    0.9130    0.4200 n2        1 0JE     -0.086500
     17 CAM         3.7010    1.6900   -0.3600 c1        1 0JE     -0.127000
     18 CAN         2.5010    1.0630   -0.5110 c1        1 0JE     -0.016000
     19 NAO         1.4070    1.5050   -1.3570 n2        1 0JE     -0.284000
     20 CAP         1.4130    2.8450   -1.9020 c2        1 0JE      0.384000
     21 OAR         2.3440    3.6080   -1.6480 o         1 0JE     -0.376000
     22 NAQ         0.2960    3.3060   -2.7110 n         1 0JE     -0.314000
     23 CAU        -0.4530    4.4550   -2.3040 c3        1 0JE     -0.031000
     24 CAV         0.2650    5.6970   -2.7350 c3        1 0JE     -0.244500
     25 CAS        -0.1500    2.5230   -3.8460 c3        1 0JE     -0.031000
     26 CAT         0.5400    3.0340   -5.1310 c3        1 0JE     -0.244500
     27 H1         -2.8920   -6.2540    5.3910 hc        1 0JE      0.088000
     28 H2         -4.0830   -5.7410    4.4280 hc        1 0JE      0.088000
     29 H3         -4.1030   -5.3880    5.9970 hc        1 0JE      0.088000
     30 H4         -2.3400   -3.9010    5.7680 h1        1 0JE      0.077500
     31 H5         -3.3560   -3.5420    4.5860 h1        1 0JE      0.077500
     32 H6          0.0780   -2.3550    4.0440 ha        1 0JE      0.169000
     33 H7         -1.8220   -3.6030   -0.0950 ha        1 0JE      0.155000
     34 H8          0.2470   -1.9630   -1.1280 DU        1 0JE      0.258333
     35 H10         4.0590   -0.9060    1.2840 DU        1 0JE      0.258333
     36 H11         3.9490    2.5460   -0.7460 DU        1 0JE      0.258333
     37 H12         0.6840    0.9570   -1.4960 hn        1 0JE      0.224000
     38 H13        -1.3370    4.4290   -2.7190 h1        1 0JE      0.098250
     39 H14        -0.5500    4.4550   -1.3290 h1        1 0JE      0.098250
     40 H15         0.9960    5.8850   -2.1100 hc        1 0JE      0.083667
     41 H16        -0.3600    6.4500   -2.7430 hc        1 0JE      0.083667
     42 H17         0.6280    5.5670   -3.6280 hc        1 0JE      0.083667
     43 H18        -1.1340    2.6130   -3.9410 h1        1 0JE      0.098250
     44 H19         0.0800    1.5840   -3.7040 h1        1 0JE      0.098250
     45 H20         0.2120    2.5220   -5.9040 hc        1 0JE      0.083667
     46 H21         0.3330    3.9920   -5.2580 hc        1 0JE      0.083667
     47 H22         1.5130    2.9170   -5.0490 hc        1 0JE      0.083667
@<TRIPOS>BOND
     1    1    2 1   
     2    1   27 1   
     3    1   28 1   
     4    1   29 1   
     5    2    3 1   
     6    2   30 1   
     7    2   31 1   
     8    3    4 1   
     9    4    5 1   
    10    4    6 1   
    11    5   32 1   
    12    6    7 1   
    13    6    8 1   
    14    8   33 1   
    15    9   11 1   
    16   10   13 1   
    17   12   13 1   
    18   14   15 1   
    19   14   18 1   
    20   15   16 1   
    21   16   17 1   
    22   17   18 1   
    23   19   20 1   
    24   19   37 1   
    25   20   21 1   
    26   20   22 1   
    27   22   23 1   
    28   22   25 1   
    29   23   24 1   
    30   23   38 1   
    31   23   39 1   
    32   24   40 1   
    33   24   41 1   
    34   24   42 1   
    35   25   26 1   
    36   25   43 1   
    37   25   44 1   
    38   26   45 1   
    39   26   46 1   
    40   26   47 1   
@<TRIPOS>SUBSTRUCTURE
     1 0JE         1 TEMP              0 ****  ****    0 ROOT
