@<TRIPOS>MOLECULE
0JE
   48    50     1     0     0
SMALL
bcc


@<TRIPOS>ATOM
      1 CAZ         0.0100   -0.9960   -0.1060 c3        1 0JE     -0.103100
      2 CAY         1.4960   -0.7970   -0.2990 c3        1 0JE      0.129400
      3 OAX         2.0760   -0.9240    1.0090 os        1 0JE     -0.306900
      4 CAB         3.4400   -0.7710    1.0890 ca        1 0JE      0.107100
      5 CAC         4.2770   -0.5200    0.0120 ca        1 0JE     -0.154000
      6 CAA         3.9470   -0.9000    2.4330 ca        1 0JE      0.152900
      7 FAW         3.0790   -1.1450    3.4360 f         1 0JE     -0.103900
      8 CAD         5.3080   -0.7750    2.7030 ca        1 0JE     -0.146000
      9 CAH         6.1550   -0.5200    1.6170 ca        1 0JE     -0.069200
     10 NAG         7.5400   -0.3480    1.5390 na        1 0JE     -0.251300
     11 CAI         5.6550   -0.3900    0.2630 ca        1 0JE      0.092400
     12 NAE         6.7250   -0.1400   -0.6070 nc        1 0JE     -0.615100
     13 CAF         7.8350   -0.1150    0.1810 cd        1 0JE      0.467400
     14 CAJ         9.1730    0.1160   -0.3190 cd        1 0JE     -0.121200
     15 NAK        10.3550    0.0590    0.4260 na        1 0JE      0.009400
     16 NAL        11.4350    0.3150   -0.3060 nd        1 0JE     -0.449800
     17 CAM        11.0260    0.5700   -1.5730 cc        1 0JE      0.323200
     18 CAN         9.5770    0.4600   -1.6410 cc        1 0JE     -0.144700
     19 NAO         8.7370    0.6850   -2.7310 n         1 0JE     -0.357100
     20 CAP         9.1950    0.5060   -4.0100 c         1 0JE      0.632100
     21 OAR        10.3640    0.3840   -4.3980 o         1 0JE     -0.505100
     22 NAQ         8.1830    0.5530   -5.1680 n4        1 0JE     -0.585200
     23 CAU         7.4640   -0.7520   -5.3160 c3        1 0JE      0.111800
     24 CAV         6.3600   -1.0260   -4.3200 c3        1 0JE     -0.136100
     25 CAS         7.2590    1.7250   -5.1160 c3        1 0JE      0.111800
     26 CAT         7.9810    3.0550   -5.1970 c3        1 0JE     -0.136100
     27 H1         -0.1960   -2.0040    0.3270 hc        1 0JE      0.058700
     28 H2         -0.4990   -0.9090   -1.0950 hc        1 0JE      0.058700
     29 H3         -0.4010   -0.2250    0.5890 hc        1 0JE      0.058700
     30 H4          1.9300   -1.5810   -0.9730 h1        1 0JE      0.036700
     31 H5          1.7230    0.2230   -0.7070 h1        1 0JE      0.036700
     32 H6          3.8900   -0.4220   -1.0100 ha        1 0JE      0.152000
     33 H7          5.6860   -0.8750    3.7300 ha        1 0JE      0.170000
     34 H8          8.1680   -0.3440    2.2990 hn        1 0JE      0.315700
     35 H10        10.4450   -0.1660    1.3930 hn        1 0JE      0.343700
     36 H11        11.7170    0.8010   -2.3890 h4        1 0JE      0.081100
     37 H12         7.7520    0.6960   -2.5400 hn        1 0JE      0.372500
     38 H13         8.2490   -1.5640   -5.2480 hx        1 0JE      0.102700
     39 H14         7.0300   -0.7620   -6.3590 hx        1 0JE      0.102700
     40 H15         6.7400   -1.1310   -3.2750 hc        1 0JE      0.080367
     41 H16         5.5680   -0.2380   -4.3450 hc        1 0JE      0.080367
     42 H17         5.8860   -2.0010   -4.6050 hc        1 0JE      0.080367
     43 H18         6.5480    1.6230   -5.9880 hx        1 0JE      0.102700
     44 H19         6.6500    1.6710   -4.1690 hx        1 0JE      0.102700
     45 H20         7.2130    3.8690   -5.1460 hc        1 0JE      0.080367
     46 H21         8.6940    3.1910   -4.3470 hc        1 0JE      0.080367
     47 H22         8.5410    3.1630   -6.1590 hc        1 0JE      0.080367
     48 HAQ1        8.7790    0.6640   -6.0080 hn        1 0JE      0.469800
@<TRIPOS>BOND
     1    1    2 1   
     2    1   27 1   
     3    1   28 1   
     4    1   29 1   
     5    2    3 1   
     6    2   30 1   
     7    2   31 1   
     8    3    4 1   
     9    4    5 ar  
    10    4    6 ar  
    11    5   11 ar  
    12    5   32 1   
    13    6    7 1   
    14    6    8 ar  
    15    8    9 ar  
    16    8   33 1   
    17    9   10 1   
    18    9   11 ar  
    19   10   13 1   
    20   10   34 1   
    21   11   12 1   
    22   12   13 2   
    23   13   14 1   
    24   14   15 1   
    25   14   18 2   
    26   15   16 1   
    27   15   35 1   
    28   16   17 2   
    29   17   18 1   
    30   17   36 1   
    31   18   19 1   
    32   19   20 1   
    33   19   37 1   
    34   20   21 2   
    35   20   22 1   
    36   22   23 1   
    37   22   25 1   
    38   22   48 1   
    39   23   24 1   
    40   23   38 1   
    41   23   39 1   
    42   24   40 1   
    43   24   41 1   
    44   24   42 1   
    45   25   26 1   
    46   25   43 1   
    47   25   44 1   
    48   26   45 1   
    49   26   46 1   
    50   26   47 1   
@<TRIPOS>SUBSTRUCTURE
     1 0JE         1 TEMP              0 ****  ****    0 ROOT
