@<TRIPOS>MOLECULE
0JF
   71    74     1     0     0
SMALL
bcc


@<TRIPOS>ATOM
      1 C24         0.5780   -3.4620    2.3600 c3        1 0JF      0.104700
      2 O2          0.8590   -2.3430    1.5200 os        1 0JF     -0.296900
      3 C5          1.6230   -1.3360    2.0740 ca        1 0JF      0.107600
      4 C6          1.6470   -1.0900    3.4530 ca        1 0JF     -0.168000
      5 C4          2.3460   -0.5190    1.1780 ca        1 0JF      0.169100
      6 O3          2.3890   -0.6050   -0.1780 os        1 0JF     -0.273900
      7 C25         1.8040   -1.7430   -0.8200 c3        1 0JF      0.114700
      8 C3          3.1100    0.5670    1.7140 ca        1 0JF      0.107600
      9 O4          3.7750    1.3050    0.7690 os        1 0JF     -0.296900
     10 C26         4.6330    2.3410    1.2450 c3        1 0JF      0.104700
     11 C2          3.1450    0.8150    3.0830 ca        1 0JF     -0.168000
     12 C1          2.4110   -0.0240    3.9420 ca        1 0JF     -0.056400
     13 N5          2.4650    0.2170    5.3880 n4        1 0JF     -0.598100
     14 C16         1.5720    1.3570    5.7900 ca        1 0JF      0.752900
     15 N2          0.3380    1.0180    6.2700 nb        1 0JF     -0.738000
     16 N1          2.0880    2.6120    5.6090 nb        1 0JF     -0.674000
     17 C15         1.2610    3.6220    5.9530 ca        1 0JF      0.480200
     18 C14        -0.0290    3.4160    6.4600 ca        1 0JF     -0.335600
     19 C13        -0.4790    2.0670    6.6230 ca        1 0JF      0.688200
     20 N3         -1.7430    1.8310    7.2160 nh        1 0JF     -0.749300
     21 C19        -2.0380    0.4800    7.6680 c3        1 0JF      0.194800
     22 C18        -2.8710    2.4910    6.5590 c3        1 0JF      0.176800
     23 C17        -4.1250    2.4920    7.4320 c3        1 0JF     -0.091400
     24 C21        -4.4570    1.0950    7.9100 c3        1 0JF     -0.101400
     25 C20        -3.2690    0.4480    8.6020 c3        1 0JF     -0.139700
     26 C22        -2.9020    1.0740    9.9300 c         1 0JF      0.542100
     27 O1         -1.7760    1.2760   10.3550 o         1 0JF     -0.403100
     28 N4         -4.0470    1.4430   10.8380 n4        1 0JF     -0.681800
     29 C23        -3.6420    1.6520   12.2770 c3        1 0JF      0.187100
     30 C7         -4.8270    2.0060   13.0980 ca        1 0JF     -0.219300
     31 C8         -5.1610    3.3500   13.3080 ca        1 0JF     -0.091000
     32 C9         -6.2410    3.6810   14.1200 ca        1 0JF     -0.127500
     33 C10        -7.0020    2.6760   14.7370 ca        1 0JF      0.000700
     34 C27        -8.1350    3.0300   15.6200 c3        1 0JF     -0.081800
     35 C11        -6.6620    1.3320   14.5220 ca        1 0JF     -0.127500
     36 C12        -5.5830    0.9980   13.7110 ca        1 0JF     -0.091000
     37 H1          0.1830   -4.2260    1.6410 h1        1 0JF      0.058700
     38 H2         -0.2050   -3.1900    3.1080 h1        1 0JF      0.058700
     39 H3          1.5020   -3.8320    2.8650 h1        1 0JF      0.058700
     40 H4          1.0640   -1.7380    4.1260 ha        1 0JF      0.163000
     41 H5          2.0720   -1.5750   -1.8950 h1        1 0JF      0.068033
     42 H6          2.2550   -2.6870   -0.4340 h1        1 0JF      0.068033
     43 H7          0.6960   -1.7390   -0.6750 h1        1 0JF      0.068033
     44 H8          5.0760    2.7480    0.2980 h1        1 0JF      0.058700
     45 H9          5.4300    1.9230    1.9060 h1        1 0JF      0.058700
     46 H10         4.0430    3.1270    1.7750 h1        1 0JF      0.058700
     47 H11         3.7380    1.6570    3.4760 ha        1 0JF      0.163000
     48 H12         2.1760   -0.6350    5.8880 hn        1 0JF      0.476300
     49 H13         1.6740    4.6430    5.8120 h4        1 0JF      0.077100
     50 H14        -0.6550    4.2750    6.7410 ha        1 0JF      0.189000
     51 H15        -1.1490    0.0800    8.2340 h1        1 0JF      0.083700
     52 H16        -2.2590   -0.2120    6.8040 h1        1 0JF      0.083700
     53 H17        -2.5910    3.5570    6.3310 h1        1 0JF      0.072200
     54 H18        -3.1110    1.9770    5.5820 h1        1 0JF      0.072200
     55 H19        -4.9740    2.8960    6.8190 hc        1 0JF      0.070200
     56 H20        -3.9830    3.1790    8.3070 hc        1 0JF      0.070200
     57 H21        -4.7200    0.4550    7.0210 hc        1 0JF      0.076700
     58 H22        -5.3670    1.1090    8.5630 hc        1 0JF      0.076700
     59 H23        -3.5000   -0.6380    8.8150 hc        1 0JF      0.118700
     60 H24        -4.4750    2.3090   10.4860 hn        1 0JF      0.458800
     61 H25        -3.1630    0.6950   12.6320 hx        1 0JF      0.113200
     62 H26        -2.8650    2.4700   12.2940 hx        1 0JF      0.113200
     63 H27        -4.5580    4.1500   12.8510 ha        1 0JF      0.135500
     64 H28        -6.4960    4.7400   14.2910 ha        1 0JF      0.163500
     65 H29        -8.9240    2.2370   15.6030 hc        1 0JF      0.071033
     66 H30        -8.5990    4.0010   15.3130 hc        1 0JF      0.071033
     67 H31        -7.7700    3.1360   16.6750 hc        1 0JF      0.071033
     68 H32        -7.2510    0.5370   15.0100 ha        1 0JF      0.163500
     69 H33        -5.3140   -0.0610   13.5720 ha        1 0JF      0.135500
     70 H52         3.4350    0.4560    5.6480 hn        1 0JF      0.476300
     71 H42        -4.7620    0.7070   10.7990 hn        1 0JF      0.458800
@<TRIPOS>BOND
     1    1    2 1   
     2    1   37 1   
     3    1   38 1   
     4    1   39 1   
     5    2    3 1   
     6    3    4 ar  
     7    3    5 ar  
     8    4   12 ar  
     9    4   40 1   
    10    5    6 1   
    11    5    8 ar  
    12    6    7 1   
    13    7   41 1   
    14    7   42 1   
    15    7   43 1   
    16    8    9 1   
    17    8   11 ar  
    18    9   10 1   
    19   10   44 1   
    20   10   45 1   
    21   10   46 1   
    22   11   12 ar  
    23   11   47 1   
    24   12   13 1   
    25   13   14 1   
    26   13   48 1   
    27   13   70 1   
    28   14   15 ar  
    29   14   16 ar  
    30   15   19 ar  
    31   16   17 ar  
    32   17   18 ar  
    33   17   49 1   
    34   18   19 ar  
    35   18   50 1   
    36   19   20 1   
    37   20   21 1   
    38   20   22 1   
    39   21   25 1   
    40   21   51 1   
    41   21   52 1   
    42   22   23 1   
    43   22   53 1   
    44   22   54 1   
    45   23   24 1   
    46   23   55 1   
    47   23   56 1   
    48   24   25 1   
    49   24   57 1   
    50   24   58 1   
    51   25   26 1   
    52   25   59 1   
    53   26   27 2   
    54   26   28 1   
    55   28   29 1   
    56   28   60 1   
    57   28   71 1   
    58   29   30 1   
    59   29   61 1   
    60   29   62 1   
    61   30   31 ar  
    62   30   36 ar  
    63   31   32 ar  
    64   31   63 1   
    65   32   33 ar  
    66   32   64 1   
    67   33   34 1   
    68   33   35 ar  
    69   34   65 1   
    70   34   66 1   
    71   34   67 1   
    72   35   36 ar  
    73   35   68 1   
    74   36   69 1   
@<TRIPOS>SUBSTRUCTURE
     1 0JF         1 TEMP              0 ****  ****    0 ROOT
