@<TRIPOS>MOLECULE
0JF
   69    62     1     0     0
SMALL
bcc


@<TRIPOS>ATOM
      1 C24        -1.6850   -4.5000   -7.1140 c3        1 0JF     -0.070000
      2 O2         -2.2130   -3.1640   -7.0560 os        1 0JF     -0.225000
      3 C5         -1.2540   -2.1940   -6.7390 c2        1 0JF      0.053000
      4 C6         -0.7920   -2.0790   -5.4240 c2        1 0JF     -0.199000
      5 C4         -0.8500   -1.2780   -7.7020 c1        1 0JF      0.008000
      6 O3         -1.2800   -1.4240   -9.0270 o         1 0JF     -0.219500
      7 C25        -2.4490   -0.7490   -9.3180 c3        1 0JF     -0.073500
      8 C3          0.0180   -0.2400   -7.3590 c1        1 0JF      0.065000
      9 O4          0.3730    0.7360   -8.3240 o         1 0JF     -0.219500
     10 C26         1.6550    0.4650   -9.0030 c3        1 0JF     -0.073500
     11 C2          0.4840   -0.1250   -6.0310 c1        1 0JF     -0.117000
     12 C1          0.0780   -1.0420   -5.0740 c1        1 0JF      0.067000
     13 N5          0.4790   -0.8720   -3.6920 n3        1 0JF     -0.224000
     14 C16        -0.1640    0.0950   -2.8850 c2        1 0JF      0.172000
     15 N2         -0.3320   -0.1310   -1.5600 n2        1 0JF     -0.277000
     16 N1         -0.5840    1.2760   -3.4390 n1        1 0JF     -0.224000
     17 C15        -1.1650    2.2140   -2.6690 c1        1 0JF     -0.142250
     18 C14        -1.3340    1.9900   -1.3430 c1        1 0JF     -0.142250
     19 C13        -0.9100    0.7980   -0.7870 c1        1 0JF      0.193000
     20 N3         -0.9660    0.5990    0.6700 n2        1 0JF     -0.247000
     21 C19         0.1220    1.5170    1.3810 c3        1 0JF     -0.022000
     22 C18        -2.3110    0.8230    1.1300 c3        1 0JF     -0.039000
     23 C17        -2.3420    1.4310    2.3170 c3        1 0JF     -0.188000
     24 C21        -1.5240    1.1880    3.3400 c3        1 0JF     -0.149000
     25 C20        -0.0800    0.9340    2.8870 c3        1 0JF     -0.144000
     26 C22         0.9430    1.4890    3.8650 c2        1 0JF      0.299000
     27 O1          1.6760    2.4110    3.5270 o         1 0JF     -0.363000
     28 N4          1.1540    0.8240    5.1410 n         1 0JF     -0.366000
     29 C23         2.3390    1.0780    5.9010 c3        1 0JF      0.007000
     30 C7          2.1520    0.5400    7.3090 c1        1 0JF     -0.125000
     31 C8          2.4900   -0.7740    7.5910 c1        1 0JF     -0.142250
     32 C9          2.4580   -1.2330    8.8870 c1        1 0JF     -0.142250
     33 C10         2.0820   -0.3720    9.9310 c1        1 0JF     -0.062000
     34 C27         2.0630   -0.9010   11.4160 c2        1 0JF     -0.181000
     35 C11         1.7450    0.9310    9.6610 c1        1 0JF     -0.134000
     36 C12         1.7770    1.4000    8.3470 c1        1 0JF     -0.109000
     37 H1         -2.1910   -5.0300   -7.7990 h1        1 0JF      0.080667
     38 H2         -0.7260   -4.4660   -7.3650 h1        1 0JF      0.080667
     39 H3         -1.7770   -4.9240   -6.2400 h1        1 0JF      0.080667
     40 H4         -1.0800   -2.7310   -4.7470 ha        1 0JF      0.143000
     41 H5         -3.2150   -1.4380   -9.4820 h1        1 0JF      0.085333
     42 H6         -2.3130   -0.1840  -10.1560 h1        1 0JF      0.085333
     43 H7         -2.6910   -0.1570   -8.5550 h1        1 0JF      0.085333
     44 H8          1.5990    0.7630   -9.9560 h1        1 0JF      0.085333
     45 H9          1.8470   -0.5210   -8.9710 h1        1 0JF      0.085333
     46 H10         2.3620    0.9450   -8.5580 h1        1 0JF      0.085333
     47 H11         1.1190    0.6320   -5.7760 ha        1 0JF      0.174000
     48 H12         1.1130   -1.4360   -3.3230 hn        1 0JF      0.229000
     49 H13        -1.4650    3.0590   -3.0670 ha        1 0JF      0.144250
     50 H14        -1.7500    2.6600   -0.7890 ha        1 0JF      0.144250
     51 H15         1.0080    1.3360    1.0490 h1        1 0JF      0.104000
     52 H16        -0.0980    2.4230    1.3240 h1        1 0JF      0.104000
     53 H17        -2.7750    1.3710    0.4860 h1        1 0JF      0.097500
     54 H18        -2.8060   -0.1090    1.2070 h1        1 0JF      0.097500
     55 H19        -2.2620    2.4000    2.1280 hc        1 0JF      0.091000
     56 H20        -3.2890    1.2780    2.6800 hc        1 0JF      0.091000
     57 H21        -1.5370    1.9230    3.9230 hc        1 0JF      0.104500
     58 H22        -1.8360    0.4260    3.8020 hc        1 0JF      0.104500
     59 H23         0.1320   -0.0270    2.9200 hc        1 0JF      0.108000
     60 H24         0.5180    0.2650    5.4700 hn        1 0JF      0.218000
     61 H25         2.4990    2.0000    5.9370 h1        1 0JF      0.109500
     62 H26         3.1110    0.6250    5.4760 h1        1 0JF      0.109500
     63 H27         2.7550   -1.3890    6.8520 ha        1 0JF      0.144250
     64 H28         2.6930   -2.1380    9.0780 ha        1 0JF      0.144250
     65 H29         1.2020   -1.3480   11.5960 ha        1 0JF      0.084667
     66 H30         2.7970   -1.5440   11.5440 ha        1 0JF      0.084667
     67 H31         2.1760   -0.1570   12.0270 ha        1 0JF      0.084667
     68 H32         1.4880    1.5190   10.3760 ha        1 0JF      0.134000
     69 H33         1.5410    2.3140    8.1550 ha        1 0JF      0.152000
@<TRIPOS>BOND
     1    1    2 1   
     2    1   37 1   
     3    1   38 1   
     4    1   39 1   
     5    2    3 1   
     6    3    4 1   
     7    3    5 1   
     8    4   12 1   
     9    4   40 1   
    10    5    8 1   
    11    6    7 1   
    12    7   41 1   
    13    7   42 1   
    14    7   43 1   
    15    8   11 1   
    16    9   10 1   
    17   10   44 1   
    18   10   45 1   
    19   10   46 1   
    20   11   47 1   
    21   12   13 1   
    22   13   14 1   
    23   13   48 1   
    24   14   15 1   
    25   14   16 1   
    26   15   19 1   
    27   17   18 1   
    28   17   49 1   
    29   18   50 1   
    30   20   21 1   
    31   20   22 1   
    32   21   25 1   
    33   21   51 1   
    34   21   52 1   
    35   22   23 1   
    36   22   53 1   
    37   22   54 1   
    38   23   24 1   
    39   23   55 1   
    40   23   56 1   
    41   24   25 1   
    42   24   57 1   
    43   24   58 1   
    44   25   26 1   
    45   25   59 1   
    46   26   27 1   
    47   26   28 1   
    48   28   29 1   
    49   28   60 1   
    50   29   30 1   
    51   29   61 1   
    52   29   62 1   
    53   30   36 1   
    54   31   32 1   
    55   31   63 1   
    56   32   64 1   
    57   33   35 1   
    58   34   65 1   
    59   34   66 1   
    60   34   67 1   
    61   35   68 1   
    62   36   69 1   
@<TRIPOS>SUBSTRUCTURE
     1 0JF         1 TEMP              0 ****  ****    0 ROOT
