@<TRIPOS>MOLECULE
0JF
   70    73     1     0     0
SMALL
bcc


@<TRIPOS>ATOM
      1 C24        -0.1360    1.2690   -0.1840 c3        1 0JF      0.109700
      2 O2          1.2630    1.1000    0.0270 os        1 0JF     -0.304400
      3 C5          1.6540    0.7130    1.2910 ca        1 0JF      0.150600
      4 C6          0.7600    0.3290    2.2990 ca        1 0JF     -0.230000
      5 C4          3.0460    0.6970    1.5090 ca        1 0JF      0.050100
      6 O3          3.9370    1.2050    0.5870 os        1 0JF     -0.306900
      7 C25         4.1150    0.3800   -0.5680 c3        1 0JF      0.113700
      8 C3          3.5310    0.2540    2.7600 ca        1 0JF      0.150600
      9 O4          4.9030    0.2160    2.8720 os        1 0JF     -0.304400
     10 C26         5.4280   -0.0880    4.1600 c3        1 0JF      0.109700
     11 C2          2.6500   -0.1090    3.7820 ca        1 0JF     -0.230000
     12 C1          1.2580   -0.0650    3.5510 ca        1 0JF      0.172600
     13 N5          0.3860   -0.5040    4.5800 nh        1 0JF     -0.708300
     14 C16        -0.6240    0.2960    5.1160 ca        1 0JF      0.913900
     15 N2         -1.1880   -0.1520    6.3070 nb        1 0JF     -0.810000
     16 N1         -1.0420    1.4360    4.4280 nb        1 0JF     -0.719000
     17 C15        -2.0660    2.1030    4.9630 ca        1 0JF      0.485200
     18 C14        -2.7200    1.7280    6.1530 ca        1 0JF     -0.441600
     19 C13        -2.2310    0.5660    6.8040 ca        1 0JF      0.647200
     20 N3         -2.8330    0.1920    8.0600 nh        1 0JF     -0.773300
     21 C19        -2.0900   -0.7830    8.8520 c3        1 0JF      0.155800
     22 C18        -4.2420   -0.1850    7.9190 c3        1 0JF      0.154800
     23 C17        -4.9340   -0.3360    9.2730 c3        1 0JF     -0.094400
     24 C21        -4.1740   -1.2550   10.2020 c3        1 0JF     -0.088400
     25 C20        -2.6820   -0.9540   10.2580 c3        1 0JF     -0.137700
     26 C22        -2.4040    0.2090   11.1830 c         1 0JF      0.547100
     27 O1         -2.1520    0.1230   12.3760 o         1 0JF     -0.423100
     28 N4         -2.4370    1.5900   10.5790 n4        1 0JF     -0.668800
     29 C23        -2.3140    2.7210   11.5600 c3        1 0JF      0.173100
     30 C7         -3.6370    3.1380   12.0990 ca        1 0JF     -0.197300
     31 C8         -4.3990    4.0980   11.4220 ca        1 0JF     -0.093000
     32 C9         -5.6110    4.5260   11.9530 ca        1 0JF     -0.131000
     33 C10        -6.0790    4.0050   13.1690 ca        1 0JF     -0.017300
     34 C27        -7.3560    4.4810   13.7450 c3        1 0JF     -0.074800
     35 C11        -5.3120    3.0430   13.8410 ca        1 0JF     -0.131000
     36 C12        -4.0990    2.6110   13.3110 ca        1 0JF     -0.093000
     37 H1         -0.1890    1.6600   -1.2320 h1        1 0JF      0.048700
     38 H2         -0.5610    2.0080    0.5370 h1        1 0JF      0.048700
     39 H3         -0.6640    0.2880   -0.1020 h1        1 0JF      0.048700
     40 H4         -0.3230    0.3450    2.1080 ha        1 0JF      0.149000
     41 H5          3.1460    0.2530   -1.1080 h1        1 0JF      0.046367
     42 H6          4.8460    0.9580   -1.1870 h1        1 0JF      0.046367
     43 H7          4.5380   -0.6110   -0.2740 h1        1 0JF      0.046367
     44 H8          5.0710    0.6480    4.9200 h1        1 0JF      0.048700
     45 H9          5.1560   -1.1290    4.4600 h1        1 0JF      0.048700
     46 H10         6.5350    0.0030    4.0110 h1        1 0JF      0.048700
     47 H11         3.0430   -0.4330    4.7550 ha        1 0JF      0.149000
     48 H12         0.7600   -1.2100    5.1800 hn        1 0JF      0.451800
     49 H13        -2.3890    3.0040    4.4050 h4        1 0JF      0.043100
     50 H14        -3.5620    2.3130    6.5350 ha        1 0JF      0.153000
     51 H15        -2.0870   -1.8050    8.3700 h1        1 0JF      0.081200
     52 H16        -1.0170   -0.4490    8.9350 h1        1 0JF      0.081200
     53 H17        -4.7650    0.6160    7.3250 h1        1 0JF      0.070200
     54 H18        -4.3440   -1.1560    7.3520 h1        1 0JF      0.070200
     55 H19        -5.0850    0.6680    9.7480 hc        1 0JF      0.061200
     56 H20        -5.9580   -0.7610    9.0900 hc        1 0JF      0.061200
     57 H21        -4.6130   -1.2100   11.2330 hc        1 0JF      0.082200
     58 H22        -4.2850   -2.3150    9.8410 hc        1 0JF      0.082200
     59 H23        -2.1560   -1.8370   10.7360 hc        1 0JF      0.126700
     60 H24        -1.6690    1.6470    9.8980 hn        1 0JF      0.469800
     61 H25        -1.8280    3.5790   11.0090 hx        1 0JF      0.111200
     62 H26        -1.6290    2.3910   12.3950 hx        1 0JF      0.111200
     63 H27        -4.0340    4.5320   10.4780 ha        1 0JF      0.142500
     64 H28        -6.2060    5.2870   11.4220 ha        1 0JF      0.156000
     65 H29        -7.8420    3.6830   14.3600 hc        1 0JF      0.064033
     66 H30        -8.0680    4.7960   12.9420 hc        1 0JF      0.064033
     67 H31        -7.1640    5.3640   14.4080 hc        1 0JF      0.064033
     68 H32        -5.6680    2.6320   14.7990 ha        1 0JF      0.156000
     69 H33        -3.4980    1.8600   13.8500 ha        1 0JF      0.142500
     70 H42        -3.3250    1.6860   10.0650 hn        1 0JF      0.469800
@<TRIPOS>BOND
     1    1    2 1   
     2    1   37 1   
     3    1   38 1   
     4    1   39 1   
     5    2    3 1   
     6    3    4 ar  
     7    3    5 ar  
     8    4   12 ar  
     9    4   40 1   
    10    5    6 1   
    11    5    8 ar  
    12    6    7 1   
    13    7   41 1   
    14    7   42 1   
    15    7   43 1   
    16    8    9 1   
    17    8   11 ar  
    18    9   10 1   
    19   10   44 1   
    20   10   45 1   
    21   10   46 1   
    22   11   12 ar  
    23   11   47 1   
    24   12   13 1   
    25   13   14 1   
    26   13   48 1   
    27   14   15 ar  
    28   14   16 ar  
    29   15   19 ar  
    30   16   17 ar  
    31   17   18 ar  
    32   17   49 1   
    33   18   19 ar  
    34   18   50 1   
    35   19   20 1   
    36   20   21 1   
    37   20   22 1   
    38   21   25 1   
    39   21   51 1   
    40   21   52 1   
    41   22   23 1   
    42   22   53 1   
    43   22   54 1   
    44   23   24 1   
    45   23   55 1   
    46   23   56 1   
    47   24   25 1   
    48   24   57 1   
    49   24   58 1   
    50   25   26 1   
    51   25   59 1   
    52   26   27 2   
    53   26   28 1   
    54   28   29 1   
    55   28   60 1   
    56   28   70 1   
    57   29   30 1   
    58   29   61 1   
    59   29   62 1   
    60   30   31 ar  
    61   30   36 ar  
    62   31   32 ar  
    63   31   63 1   
    64   32   33 ar  
    65   32   64 1   
    66   33   34 1   
    67   33   35 ar  
    68   34   65 1   
    69   34   66 1   
    70   34   67 1   
    71   35   36 ar  
    72   35   68 1   
    73   36   69 1   
@<TRIPOS>SUBSTRUCTURE
     1 0JF         1 TEMP              0 ****  ****    0 ROOT
