@<TRIPOS>MOLECULE
0JF
   70    73     1     0     0
SMALL
bcc


@<TRIPOS>ATOM
      1 C24        -1.1050    1.4530    0.3970 c3        1 0JF      0.109700
      2 O2          0.2870    1.7090    0.5660 os        1 0JF     -0.304400
      3 C5          0.8330    1.3700    1.7850 ca        1 0JF      0.150600
      4 C6          0.1390    0.6700    2.7820 ca        1 0JF     -0.231000
      5 C4          2.1770    1.7530    1.9670 ca        1 0JF      0.050100
      6 O3          2.8350    2.5640    1.0670 os        1 0JF     -0.306900
      7 C25         3.1940    1.9090   -0.1530 c3        1 0JF      0.113700
      8 C3          2.8280    1.3910    3.1680 ca        1 0JF      0.150600
      9 O4          4.1540    1.7560    3.2430 os        1 0JF     -0.304400
     10 C26         4.8110    1.5130    4.4820 c3        1 0JF      0.109700
     11 C2          2.1410    0.7140    4.1790 ca        1 0JF     -0.231000
     12 C1          0.7890    0.3590    3.9870 ca        1 0JF      0.172600
     13 N5          0.1330   -0.3860    5.0000 nu        1 0JF     -0.707300
     14 C16        -1.0400    0.0440    5.6230 ca        1 0JF      0.911900
     15 N2         -1.3850   -0.6200    6.7960 nb        1 0JF     -0.809000
     16 N1         -1.8100    1.0450    5.0300 nb        1 0JF     -0.719000
     17 C15        -2.9590    1.3440    5.6410 ca        1 0JF      0.484200
     18 C14        -3.4120    0.7220    6.8210 ca        1 0JF     -0.437600
     19 C13        -2.5680   -0.2760    7.3750 ca        1 0JF      0.647200
     20 N3         -2.9680   -0.8830    8.6200 nh        1 0JF     -0.772300
     21 C19        -1.9290   -1.6300    9.3220 c3        1 0JF      0.156800
     22 C18        -4.2060   -1.6580    8.4960 c3        1 0JF      0.155800
     23 C17        -4.7500   -2.0890    9.8570 c3        1 0JF     -0.092400
     24 C21        -3.7020   -2.7980   10.6860 c3        1 0JF     -0.089400
     25 C20        -2.3740   -2.0510   10.7280 c3        1 0JF     -0.137700
     26 C22        -2.4440   -0.9170   11.7240 c         1 0JF      0.544100
     27 O1         -2.2060   -1.0020   12.9200 o         1 0JF     -0.420100
     28 N4         -2.8520    0.4380   11.2090 ny        1 0JF     -0.668800
     29 C23        -2.9580    1.4860   12.2780 c3        1 0JF      0.175100
     30 C7         -3.3470    2.7980   11.6950 ca        1 0JF     -0.196300
     31 C8         -2.3670    3.6480   11.1660 ca        1 0JF     -0.093500
     32 C9         -2.7240    4.8920   10.6570 ca        1 0JF     -0.127500
     33 C10        -4.0640    5.3080   10.6720 ca        1 0JF     -0.016300
     34 C27        -4.4380    6.6420   10.1520 c3        1 0JF     -0.074800
     35 C11        -5.0390    4.4540   11.2040 ca        1 0JF     -0.127500
     36 C12        -4.6850    3.2070   11.7120 ca        1 0JF     -0.093500
     37 H1         -1.7030    1.9770    1.1800 h1        1 0JF      0.048700
     38 H2         -1.3050    0.3540    0.4150 h1        1 0JF      0.048700
     39 H3         -1.3190    1.8770   -0.6170 h1        1 0JF      0.048700
     40 H4         -0.9080    0.3760    2.6190 ha        1 0JF      0.149000
     41 H5          2.2810    1.5370   -0.6780 h1        1 0JF      0.046367
     42 H6          3.6930    2.7190   -0.7430 h1        1 0JF      0.046367
     43 H7          3.9020    1.0710    0.0520 h1        1 0JF      0.046367
     44 H8          5.8360    1.9330    4.3120 h1        1 0JF      0.048700
     45 H9          4.2990    2.0490    5.3170 h1        1 0JF      0.048700
     46 H10         4.8650    0.4170    4.6910 h1        1 0JF      0.048700
     47 H11         2.6570    0.4560    5.1140 ha        1 0JF      0.149000
     48 H12         0.7270   -0.9830    5.5380 hn        1 0JF      0.450800
     49 H13        -3.5620    2.1380    5.1580 h4        1 0JF      0.042100
     50 H14        -4.3670    1.0080    7.2720 ha        1 0JF      0.155000
     51 H15        -1.0040   -0.9930    9.3950 h1        1 0JF      0.080700
     52 H16        -1.6420   -2.5760    8.7710 h1        1 0JF      0.080700
     53 H17        -4.0450   -2.5800    7.8640 h1        1 0JF      0.070700
     54 H18        -4.9740   -1.0170    7.9790 h1        1 0JF      0.070700
     55 H19        -5.1540   -1.2030   10.4130 hc        1 0JF      0.059200
     56 H20        -5.6150   -2.7830    9.6810 hc        1 0JF      0.059200
     57 H21        -3.5020   -3.8100   10.2380 hc        1 0JF      0.083200
     58 H22        -4.0820   -2.9680   11.7280 hc        1 0JF      0.083200
     59 H23        -1.5810   -2.7500   11.1360 hc        1 0JF      0.126700
     60 H24        -3.7580    0.3450   10.7280 hn        1 0JF      0.469300
     61 H25        -1.9550    1.5500   12.7920 hx        1 0JF      0.110200
     62 H26        -3.7170    1.1290   13.0330 hx        1 0JF      0.110200
     63 H27        -1.3090    3.3420   11.1660 ha        1 0JF      0.136500
     64 H28        -1.9500    5.5600   10.2450 ha        1 0JF      0.157000
     65 H29        -5.4910    6.6480    9.7770 hc        1 0JF      0.065033
     66 H30        -4.3530    7.4030   10.9710 hc        1 0JF      0.065033
     67 H31        -3.7610    6.9520    9.3170 hc        1 0JF      0.065033
     68 H32        -6.0930    4.7760   11.2270 ha        1 0JF      0.157000
     69 H33        -5.4600    2.5540   12.1430 ha        1 0JF      0.136500
     70 H42        -2.1670    0.7450   10.5050 hn        1 0JF      0.469300
@<TRIPOS>BOND
     1    1    2 1   
     2    1   37 1   
     3    1   38 1   
     4    1   39 1   
     5    2    3 1   
     6    3    4 ar  
     7    3    5 ar  
     8    4   12 ar  
     9    4   40 1   
    10    5    6 1   
    11    5    8 ar  
    12    6    7 1   
    13    7   41 1   
    14    7   42 1   
    15    7   43 1   
    16    8    9 1   
    17    8   11 ar  
    18    9   10 1   
    19   10   44 1   
    20   10   45 1   
    21   10   46 1   
    22   11   12 ar  
    23   11   47 1   
    24   12   13 1   
    25   13   14 1   
    26   13   48 1   
    27   14   15 ar  
    28   14   16 ar  
    29   15   19 ar  
    30   16   17 ar  
    31   17   18 ar  
    32   17   49 1   
    33   18   19 ar  
    34   18   50 1   
    35   19   20 1   
    36   20   21 1   
    37   20   22 1   
    38   21   25 1   
    39   21   51 1   
    40   21   52 1   
    41   22   23 1   
    42   22   53 1   
    43   22   54 1   
    44   23   24 1   
    45   23   55 1   
    46   23   56 1   
    47   24   25 1   
    48   24   57 1   
    49   24   58 1   
    50   25   26 1   
    51   25   59 1   
    52   26   27 2   
    53   26   28 1   
    54   28   29 1   
    55   28   60 1   
    56   28   70 1   
    57   29   30 1   
    58   29   61 1   
    59   29   62 1   
    60   30   31 ar  
    61   30   36 ar  
    62   31   32 ar  
    63   31   63 1   
    64   32   33 ar  
    65   32   64 1   
    66   33   34 1   
    67   33   35 ar  
    68   34   65 1   
    69   34   66 1   
    70   34   67 1   
    71   35   36 ar  
    72   35   68 1   
    73   36   69 1   
@<TRIPOS>SUBSTRUCTURE
     1 0JF         1 TEMP              0 ****  ****    0 ROOT
