@<TRIPOS>MOLECULE
0JF
   69    72     1     0     0
SMALL
bcc


@<TRIPOS>ATOM
      1 C24        -7.1930   -2.5930    0.6110 c3        1 0JF      0.111200
      2 O2         -7.5220   -1.2070    0.6030 os        1 0JF     -0.313900
      3 C5         -6.4970   -0.3390    0.2830 ca        1 0JF      0.147600
      4 C6         -5.2820   -0.7500   -0.2760 ca        1 0JF     -0.234000
      5 C4         -6.7660    1.0240    0.5220 ca        1 0JF      0.032100
      6 O3         -7.9010    1.4340    1.1940 os        1 0JF     -0.308900
      7 C25        -9.0880    1.3780    0.4000 c3        1 0JF      0.114700
      8 C3         -5.7910    1.9770    0.1590 ca        1 0JF      0.147600
      9 O4         -6.1510    3.2930    0.3650 os        1 0JF     -0.313900
     10 C26        -5.1060    4.2550    0.2570 c3        1 0JF      0.111200
     11 C2         -4.5650    1.5790   -0.3780 ca        1 0JF     -0.234000
     12 C1         -4.3030    0.2080   -0.5950 ca        1 0JF      0.187600
     13 N5         -3.0930   -0.1680   -1.2280 nh        1 0JF     -0.706300
     14 C16        -2.1710   -1.0440   -0.6080 ca        1 0JF      0.888900
     15 N2         -0.8760   -0.9840   -1.0980 nb        1 0JF     -0.798000
     16 N1         -2.6120   -1.9250    0.3680 nb        1 0JF     -0.746000
     17 C15        -1.6880   -2.7730    0.8470 ca        1 0JF      0.467200
     18 C14        -0.3540   -2.8050    0.4240 ca        1 0JF     -0.426600
     19 C13         0.0310   -1.8620   -0.5790 ca        1 0JF      0.691200
     20 N3          1.3970   -1.7980   -0.9700 nh        1 0JF     -0.736300
     21 C19         1.8090   -0.6490   -1.7610 c3        1 0JF      0.195800
     22 C18         1.9490   -3.0570   -1.4540 c3        1 0JF      0.187800
     23 C17         3.4750   -3.0260   -1.5200 c3        1 0JF     -0.083400
     24 C21         3.9720   -1.8320   -2.3040 c3        1 0JF     -0.081400
     25 C20         3.3390   -0.5220   -1.8790 c3        1 0JF     -0.134700
     26 C22         3.8820    0.1460   -0.6200 c         1 0JF      0.665100
     27 O1          3.5110    1.3080   -0.3450 o         1 0JF     -0.622100
     28 N4          4.7530   -0.5290    0.2090 n         1 0JF     -0.552900
     29 C23         5.3710    0.1020    1.3450 c3        1 0JF      0.132300
     30 C7          6.7250    0.6950    1.0710 ca        1 0JF     -0.129300
     31 C8          7.8820    0.1000    1.5800 ca        1 0JF     -0.113000
     32 C9          9.1280    0.6760    1.3430 ca        1 0JF     -0.134500
     33 C10         9.2350    1.8520    0.5920 ca        1 0JF     -0.071300
     34 C27        10.5590    2.4580    0.3270 c3        1 0JF     -0.054800
     35 C11         8.0720    2.4460    0.0840 ca        1 0JF     -0.134500
     36 C12         6.8260    1.8720    0.3210 ca        1 0JF     -0.113000
     37 H1         -6.3080   -2.7910    1.2620 h1        1 0JF      0.046200
     38 H2         -8.1130   -3.0720    1.0330 h1        1 0JF      0.046200
     39 H3         -7.0050   -2.9530   -0.4300 h1        1 0JF      0.046200
     40 H4         -5.0930   -1.8180   -0.4590 ha        1 0JF      0.152000
     41 H5         -9.0020    2.0690   -0.4730 h1        1 0JF      0.040700
     42 H6         -9.2770    0.3320    0.0570 h1        1 0JF      0.040700
     43 H7         -9.8890    1.7210    1.1010 h1        1 0JF      0.040700
     44 H8         -4.2540    3.9990    0.9320 h1        1 0JF      0.046200
     45 H9         -4.7590    4.3370   -0.8020 h1        1 0JF      0.046200
     46 H10        -5.5990    5.2060    0.5840 h1        1 0JF      0.046200
     47 H11        -3.8080    2.3340   -0.6330 ha        1 0JF      0.152000
     48 H12        -2.6630    0.5750   -1.7450 hn        1 0JF      0.436800
     49 H13        -2.0480   -3.4670    1.6290 h4        1 0JF      0.026100
     50 H14         0.3610   -3.5020    0.8720 ha        1 0JF      0.157000
     51 H15         1.3890   -0.7050   -2.8080 h1        1 0JF      0.068200
     52 H16         1.4170    0.2890   -1.2710 h1        1 0JF      0.068200
     53 H17         1.6340   -3.8870   -0.7630 h1        1 0JF      0.044200
     54 H18         1.5500   -3.2950   -2.4840 h1        1 0JF      0.044200
     55 H19         3.8920   -3.0270   -0.4800 hc        1 0JF      0.052200
     56 H20         3.8190   -3.9710   -2.0180 hc        1 0JF      0.052200
     57 H21         5.0900   -1.7690   -2.2440 hc        1 0JF      0.049200
     58 H22         3.7180   -1.9910   -3.3890 hc        1 0JF      0.049200
     59 H23         3.5300    0.2360   -2.6970 hc        1 0JF      0.084700
     60 H24         5.1610   -1.3750   -0.1080 hn        1 0JF      0.307500
     61 H25         4.6870    0.9220    1.7120 h1        1 0JF      0.069700
     62 H26         5.4610   -0.6760    2.1580 h1        1 0JF      0.069700
     63 H27         7.8110   -0.8230    2.1750 ha        1 0JF      0.140500
     64 H28        10.0350    0.2050    1.7510 ha        1 0JF      0.132000
     65 H29        10.9510    2.1020   -0.6590 hc        1 0JF      0.044700
     66 H30        10.4880    3.5730    0.2920 hc        1 0JF      0.044700
     67 H31        11.2970    2.1760    1.1190 hc        1 0JF      0.044700
     68 H32         8.1460    3.3730   -0.5030 ha        1 0JF      0.132000
     69 H33         5.9090    2.3400   -0.0740 ha        1 0JF      0.140500
@<TRIPOS>BOND
     1    1    2 1   
     2    1   37 1   
     3    1   38 1   
     4    1   39 1   
     5    2    3 1   
     6    3    4 ar  
     7    3    5 ar  
     8    4   12 ar  
     9    4   40 1   
    10    5    6 1   
    11    5    8 ar  
    12    6    7 1   
    13    7   41 1   
    14    7   42 1   
    15    7   43 1   
    16    8    9 1   
    17    8   11 ar  
    18    9   10 1   
    19   10   44 1   
    20   10   45 1   
    21   10   46 1   
    22   11   12 ar  
    23   11   47 1   
    24   12   13 1   
    25   13   14 1   
    26   13   48 1   
    27   14   15 ar  
    28   14   16 ar  
    29   15   19 ar  
    30   16   17 ar  
    31   17   18 ar  
    32   17   49 1   
    33   18   19 ar  
    34   18   50 1   
    35   19   20 1   
    36   20   21 1   
    37   20   22 1   
    38   21   25 1   
    39   21   51 1   
    40   21   52 1   
    41   22   23 1   
    42   22   53 1   
    43   22   54 1   
    44   23   24 1   
    45   23   55 1   
    46   23   56 1   
    47   24   25 1   
    48   24   57 1   
    49   24   58 1   
    50   25   26 1   
    51   25   59 1   
    52   26   27 2   
    53   26   28 1   
    54   28   29 1   
    55   28   60 1   
    56   29   30 1   
    57   29   61 1   
    58   29   62 1   
    59   30   31 ar  
    60   30   36 ar  
    61   31   32 ar  
    62   31   63 1   
    63   32   33 ar  
    64   32   64 1   
    65   33   34 1   
    66   33   35 ar  
    67   34   65 1   
    68   34   66 1   
    69   34   67 1   
    70   35   36 ar  
    71   35   68 1   
    72   36   69 1   
@<TRIPOS>SUBSTRUCTURE
     1 0JF         1 TEMP              0 ****  ****    0 ROOT
