@<TRIPOS>MOLECULE
0JG
   51    53     1     0     0
SMALL
bcc


@<TRIPOS>ATOM
      1 N01         0.2020   -0.4700    0.0270 n4        1 0JG     -0.825300
      2 C02         1.6610   -0.2320    0.0410 ca        1 0JG      0.508200
      3 C03         2.3090   -0.0580    1.2730 ca        1 0JG     -0.276400
      4 C04         3.7660    0.1660    1.1900 ca        1 0JG      0.501800
      5 N05         4.2390    0.3180    2.5000 na        1 0JG     -0.082300
      6 C06         5.5780    0.5390    2.8810 c2        1 0JG     -0.107100
      7 C07         6.6580   -0.1610    2.4980 c2        1 0JG     -0.141200
      8 C08         6.7420   -1.3370    1.5900 c3        1 0JG      0.148600
      9 O09         5.5800   -2.1420    1.5850 oh        1 0JG     -0.606800
     10 C10         3.1470    0.2040    3.3820 cc        1 0JG      0.036700
     11 C11         3.2660    0.3400    4.8550 c3        1 0JG     -0.033200
     12 C12         2.9990   -0.9850    5.5740 c3        1 0JG     -0.040600
     13 C13         3.0070   -0.7380    7.0690 c         1 0JG      0.630100
     14 O14         2.3520   -1.7050    7.7640 os        1 0JG     -0.423900
     15 C15         2.3340   -1.5700    9.1920 c3        1 0JG      0.122700
     16 O16         3.5000    0.2200    7.6640 o         1 0JG     -0.511000
     17 C17         3.9830   -1.9900    5.2250 c1        1 0JG      0.210700
     18 N18         4.7630   -2.8000    4.9290 n1        1 0JG     -0.332800
     19 C19         1.9580   -0.0190    2.6630 cd        1 0JG     -0.104400
     20 C20         0.6220   -0.1760    3.1990 ca        1 0JG     -0.095800
     21 C21        -0.0800    0.9310    3.6980 ca        1 0JG     -0.137000
     22 C22        -1.3650    0.7740    4.2100 ca        1 0JG     -0.130000
     23 C23        -1.9730   -0.4880    4.2400 ca        1 0JG     -0.045300
     24 C24        -3.3290   -0.6540    4.8100 c3        1 0JG     -0.071800
     25 C25        -1.2680   -1.5940    3.7450 ca        1 0JG     -0.130000
     26 C26         0.0170   -1.4420    3.2320 ca        1 0JG     -0.137000
     27 N27         4.4360    0.2250    0.0080 nb        1 0JG     -0.620000
     28 C28         3.6590    0.0400   -1.0860 ca        1 0JG      0.667900
     29 N29         2.3140   -0.1910   -1.1470 nb        1 0JG     -0.694000
     30 H1         -0.1050   -0.6820    0.9910 hn        1 0JG      0.473133
     31 H2         -0.0240   -1.2560   -0.5940 hn        1 0JG      0.473133
     32 H3          5.6760    1.4060    3.5680 h4        1 0JG      0.163000
     33 H4          7.6400    0.1900    2.8700 ha        1 0JG      0.161000
     34 H5          7.6450   -1.9520    1.8600 h1        1 0JG      0.077200
     35 H6          6.8540   -0.9780    0.5260 h1        1 0JG      0.077200
     36 H7          5.6320   -2.7280    2.3500 ho        1 0JG      0.417000
     37 H8          2.4970    1.0880    5.2010 hc        1 0JG      0.101200
     38 H9          4.2730    0.7320    5.1660 hc        1 0JG      0.101200
     39 H10         1.9740   -1.3730    5.2840 hc        1 0JG      0.122700
     40 H11         1.7720   -2.4760    9.5280 h1        1 0JG      0.064033
     41 H12         3.3800   -1.5640    9.5840 h1        1 0JG      0.064033
     42 H13         1.8080   -0.6270    9.4740 h1        1 0JG      0.064033
     43 H14         0.3920    1.9260    3.6930 ha        1 0JG      0.147500
     44 H15        -1.9060    1.6490    4.6060 ha        1 0JG      0.155500
     45 H16        -3.9500    0.2610    4.6430 hc        1 0JG      0.062700
     46 H17        -3.2540   -0.8280    5.9140 hc        1 0JG      0.062700
     47 H18        -3.8540   -1.5300    4.3540 hc        1 0JG      0.062700
     48 H19        -1.7300   -2.5940    3.7820 ha        1 0JG      0.155500
     49 H20         0.5770   -2.3270    2.8890 ha        1 0JG      0.147500
     50 H21         4.1790    0.0750   -2.0720 h5        1 0JG      0.092100
     51 H013       -0.2770    0.3710   -0.3120 hn        1 0JG      0.473133
@<TRIPOS>BOND
     1    1    2 1   
     2    1   30 1   
     3    1   31 1   
     4    1   51 1   
     5    2    3 ar  
     6    2   29 ar  
     7    3    4 ar  
     8    3   19 1   
     9    4    5 1   
    10    4   27 ar  
    11    5    6 1   
    12    5   10 1   
    13    6    7 2   
    14    6   32 1   
    15    7    8 1   
    16    7   33 1   
    17    8    9 1   
    18    8   34 1   
    19    8   35 1   
    20    9   36 1   
    21   10   11 1   
    22   10   19 2   
    23   11   12 1   
    24   11   37 1   
    25   11   38 1   
    26   12   13 1   
    27   12   17 1   
    28   12   39 1   
    29   13   14 1   
    30   13   16 2   
    31   14   15 1   
    32   15   40 1   
    33   15   41 1   
    34   15   42 1   
    35   17   18 3   
    36   19   20 1   
    37   20   21 ar  
    38   20   26 ar  
    39   21   22 ar  
    40   21   43 1   
    41   22   23 ar  
    42   22   44 1   
    43   23   24 1   
    44   23   25 ar  
    45   24   45 1   
    46   24   46 1   
    47   24   47 1   
    48   25   26 ar  
    49   25   48 1   
    50   26   49 1   
    51   27   28 ar  
    52   28   29 ar  
    53   28   50 1   
@<TRIPOS>SUBSTRUCTURE
     1 0JG         1 TEMP              0 ****  ****    0 ROOT
