@<TRIPOS>MOLECULE
0JG
   50    52     1     0     0
SMALL
bcc


@<TRIPOS>ATOM
      1 N01         0.2140   -0.5410    0.0630 nv        1 0JG     -0.955500
      2 C02         1.5710   -0.3000    0.0300 ca        1 0JG      0.739200
      3 C03         2.3040   -0.1360    1.2490 ca        1 0JG     -0.372400
      4 C04         3.7430    0.0310    1.1360 ca        1 0JG      0.508800
      5 N05         4.2650    0.1790    2.4320 na        1 0JG     -0.107300
      6 C06         5.5960    0.4440    2.7760 c2        1 0JG     -0.064100
      7 C07         6.6980   -0.2110    2.3720 c2        1 0JG     -0.191200
      8 C08         6.8050   -1.3940    1.4800 c3        1 0JG      0.160600
      9 O09         5.7560   -2.3300    1.6160 oh        1 0JG     -0.586800
     10 C10         3.1840    0.1360    3.3440 cc        1 0JG     -0.080300
     11 C11         3.3390    0.2860    4.8090 c3        1 0JG     -0.008200
     12 C12         3.1190   -1.0420    5.5410 c3        1 0JG     -0.042600
     13 C13         2.8820   -0.7710    7.0120 c         1 0JG      0.633100
     14 O14         2.2670   -1.8110    7.6450 os        1 0JG     -0.427900
     15 C15         2.0050   -1.6470    9.0420 c3        1 0JG      0.124700
     16 O16         3.1460    0.2460    7.6520 o         1 0JG     -0.524000
     17 C17         4.2450   -1.9400    5.3790 c1        1 0JG      0.224700
     18 N18         5.1410   -2.6660    5.2350 n1        1 0JG     -0.353800
     19 C19         1.9820   -0.0630    2.6510 cd        1 0JG     -0.035400
     20 C20         0.6630   -0.1670    3.2410 ca        1 0JG     -0.050800
     21 C21         0.0860    0.9320    3.8930 ca        1 0JG     -0.121500
     22 C22        -1.1820    0.8290    4.4600 ca        1 0JG     -0.134000
     23 C23        -1.8960   -0.3730    4.3920 ca        1 0JG     -0.071300
     24 C24        -3.2360   -0.4860    5.0110 c3        1 0JG     -0.056800
     25 C25        -1.3200   -1.4700    3.7400 ca        1 0JG     -0.134000
     26 C26        -0.0540   -1.3710    3.1690 ca        1 0JG     -0.121500
     27 N27         4.4060    0.0670   -0.0630 nb        1 0JG     -0.732000
     28 C28         3.5870   -0.0880   -1.1250 ca        1 0JG      0.686900
     29 N29         2.2370   -0.2620   -1.1710 nb        1 0JG     -0.794000
     30 H1         -0.3050   -0.5000   -0.7810 hn        1 0JG      0.435300
     31 H2         -0.2590   -0.3560    0.9140 hn        1 0JG      0.435300
     32 H3          5.6890    1.3060    3.4690 h4        1 0JG      0.139000
     33 H4          7.6710    0.1840    2.7160 ha        1 0JG      0.137000
     34 H5          6.7620   -1.0750    0.4000 h1        1 0JG      0.062700
     35 H6          7.7910   -1.9070    1.6680 h1        1 0JG      0.062700
     36 H7          5.7690   -2.6460    2.5280 ho        1 0JG      0.402000
     37 H8          2.5580    1.0140    5.1710 hc        1 0JG      0.081700
     38 H9          4.3410    0.7050    5.0920 hc        1 0JG      0.081700
     39 H10         2.1920   -1.5460    5.1240 hc        1 0JG      0.128700
     40 H11         2.9630   -1.4860    9.5920 h1        1 0JG      0.056033
     41 H12         1.5210   -2.6120    9.3310 h1        1 0JG      0.056033
     42 H13         1.3200   -0.7800    9.1990 h1        1 0JG      0.056033
     43 H14         0.6370    1.8830    3.9500 ha        1 0JG      0.144000
     44 H15        -1.6260    1.7000    4.9660 ha        1 0JG      0.136500
     45 H16        -3.1360   -0.8300    6.0720 hc        1 0JG      0.047033
     46 H17        -3.8690   -1.2260    4.4630 hc        1 0JG      0.047033
     47 H18        -3.7620    0.5000    5.0120 hc        1 0JG      0.047033
     48 H19        -1.8730   -2.4200    3.6790 ha        1 0JG      0.136500
     49 H20         0.3900   -2.2380    2.6570 ha        1 0JG      0.144000
     50 H21         4.0850   -0.0670   -2.1190 h5        1 0JG      0.049100
@<TRIPOS>BOND
     1    1    2 1   
     2    1   30 1   
     3    1   31 1   
     4    2    3 ar  
     5    2   29 ar  
     6    3    4 ar  
     7    3   19 1   
     8    4    5 1   
     9    4   27 ar  
    10    5    6 1   
    11    5   10 1   
    12    6    7 2   
    13    6   32 1   
    14    7    8 1   
    15    7   33 1   
    16    8    9 1   
    17    8   34 1   
    18    8   35 1   
    19    9   36 1   
    20   10   11 1   
    21   10   19 2   
    22   11   12 1   
    23   11   37 1   
    24   11   38 1   
    25   12   13 1   
    26   12   17 1   
    27   12   39 1   
    28   13   14 1   
    29   13   16 2   
    30   14   15 1   
    31   15   40 1   
    32   15   41 1   
    33   15   42 1   
    34   17   18 3   
    35   19   20 1   
    36   20   21 ar  
    37   20   26 ar  
    38   21   22 ar  
    39   21   43 1   
    40   22   23 ar  
    41   22   44 1   
    42   23   24 1   
    43   23   25 ar  
    44   24   45 1   
    45   24   46 1   
    46   24   47 1   
    47   25   26 ar  
    48   25   48 1   
    49   26   49 1   
    50   27   28 ar  
    51   28   29 ar  
    52   28   50 1   
@<TRIPOS>SUBSTRUCTURE
     1 0JG         1 TEMP              0 ****  ****    0 ROOT
