@<TRIPOS>MOLECULE
0JG
   50    52     1     0     0
SMALL
bcc


@<TRIPOS>ATOM
      1 N01         0.2240   -0.4870    0.0580 nh        1 0JG     -0.955500
      2 C02         1.5790   -0.2320    0.0340 ca        1 0JG      0.739200
      3 C03         2.3060   -0.0860    1.2590 ca        1 0JG     -0.372400
      4 C04         3.7430    0.0980    1.1540 ca        1 0JG      0.508800
      5 N05         4.2600    0.2250    2.4530 na        1 0JG     -0.107300
      6 C06         5.5870    0.4970    2.8070 c2        1 0JG     -0.064100
      7 C07         6.6970   -0.1380    2.3930 c2        1 0JG     -0.191200
      8 C08         6.8200   -1.3010    1.4770 c3        1 0JG      0.160600
      9 O09         5.7800   -2.2510    1.5910 oh        1 0JG     -0.586800
     10 C10         3.1770    0.1530    3.3620 cc        1 0JG     -0.080300
     11 C11         3.3260    0.2740    4.8300 c3        1 0JG     -0.008200
     12 C12         3.1190   -1.0720    5.5330 c3        1 0JG     -0.042600
     13 C13         2.8750   -0.8350    7.0080 c         1 0JG      0.633100
     14 O14         2.2690   -1.8940    7.6180 os        1 0JG     -0.427900
     15 C15         2.0010   -1.7620    9.0170 c3        1 0JG      0.124700
     16 O16         3.1260    0.1720    7.6710 o         1 0JG     -0.524000
     17 C17         4.2560   -1.9540    5.3570 c1        1 0JG      0.224700
     18 N18         5.1610   -2.6650    5.2010 n1        1 0JG     -0.353800
     19 C19         1.9790   -0.0440    2.6600 cd        1 0JG     -0.035400
     20 C20         0.6590   -0.1740    3.2440 ca        1 0JG     -0.050800
     21 C21         0.0690    0.9060    3.9170 ca        1 0JG     -0.121500
     22 C22        -1.1990    0.7790    4.4780 ca        1 0JG     -0.134000
     23 C23        -1.9010   -0.4290    4.3830 ca        1 0JG     -0.071300
     24 C24        -3.2410   -0.5680    4.9960 c3        1 0JG     -0.056800
     25 C25        -1.3120   -1.5060    3.7100 ca        1 0JG     -0.134000
     26 C26        -0.0460   -1.3830    3.1460 ca        1 0JG     -0.121500
     27 N27         4.4090    0.1650   -0.0430 nb        1 0JG     -0.732000
     28 C28         3.5950    0.0240   -1.1100 ca        1 0JG      0.686900
     29 N29         2.2480   -0.1620   -1.1630 nb        1 0JG     -0.794000
     30 H1         -0.2540   -0.3250    0.9120 hn        1 0JG      0.435300
     31 H2         -0.2930   -0.4340   -0.7860 hn        1 0JG      0.435300
     32 H3          5.6690    1.3460    3.5190 h4        1 0JG      0.139000
     33 H4          7.6650    0.2610    2.7480 ha        1 0JG      0.137000
     34 H5          6.7760   -0.9600    0.4040 h1        1 0JG      0.062700
     35 H6          7.8110   -1.8060    1.6580 h1        1 0JG      0.062700
     36 H7          5.7950   -2.5850    2.4960 ho        1 0JG      0.402000
     37 H8          2.5360    0.9850    5.2040 hc        1 0JG      0.081700
     38 H9          4.3220    0.6980    5.1240 hc        1 0JG      0.081700
     39 H10         2.2000   -1.5780    5.1020 hc        1 0JG      0.128700
     40 H11         1.3060   -0.9060    9.1890 h1        1 0JG      0.056033
     41 H12         2.9550   -1.6030    9.5730 h1        1 0JG      0.056033
     42 H13         1.5260   -2.7390    9.2840 h1        1 0JG      0.056033
     43 H14         0.6110    1.8610    3.9950 ha        1 0JG      0.144000
     44 H15        -1.6530    1.6350    5.0000 ha        1 0JG      0.136500
     45 H16        -3.7760    0.4130    5.0180 hc        1 0JG      0.047033
     46 H17        -3.1410   -0.9350    6.0490 hc        1 0JG      0.047033
     47 H18        -3.8670   -1.3000    4.4290 hc        1 0JG      0.047033
     48 H19        -1.8550   -2.4600    3.6290 ha        1 0JG      0.136500
     49 H20         0.4090   -2.2350    2.6170 ha        1 0JG      0.144000
     50 H21         4.0950    0.0700   -2.1020 h5        1 0JG      0.049100
@<TRIPOS>BOND
     1    1    2 1   
     2    1   30 1   
     3    1   31 1   
     4    2    3 ar  
     5    2   29 ar  
     6    3    4 ar  
     7    3   19 1   
     8    4    5 1   
     9    4   27 ar  
    10    5    6 1   
    11    5   10 1   
    12    6    7 2   
    13    6   32 1   
    14    7    8 1   
    15    7   33 1   
    16    8    9 1   
    17    8   34 1   
    18    8   35 1   
    19    9   36 1   
    20   10   11 1   
    21   10   19 2   
    22   11   12 1   
    23   11   37 1   
    24   11   38 1   
    25   12   13 1   
    26   12   17 1   
    27   12   39 1   
    28   13   14 1   
    29   13   16 2   
    30   14   15 1   
    31   15   40 1   
    32   15   41 1   
    33   15   42 1   
    34   17   18 3   
    35   19   20 1   
    36   20   21 ar  
    37   20   26 ar  
    38   21   22 ar  
    39   21   43 1   
    40   22   23 ar  
    41   22   44 1   
    42   23   24 1   
    43   23   25 ar  
    44   24   45 1   
    45   24   46 1   
    46   24   47 1   
    47   25   26 ar  
    48   25   48 1   
    49   26   49 1   
    50   27   28 ar  
    51   28   29 ar  
    52   28   50 1   
@<TRIPOS>SUBSTRUCTURE
     1 0JG         1 TEMP              0 ****  ****    0 ROOT
