@<TRIPOS>MOLECULE
0JG
   50    41     1     0     0
SMALL
bcc


@<TRIPOS>ATOM
      1 N01        -3.6230   -0.1570   -2.3620 n3        1 0JG     -0.353000
      2 C02        -2.2730   -0.6210   -2.0000 c1        1 0JG      0.222000
      3 C03        -1.1680   -0.6990   -1.1300 c1        1 0JG     -0.229000
      4 C04        -0.0750   -1.4380   -1.4820 c1        1 0JG      0.096000
      5 N05         0.9130   -1.2360   -0.5200 n1        1 0JG     -0.102000
      6 C06         2.3110   -1.7080   -0.6080 c1        1 0JG     -0.110500
      7 C07         2.5850   -3.0800   -0.6680 c1        1 0JG     -0.110500
      8 C08         1.4500   -4.0840   -0.6420 c2        1 0JG      0.010000
      9 O09         1.9830   -5.3990   -0.4910 oh        1 0JG     -0.325000
     10 C10         0.4210   -0.3750    0.4140 c1        1 0JG     -0.042000
     11 C11         1.2240   -0.0200    1.6910 c2        1 0JG     -0.092000
     12 C12         0.4550   -0.5330    2.9480 c3        1 0JG     -0.002000
     13 C13         1.1900   -0.1170    4.1960 c2        1 0JG      0.304000
     14 O14         0.4620    0.1210    5.4090 os        1 0JG     -0.266000
     15 C15         1.2370    0.8080    6.4370 c3        1 0JG     -0.065000
     16 O16         2.4080   -0.0820    4.2030 o         1 0JG     -0.335000
     17 C17         0.3640   -2.0350    2.8990 c1        1 0JG     -0.138000
     18 N18         0.2980   -3.1620    2.8630 n1        1 0JG     -0.013000
     19 C19        -0.8700   -0.0350    0.0460 c1        1 0JG     -0.062000
     20 C20        -0.9130    1.3540   -0.6560 c1        1 0JG     -0.041000
     21 C21         0.1910    1.8100   -1.3660 c2        1 0JG     -0.118000
     22 C22         0.1360    3.0340   -2.0270 c1        1 0JG     -0.133000
     23 C23        -1.0200    3.7940   -1.9740 c1        1 0JG     -0.063000
     24 C24        -1.1310    5.0510   -2.7870 c3        1 0JG     -0.183000
     25 C25        -2.1230    3.3320   -1.2610 c1        1 0JG     -0.134000
     26 C26        -2.0650    2.1150   -0.6060 c1        1 0JG     -0.126000
     27 N27        -0.0530   -2.1050   -2.6820 n1        1 0JG     -0.226000
     28 C28        -1.1480   -2.0290   -3.5460 c1        1 0JG      0.026000
     29 N29        -2.2480   -1.2880   -3.1980 n1        1 0JG     -0.268000
     30 H1         -4.2350    0.0640   -1.6940 hn        1 0JG      0.234500
     31 H2         -3.8700   -0.1270   -3.2250 hn        1 0JG      0.234500
     32 H3          3.0660   -1.0430   -0.6240 ha        1 0JG      0.144500
     33 H4          3.5170   -3.3940   -0.7280 ha        1 0JG      0.144500
     34 H5          0.9420   -4.0300   -1.4840 h4        1 0JG      0.098000
     35 H6          0.8410   -3.8800    0.1300 h4        1 0JG      0.098000
     36 H7          2.0230   -5.8000   -1.2940 ho        1 0JG      0.214000
     37 H8          1.3330    0.9530    1.7480 ha        1 0JG      0.123000
     38 H9          2.1030   -0.4450    1.6510 ha        1 0JG      0.123000
     39 H10        -0.4740   -0.1390    2.9580 hc        1 0JG      0.165000
     40 H11         1.3400    1.7580    6.1910 h1        1 0JG      0.095333
     41 H12         2.1420    0.3820    6.5130 h1        1 0JG      0.095333
     42 H13         0.7640    0.7410    7.3110 h1        1 0JG      0.095333
     43 H14         1.0310    1.2540   -1.4030 ha        1 0JG      0.140000
     44 H15         0.9140    3.3570   -2.5290 ha        1 0JG      0.137000
     45 H16        -0.4320    5.0560   -3.4850 hc        1 0JG      0.087333
     46 H17        -2.0010    5.0880   -3.2020 hc        1 0JG      0.087333
     47 H18        -1.0130    5.8430   -2.1930 hc        1 0JG      0.087333
     48 H19        -2.9370    3.8650   -1.2230 ha        1 0JG      0.138000
     49 H20        -2.8400    1.7920   -0.1060 ha        1 0JG      0.147000
     50 H21        -1.1300   -2.5110   -4.4120 ha        1 0JG      0.189000
@<TRIPOS>BOND
     1    1    2 1   
     2    1   30 1   
     3    1   31 1   
     4    2    3 1   
     5    4   27 1   
     6    5   10 1   
     7    6    7 1   
     8    6   32 1   
     9    7   33 1   
    10    8    9 1   
    11    8   34 1   
    12    8   35 1   
    13    9   36 1   
    14   10   19 1   
    15   11   12 1   
    16   11   37 1   
    17   11   38 1   
    18   12   13 1   
    19   12   17 1   
    20   12   39 1   
    21   13   14 1   
    22   13   16 1   
    23   14   15 1   
    24   15   40 1   
    25   15   41 1   
    26   15   42 1   
    27   17   18 1   
    28   20   21 1   
    29   20   26 1   
    30   21   22 1   
    31   21   43 1   
    32   22   44 1   
    33   23   24 1   
    34   23   25 1   
    35   24   45 1   
    36   24   46 1   
    37   24   47 1   
    38   25   48 1   
    39   26   49 1   
    40   28   29 1   
    41   28   50 1   
@<TRIPOS>SUBSTRUCTURE
     1 0JG         1 TEMP              0 ****  ****    0 ROOT
