@<TRIPOS>MOLECULE
0JG
   50    52     1     0     0
SMALL
bcc


@<TRIPOS>ATOM
      1 N01         1.9600    3.5780    0.9130 nh        1 0JG     -0.953500
      2 C02         0.6080    3.4360    0.6840 ca        1 0JG      0.738200
      3 C03         0.0800    2.1870    0.2220 ca        1 0JG     -0.374400
      4 C04        -1.3610    2.0940    0.0700 ca        1 0JG      0.487800
      5 N05        -1.6670    0.8090   -0.4090 na        1 0JG     -0.096300
      6 C06        -2.9290    0.2940   -0.7200 c2        1 0JG     -0.096100
      7 C07        -4.1140    0.7370   -0.2620 c2        1 0JG     -0.155200
      8 C08        -5.3750    0.0750   -0.6990 c3        1 0JG      0.162600
      9 O09        -6.4420    0.6780    0.0210 oh        1 0JG     -0.594800
     10 C10        -0.4480    0.1030   -0.5600 cc        1 0JG     -0.085300
     11 C11        -0.3480   -1.2900   -1.0540 c3        1 0JG     -0.014200
     12 C12        -0.6370   -2.3190    0.0450 c3        1 0JG     -0.042600
     13 C13         0.2790   -3.5160   -0.1160 c         1 0JG      0.633100
     14 O14         0.5260   -4.1430    1.0710 os        1 0JG     -0.428900
     15 C15         1.3820   -5.2880    1.0250 c3        1 0JG      0.124700
     16 O16         0.8120   -3.9420   -1.1390 o         1 0JG     -0.521000
     17 C17        -2.0170   -2.7680    0.0160 c1        1 0JG      0.215700
     18 N18        -3.1240   -3.1240    0.0030 n1        1 0JG     -0.347800
     19 C19         0.6280    0.9190   -0.1810 cd        1 0JG     -0.027400
     20 C20         2.0290    0.5500   -0.1980 ca        1 0JG     -0.051800
     21 C21         2.6720    0.2490   -1.4080 ca        1 0JG     -0.119000
     22 C22         4.0170   -0.1110   -1.4200 ca        1 0JG     -0.133000
     23 C23         4.7460   -0.1800   -0.2270 ca        1 0JG     -0.070300
     24 C24         6.1780   -0.5540   -0.2470 c3        1 0JG     -0.056800
     25 C25         4.1040    0.1200    0.9810 ca        1 0JG     -0.133000
     26 C26         2.7600    0.4830    0.9970 ca        1 0JG     -0.119000
     27 N27        -2.2130    3.1330    0.3450 nb        1 0JG     -0.735000
     28 C28        -1.5770    4.2480    0.7640 ca        1 0JG      0.686900
     29 N29        -0.2480    4.4780    0.9450 nb        1 0JG     -0.793000
     30 H1          2.5610    2.8930    0.5200 hn        1 0JG      0.436300
     31 H2          2.3290    4.4820    1.0830 hn        1 0JG      0.436300
     32 H3         -2.8740   -0.5710   -1.4120 h4        1 0JG      0.142000
     33 H4         -4.2400    1.5820    0.4340 ha        1 0JG      0.182000
     34 H5         -5.5350    0.2250   -1.8030 h1        1 0JG      0.037200
     35 H6         -5.3410   -1.0290   -0.4830 h1        1 0JG      0.037200
     36 H7         -7.2390    0.1920   -0.2200 ho        1 0JG      0.403000
     37 H8         -1.0270   -1.4640   -1.9310 hc        1 0JG      0.086700
     38 H9          0.7070   -1.4450   -1.4230 hc        1 0JG      0.086700
     39 H10        -0.4330   -1.8610    1.0610 hc        1 0JG      0.127700
     40 H11         0.9350   -6.0700    0.3640 h1        1 0JG      0.056033
     41 H12         2.3890   -4.9930    0.6450 h1        1 0JG      0.056033
     42 H13         1.4250   -5.6240    2.0900 h1        1 0JG      0.056033
     43 H14         2.1100    0.3020   -2.3530 ha        1 0JG      0.143000
     44 H15         4.5110   -0.3470   -2.3750 ha        1 0JG      0.136500
     45 H16         6.8040    0.3450   -0.4780 hc        1 0JG      0.047367
     46 H17         6.5030   -0.9600    0.7420 hc        1 0JG      0.047367
     47 H18         6.3760   -1.3270   -1.0300 hc        1 0JG      0.047367
     48 H19         4.6660    0.0660    1.9260 ha        1 0JG      0.136500
     49 H20         2.2640    0.7160    1.9520 ha        1 0JG      0.143000
     50 H21        -2.2350    5.1140    0.9930 h5        1 0JG      0.053100
@<TRIPOS>BOND
     1    1    2 1   
     2    1   30 1   
     3    1   31 1   
     4    2    3 ar  
     5    2   29 ar  
     6    3    4 ar  
     7    3   19 1   
     8    4    5 1   
     9    4   27 ar  
    10    5    6 1   
    11    5   10 1   
    12    6    7 2   
    13    6   32 1   
    14    7    8 1   
    15    7   33 1   
    16    8    9 1   
    17    8   34 1   
    18    8   35 1   
    19    9   36 1   
    20   10   11 1   
    21   10   19 2   
    22   11   12 1   
    23   11   37 1   
    24   11   38 1   
    25   12   13 1   
    26   12   17 1   
    27   12   39 1   
    28   13   14 1   
    29   13   16 2   
    30   14   15 1   
    31   15   40 1   
    32   15   41 1   
    33   15   42 1   
    34   17   18 3   
    35   19   20 1   
    36   20   21 ar  
    37   20   26 ar  
    38   21   22 ar  
    39   21   43 1   
    40   22   23 ar  
    41   22   44 1   
    42   23   24 1   
    43   23   25 ar  
    44   24   45 1   
    45   24   46 1   
    46   24   47 1   
    47   25   26 ar  
    48   25   48 1   
    49   26   49 1   
    50   27   28 ar  
    51   28   29 ar  
    52   28   50 1   
@<TRIPOS>SUBSTRUCTURE
     1 0JG         1 TEMP              0 ****  ****    0 ROOT
