@<TRIPOS>MOLECULE
0JH
   62    64     1     0     0
SMALL
bcc


@<TRIPOS>ATOM
      1 N01        -0.0340   -0.0920   -0.1360 n4        1 0JH     -0.826300
      2 C02         1.4400   -0.0330   -0.0550 ca        1 0JH      0.509200
      3 C03         2.0530   -0.0210    1.2080 ca        1 0JH     -0.277400
      4 C04         3.5280    0.0510    1.1890 ca        1 0JH      0.475800
      5 N05         3.9650    0.0380    2.5180 na        1 0JH     -0.131100
      6 C06         5.3410    0.1910    2.9350 c3        1 0JH      0.023300
      7 C07         5.7700    1.6390    3.1600 c3        1 0JH     -0.109400
      8 C08         7.2240    1.6660    3.6070 c3        1 0JH      0.135400
      9 O09         7.5480    3.0320    3.8020 oh        1 0JH     -0.595800
     10 C10         2.8360   -0.0050    3.3540 cc        1 0JH      0.035700
     11 C11         2.9180    0.0020    4.8350 c3        1 0JH     -0.040200
     12 C12         2.8810   -1.4070    5.4320 c3        1 0JH     -0.048600
     13 C13         3.3380   -1.3350    6.8850 c         1 0JH      0.646100
     14 O14         2.6250   -2.1730    7.6670 os        1 0JH     -0.431900
     15 C15         2.9290   -2.3040    9.0910 c3        1 0JH      0.174800
     16 C16         1.9260   -3.3590    9.5500 c3        1 0JH     -0.116433
     17 C17         4.3520   -2.7960    9.2820 c3        1 0JH     -0.116433
     18 C18         2.6870   -0.9850    9.8020 c3        1 0JH     -0.116433
     19 O19         4.2230   -0.6010    7.3240 o         1 0JH     -0.524000
     20 C20         3.7200   -2.3360    4.7000 c1        1 0JH      0.196700
     21 N21         4.3710   -3.0930    4.1070 n1        1 0JH     -0.322800
     22 C22         1.6560   -0.0520    2.5850 cd        1 0JH     -0.100400
     23 C23         0.2930   -0.1140    3.0710 ca        1 0JH     -0.090800
     24 C24        -0.4580   -1.2910    2.9230 ca        1 0JH     -0.138000
     25 C25        -1.7680   -1.3510    3.3910 ca        1 0JH     -0.128500
     26 C26        -2.3520   -0.2430    4.0190 ca        1 0JH     -0.045300
     27 C27        -3.7360   -0.3160    4.5390 c3        1 0JH     -0.070800
     28 C28        -1.5990    0.9290    4.1690 ca        1 0JH     -0.128500
     29 C29        -0.2880    0.9940    3.7040 ca        1 0JH     -0.138000
     30 N30         4.2490    0.0990    0.0360 nb        1 0JH     -0.628000
     31 C31         3.5030    0.0760   -1.0940 ca        1 0JH      0.666900
     32 N32         2.1430    0.0130   -1.2140 nb        1 0JH     -0.692000
     33 H1         -0.4050   -0.3410    0.7960 hn        1 0JH      0.474133
     34 H2         -0.3950    0.8270   -0.4180 hn        1 0JH      0.474133
     35 H3          5.9970   -0.2750    2.1430 h1        1 0JH      0.091700
     36 H4          5.4730   -0.3950    3.8910 h1        1 0JH      0.091700
     37 H5          5.1360    2.1280    3.9460 hc        1 0JH      0.070700
     38 H6          5.6630    2.2380    2.2190 hc        1 0JH      0.070700
     39 H7          7.3560    1.0950    4.5650 h1        1 0JH      0.032700
     40 H8          7.8890    1.2190    2.8190 h1        1 0JH      0.032700
     41 H9          8.4680    3.0600    4.0940 ho        1 0JH      0.416000
     42 H10         3.8480    0.5330    5.1880 hc        1 0JH      0.102700
     43 H11         2.0330    0.5760    5.2300 hc        1 0JH      0.102700
     44 H12         1.8200   -1.8010    5.4100 hc        1 0JH      0.121700
     45 H13         0.8830   -3.0050    9.3720 hc        1 0JH      0.057033
     46 H14         2.0710   -3.5440   10.6410 hc        1 0JH      0.057033
     47 H15         2.0830   -4.3110    8.9910 hc        1 0JH      0.057033
     48 H16         4.5130   -3.0470   10.3580 hc        1 0JH      0.057033
     49 H17         4.5310   -3.7100    8.6680 hc        1 0JH      0.057033
     50 H18         5.0850   -2.0080    8.9830 hc        1 0JH      0.057033
     51 H19         2.7620   -1.1430   10.9050 hc        1 0JH      0.057033
     52 H20         1.6690   -0.5970    9.5620 hc        1 0JH      0.057033
     53 H21         3.4470   -0.2270    9.4940 hc        1 0JH      0.057033
     54 H22         0.0050   -2.1860    2.4800 ha        1 0JH      0.145500
     55 H23        -2.3450   -2.2840    3.2870 ha        1 0JH      0.155000
     56 H24        -4.2420    0.6790    4.4750 hc        1 0JH      0.062700
     57 H25        -4.3430   -1.0630    3.9700 hc        1 0JH      0.062700
     58 H26        -3.7180   -0.6290    5.6150 hc        1 0JH      0.062700
     59 H27        -2.0450    1.8030    4.6700 ha        1 0JH      0.155000
     60 H28         0.2970    1.9170    3.8390 ha        1 0JH      0.145500
     61 H29         4.0640    0.1140   -2.0570 h5        1 0JH      0.095100
     62 H013       -0.3260   -0.7910   -0.8280 hn        1 0JH      0.474133
@<TRIPOS>BOND
     1    1    2 1   
     2    1   33 1   
     3    1   34 1   
     4    1   62 1   
     5    2    3 ar  
     6    2   32 ar  
     7    3    4 ar  
     8    3   22 1   
     9    4    5 1   
    10    4   30 ar  
    11    5    6 1   
    12    5   10 1   
    13    6    7 1   
    14    6   35 1   
    15    6   36 1   
    16    7    8 1   
    17    7   37 1   
    18    7   38 1   
    19    8    9 1   
    20    8   39 1   
    21    8   40 1   
    22    9   41 1   
    23   10   11 1   
    24   10   22 2   
    25   11   12 1   
    26   11   42 1   
    27   11   43 1   
    28   12   13 1   
    29   12   20 1   
    30   12   44 1   
    31   13   14 1   
    32   13   19 2   
    33   14   15 1   
    34   15   16 1   
    35   15   17 1   
    36   15   18 1   
    37   16   45 1   
    38   16   46 1   
    39   16   47 1   
    40   17   48 1   
    41   17   49 1   
    42   17   50 1   
    43   18   51 1   
    44   18   52 1   
    45   18   53 1   
    46   20   21 3   
    47   22   23 1   
    48   23   24 ar  
    49   23   29 ar  
    50   24   25 ar  
    51   24   54 1   
    52   25   26 ar  
    53   25   55 1   
    54   26   27 1   
    55   26   28 ar  
    56   27   56 1   
    57   27   57 1   
    58   27   58 1   
    59   28   29 ar  
    60   28   59 1   
    61   29   60 1   
    62   30   31 ar  
    63   31   32 ar  
    64   31   61 1   
@<TRIPOS>SUBSTRUCTURE
     1 0JH         1 TEMP              0 ****  ****    0 ROOT
