@<TRIPOS>MOLECULE
0JH
   61    53     1     0     0
SMALL
bcc


@<TRIPOS>ATOM
      1 N01        -4.2980    0.3520   -3.3950 n3        1 0JH     -0.350000
      2 C02        -2.8820    0.3940   -3.1560 c1        1 0JH      0.215000
      3 C03        -1.6910    0.4430   -2.4430 c1        1 0JH     -0.068500
      4 C04        -0.5010    0.5090   -3.1090 c1        1 0JH     -0.068500
      5 N05         0.5260    0.5000   -2.1620 n1        1 0JH     -0.132000
      6 C06         1.8560    0.3310   -2.7110 c2        1 0JH     -0.022000
      7 C07         2.2140    1.5560   -3.5810 c3        1 0JH     -0.188000
      8 C08         3.5170    1.2780   -4.3450 c3        1 0JH     -0.017000
      9 O09         3.4880    1.9550   -5.5900 oh        1 0JH     -0.326000
     10 C10        -0.0440    0.4290   -0.9190 c1        1 0JH     -0.045000
     11 C11         0.7730    0.5570    0.3900 c2        1 0JH     -0.094000
     12 C12         0.7520   -0.7730    1.1360 c3        1 0JH     -0.010000
     13 C13         1.6800   -0.6960    2.3380 c2        1 0JH      0.317000
     14 O14         2.3320   -1.8700    2.8100 os        1 0JH     -0.273000
     15 C15         3.1650   -1.6510    3.9550 c3        1 0JH      0.101000
     16 C16         3.8290   -2.9760    4.3660 c3        1 0JH     -0.232333
     17 C17         4.2500   -0.6200    3.6100 c3        1 0JH     -0.232333
     18 C18         2.3120   -1.1260    5.1150 c3        1 0JH     -0.232333
     19 O19         1.8310    0.3610    2.9220 o         1 0JH     -0.343000
     20 C20         1.2130   -1.8740    0.2150 c1        1 0JH     -0.135000
     21 N21         1.5630   -2.7100   -0.4840 n1        1 0JH     -0.023000
     22 C22        -1.4170    0.3930   -1.0800 c1        1 0JH     -0.066000
     23 C23        -2.6580    0.4640   -0.1790 c1        1 0JH     -0.035000
     24 C24        -3.0870    1.6920    0.3180 c2        1 0JH     -0.119000
     25 C25        -4.1820    1.7510    1.1760 c1        1 0JH     -0.133000
     26 C26        -4.8470    0.5820    1.5370 c1        1 0JH     -0.065000
     27 C27        -6.0240    0.6420    2.5110 c3        1 0JH     -0.182000
     28 C28        -4.4180   -0.6450    1.0400 c1        1 0JH     -0.135000
     29 C29        -3.3230   -0.7040    0.1810 c1        1 0JH     -0.124000
     30 N30        -0.4850    0.5260   -4.4730 n1        1 0JH     -0.214000
     31 C31        -1.6630    0.4770   -5.1760 c1        1 0JH      0.021000
     32 N32        -2.8610    0.4110   -4.5060 n1        1 0JH     -0.269000
     33 H1         -4.8630    0.0340   -2.7460 hn        1 0JH      0.230500
     34 H2         -4.6370    0.6420   -4.1980 hn        1 0JH      0.230500
     35 H3          1.8830   -0.4830   -3.2640 ha        1 0JH      0.113000
     36 H4          2.5050    0.2500   -1.9780 ha        1 0JH      0.113000
     37 H5          2.3340    2.3450   -3.0050 hc        1 0JH      0.108000
     38 H6          1.4900    1.7260   -4.2210 hc        1 0JH      0.108000
     39 H7          4.2830    1.5980   -3.8150 h1        1 0JH      0.064500
     40 H8          3.6060    0.3110   -4.5000 h1        1 0JH      0.064500
     41 H9          4.3110    1.9880   -5.9290 ho        1 0JH      0.202000
     42 H10         1.7010    0.7970    0.1750 ha        1 0JH      0.123000
     43 H11         0.3760    1.2580    0.9570 ha        1 0JH      0.123000
     44 H12        -0.1630   -0.9630    1.4410 hc        1 0JH      0.164000
     45 H13         3.1400   -3.6030    4.6820 hc        1 0JH      0.092333
     46 H14         4.2940   -3.3630    3.5910 hc        1 0JH      0.092333
     47 H15         4.4760   -2.8080    5.0870 hc        1 0JH      0.092333
     48 H16         3.9740    0.2670    3.9340 hc        1 0JH      0.092333
     49 H17         4.3740   -0.5890    2.6360 hc        1 0JH      0.092333
     50 H18         5.0970   -0.8790    4.0400 hc        1 0JH      0.092333
     51 H19         2.2930   -0.1430    5.0900 hc        1 0JH      0.092333
     52 H20         1.3960   -1.4730    5.0320 hc        1 0JH      0.092333
     53 H21         2.6990   -1.4240    5.9690 hc        1 0JH      0.092333
     54 H22        -2.6180    2.5160    0.0640 ha        1 0JH      0.140000
     55 H23        -4.4850    2.6170    1.5270 ha        1 0JH      0.136000
     56 H24        -6.0220    1.5090    2.9730 hc        1 0JH      0.086333
     57 H25        -5.9400   -0.0800    3.1710 hc        1 0JH      0.086333
     58 H26        -6.8660    0.5370    2.0150 hc        1 0JH      0.086333
     59 H27        -4.8870   -1.4680    1.2940 ha        1 0JH      0.136000
     60 H28        -3.0200   -1.5690   -0.1690 ha        1 0JH      0.147000
     61 H29        -1.6490    0.4900   -6.1580 ha        1 0JH      0.187000
@<TRIPOS>BOND
     1    1    2 1   
     2    1   33 1   
     3    1   34 1   
     4    2   32 1   
     5    3    4 1   
     6    5   10 1   
     7    6    7 1   
     8    6   35 1   
     9    6   36 1   
    10    7    8 1   
    11    7   37 1   
    12    7   38 1   
    13    8    9 1   
    14    8   39 1   
    15    8   40 1   
    16    9   41 1   
    17   10   22 1   
    18   11   12 1   
    19   11   42 1   
    20   11   43 1   
    21   12   13 1   
    22   12   20 1   
    23   12   44 1   
    24   13   14 1   
    25   13   19 1   
    26   14   15 1   
    27   15   16 1   
    28   15   17 1   
    29   15   18 1   
    30   16   45 1   
    31   16   46 1   
    32   16   47 1   
    33   17   48 1   
    34   17   49 1   
    35   17   50 1   
    36   18   51 1   
    37   18   52 1   
    38   18   53 1   
    39   20   21 1   
    40   23   24 1   
    41   23   29 1   
    42   24   25 1   
    43   24   54 1   
    44   25   55 1   
    45   26   27 1   
    46   26   28 1   
    47   27   56 1   
    48   27   57 1   
    49   27   58 1   
    50   28   59 1   
    51   29   60 1   
    52   30   31 1   
    53   31   61 1   
@<TRIPOS>SUBSTRUCTURE
     1 0JH         1 TEMP              0 ****  ****    0 ROOT
