@<TRIPOS>MOLECULE
0JH
   61    63     1     0     0
SMALL
bcc


@<TRIPOS>ATOM
      1 N01         3.6940    2.7170   -0.8250 nh        1 0JH     -0.952500
      2 C02         3.8620    1.3490   -0.8150 ca        1 0JH      0.736200
      3 C03         2.7680    0.4910   -0.4690 ca        1 0JH     -0.368400
      4 C04         3.0010   -0.9400   -0.5570 ca        1 0JH      0.480800
      5 N05         1.8140   -1.5970   -0.2060 na        1 0JH     -0.149100
      6 C06         1.6770   -3.0170   -0.0400 c3        1 0JH      0.037300
      7 C07         1.9720   -3.5290    1.3700 c3        1 0JH     -0.109400
      8 C08         1.8320   -5.0420    1.3890 c3        1 0JH      0.133400
      9 O09         2.0150   -5.4520    2.7350 oh        1 0JH     -0.598800
     10 C10         0.8640   -0.6160    0.1520 cc        1 0JH     -0.077300
     11 C11        -0.5070   -0.9310    0.6150 c3        1 0JH     -0.011200
     12 C12        -1.5370   -0.7910   -0.5090 c3        1 0JH     -0.047600
     13 C13        -2.9320   -0.7720    0.0960 c         1 0JH      0.646100
     14 O14        -3.7990   -0.0760   -0.6820 os        1 0JH     -0.434900
     15 C15        -5.1970    0.0540   -0.3050 c3        1 0JH      0.172800
     16 C16        -5.7850    0.8730   -1.4530 c3        1 0JH     -0.114433
     17 C17        -5.8590   -1.3110   -0.2320 c3        1 0JH     -0.114433
     18 C18        -5.3250    0.8090    1.0070 c3        1 0JH     -0.114433
     19 O19        -3.2820   -1.2780    1.1610 o         1 0JH     -0.531000
     20 C20        -1.4440   -1.8650   -1.4790 c1        1 0JH      0.217700
     21 N21        -1.3700   -2.7130   -2.2700 n1        1 0JH     -0.348800
     22 C22         1.4130    0.6650   -0.0140 cd        1 0JH     -0.042400
     23 C23         0.7400    1.9230    0.2340 ca        1 0JH     -0.046800
     24 C24         0.4850    2.8140   -0.8190 ca        1 0JH     -0.121500
     25 C25        -0.1660    4.0210   -0.5780 ca        1 0JH     -0.134000
     26 C26        -0.5740    4.3640    0.7160 ca        1 0JH     -0.072300
     27 C27        -1.2790    5.6410    0.9680 c3        1 0JH     -0.056800
     28 C28        -0.3160    3.4770    1.7680 ca        1 0JH     -0.134000
     29 C29         0.3320    2.2680    1.5310 ca        1 0JH     -0.121500
     30 N30         4.1990   -1.4880   -0.9420 nb        1 0JH     -0.741000
     31 C31         5.1370   -0.5620   -1.2280 ca        1 0JH      0.683900
     32 N32         5.0640    0.7980   -1.1860 nb        1 0JH     -0.795000
     33 H1          2.9010    3.0780   -0.3490 hn        1 0JH      0.435300
     34 H2          4.4920    3.3000   -0.9100 hn        1 0JH      0.435300
     35 H3          0.6200   -3.2970   -0.3210 h1        1 0JH      0.073700
     36 H4          2.3790   -3.5200   -0.7670 h1        1 0JH      0.073700
     37 H5          3.0110   -3.2490    1.6840 hc        1 0JH      0.068700
     38 H6          1.2630   -3.0810    2.1130 hc        1 0JH      0.068700
     39 H7          0.8120   -5.3520    1.0330 h1        1 0JH      0.025200
     40 H8          2.6070   -5.5190    0.7300 h1        1 0JH      0.025200
     41 H9          1.9720   -6.4150    2.7360 ho        1 0JH      0.403000
     42 H10        -0.5750   -1.9590    1.0630 hc        1 0JH      0.083700
     43 H11        -0.7770   -0.1970    1.4250 hc        1 0JH      0.083700
     44 H12        -1.3700    0.1920   -1.0470 hc        1 0JH      0.124700
     45 H13        -5.6520    0.3310   -2.4190 hc        1 0JH      0.053033
     46 H14        -6.8720    1.0330   -1.2660 hc        1 0JH      0.053033
     47 H15        -5.2720    1.8610   -1.5230 hc        1 0JH      0.053033
     48 H16        -5.4630   -1.8930    0.6350 hc        1 0JH      0.053033
     49 H17        -6.9600   -1.1820   -0.1080 hc        1 0JH      0.053033
     50 H18        -5.6640   -1.8830   -1.1700 hc        1 0JH      0.053033
     51 H19        -4.7420    1.7600    0.9620 hc        1 0JH      0.053033
     52 H20        -6.3990    1.0510    1.1920 hc        1 0JH      0.053033
     53 H21        -4.9430    0.1900    1.8550 hc        1 0JH      0.053033
     54 H22         0.8020    2.5540   -1.8410 ha        1 0JH      0.143500
     55 H23        -0.3620    4.7110   -1.4130 ha        1 0JH      0.136000
     56 H24        -2.3840    5.4900    0.8730 hc        1 0JH      0.047033
     57 H25        -1.0650    6.0210    1.9970 hc        1 0JH      0.047033
     58 H26        -0.9700    6.4230    0.2310 hc        1 0JH      0.047033
     59 H27        -0.6280    3.7380    2.7900 ha        1 0JH      0.136000
     60 H28         0.5340    1.5800    2.3660 ha        1 0JH      0.143500
     61 H29         6.1260   -0.9620   -1.5400 h5        1 0JH      0.050100
@<TRIPOS>BOND
     1    1    2 1   
     2    1   33 1   
     3    1   34 1   
     4    2    3 ar  
     5    2   32 ar  
     6    3    4 ar  
     7    3   22 1   
     8    4    5 1   
     9    4   30 ar  
    10    5    6 1   
    11    5   10 1   
    12    6    7 1   
    13    6   35 1   
    14    6   36 1   
    15    7    8 1   
    16    7   37 1   
    17    7   38 1   
    18    8    9 1   
    19    8   39 1   
    20    8   40 1   
    21    9   41 1   
    22   10   11 1   
    23   10   22 2   
    24   11   12 1   
    25   11   42 1   
    26   11   43 1   
    27   12   13 1   
    28   12   20 1   
    29   12   44 1   
    30   13   14 1   
    31   13   19 2   
    32   14   15 1   
    33   15   16 1   
    34   15   17 1   
    35   15   18 1   
    36   16   45 1   
    37   16   46 1   
    38   16   47 1   
    39   17   48 1   
    40   17   49 1   
    41   17   50 1   
    42   18   51 1   
    43   18   52 1   
    44   18   53 1   
    45   20   21 3   
    46   22   23 1   
    47   23   24 ar  
    48   23   29 ar  
    49   24   25 ar  
    50   24   54 1   
    51   25   26 ar  
    52   25   55 1   
    53   26   27 1   
    54   26   28 ar  
    55   27   56 1   
    56   27   57 1   
    57   27   58 1   
    58   28   29 ar  
    59   28   59 1   
    60   29   60 1   
    61   30   31 ar  
    62   31   32 ar  
    63   31   61 1   
@<TRIPOS>SUBSTRUCTURE
     1 0JH         1 TEMP              0 ****  ****    0 ROOT
