@<TRIPOS>MOLECULE
0JH
   61    63     1     0     0
SMALL
bcc


@<TRIPOS>ATOM
      1 N01        -0.0570   -0.3330    0.1530 nv        1 0JH     -0.952500
      2 C02         1.3100   -0.1700    0.0640 ca        1 0JH      0.736200
      3 C03         2.1070   -0.1100    1.2530 ca        1 0JH     -0.368400
      4 C04         3.5450   -0.0150    1.0760 ca        1 0JH      0.480800
      5 N05         4.1400    0.0070    2.3450 na        1 0JH     -0.149100
      6 C06         5.5370    0.2280    2.5950 c3        1 0JH      0.037300
      7 C07         5.9330    1.6960    2.7630 c3        1 0JH     -0.109400
      8 C08         7.4350    1.7840    2.9780 c3        1 0JH      0.133400
      9 O09         7.7320    3.1480    3.2270 oh        1 0JH     -0.598800
     10 C10         3.1090   -0.0140    3.3080 cc        1 0JH     -0.076300
     11 C11         3.3490    0.0330    4.7690 c3        1 0JH     -0.011200
     12 C12         3.2800   -1.3570    5.4050 c3        1 0JH     -0.047600
     13 C13         3.1660   -1.2080    6.9140 c         1 0JH      0.646100
     14 O14         2.5270   -2.2680    7.4700 os        1 0JH     -0.434900
     15 C15         2.3220   -2.3450    8.9070 c3        1 0JH      0.172800
     16 C16         1.6050   -3.6820    9.0790 c3        1 0JH     -0.114433
     17 C17         3.6560   -2.3590    9.6350 c3        1 0JH     -0.114433
     18 C18         1.4390   -1.2020    9.3790 c3        1 0JH     -0.114433
     19 O19         3.5570   -0.2600    7.5940 o         1 0JH     -0.532000
     20 C20         4.4390   -2.1680    5.0840 c1        1 0JH      0.217700
     21 N21         5.3560   -2.8320    4.8240 n1        1 0JH     -0.348800
     22 C22         1.8610   -0.1010    2.6710 cd        1 0JH     -0.042400
     23 C23         0.5690   -0.1630    3.3240 ca        1 0JH     -0.046800
     24 C24        -0.2340   -1.3070    3.2080 ca        1 0JH     -0.121500
     25 C25        -1.4720   -1.3660    3.8410 ca        1 0JH     -0.134000
     26 C26        -1.9350   -0.2850    4.6010 ca        1 0JH     -0.072300
     27 C27        -3.2590   -0.3430    5.2610 c3        1 0JH     -0.056800
     28 C28        -1.1350    0.8580    4.7160 ca        1 0JH     -0.134000
     29 C29         0.1050    0.9200    4.0860 ca        1 0JH     -0.121500
     30 N30         4.1550    0.0220   -0.1540 nb        1 0JH     -0.740000
     31 C31         3.2800   -0.0340   -1.1790 ca        1 0JH      0.683900
     32 N32         1.9200   -0.1170   -1.1640 nb        1 0JH     -0.795000
     33 H1         -0.6100   -0.2150   -0.6610 hn        1 0JH      0.435300
     34 H2         -0.4770   -0.1480    1.0340 hn        1 0JH      0.435300
     35 H3          6.1180   -0.2130    1.7340 h1        1 0JH      0.073700
     36 H4          5.8140   -0.3380    3.5320 h1        1 0JH      0.073700
     37 H5          5.6530    2.2880    1.8540 hc        1 0JH      0.068700
     38 H6          5.4050    2.1530    3.6390 hc        1 0JH      0.068700
     39 H7          7.9860    1.4280    2.0660 h1        1 0JH      0.025200
     40 H8          7.7490    1.1590    3.8580 h1        1 0JH      0.025200
     41 H9          8.6900    3.2080    3.3170 ho        1 0JH      0.403000
     42 H10         2.5410    0.6660    5.2330 hc        1 0JH      0.083700
     43 H11         4.3320    0.5150    5.0190 hc        1 0JH      0.083700
     44 H12         2.3550   -1.8940    5.0310 hc        1 0JH      0.124700
     45 H13         1.3970   -3.8470   10.1620 hc        1 0JH      0.053033
     46 H14         0.6430   -3.6770    8.5140 hc        1 0JH      0.053033
     47 H15         2.2420   -4.5120    8.6930 hc        1 0JH      0.053033
     48 H16         4.1610   -1.3670    9.5490 hc        1 0JH      0.053033
     49 H17         3.4860   -2.5860   10.7140 hc        1 0JH      0.053033
     50 H18         4.3220   -3.1420    9.2000 hc        1 0JH      0.053033
     51 H19         0.5140   -1.1500    8.7570 hc        1 0JH      0.053033
     52 H20         1.1520   -1.3720   10.4440 hc        1 0JH      0.053033
     53 H21         1.9820   -0.2290    9.3020 hc        1 0JH      0.053033
     54 H22         0.1220   -2.1630    2.6120 ha        1 0JH      0.143500
     55 H23        -2.0910   -2.2710    3.7470 ha        1 0JH      0.136000
     56 H24        -3.5310   -1.3960    5.5210 hc        1 0JH      0.046700
     57 H25        -3.2650    0.2660    6.1990 hc        1 0JH      0.046700
     58 H26        -4.0450    0.0620    4.5750 hc        1 0JH      0.046700
     59 H27        -1.4890    1.7140    5.3100 ha        1 0JH      0.136000
     60 H28         0.7250    1.8250    4.1800 ha        1 0JH      0.143500
     61 H29         3.7300   -0.0000   -2.1950 h5        1 0JH      0.050100
@<TRIPOS>BOND
     1    1    2 1   
     2    1   33 1   
     3    1   34 1   
     4    2    3 ar  
     5    2   32 ar  
     6    3    4 ar  
     7    3   22 1   
     8    4    5 1   
     9    4   30 ar  
    10    5    6 1   
    11    5   10 1   
    12    6    7 1   
    13    6   35 1   
    14    6   36 1   
    15    7    8 1   
    16    7   37 1   
    17    7   38 1   
    18    8    9 1   
    19    8   39 1   
    20    8   40 1   
    21    9   41 1   
    22   10   11 1   
    23   10   22 2   
    24   11   12 1   
    25   11   42 1   
    26   11   43 1   
    27   12   13 1   
    28   12   20 1   
    29   12   44 1   
    30   13   14 1   
    31   13   19 2   
    32   14   15 1   
    33   15   16 1   
    34   15   17 1   
    35   15   18 1   
    36   16   45 1   
    37   16   46 1   
    38   16   47 1   
    39   17   48 1   
    40   17   49 1   
    41   17   50 1   
    42   18   51 1   
    43   18   52 1   
    44   18   53 1   
    45   20   21 3   
    46   22   23 1   
    47   23   24 ar  
    48   23   29 ar  
    49   24   25 ar  
    50   24   54 1   
    51   25   26 ar  
    52   25   55 1   
    53   26   27 1   
    54   26   28 ar  
    55   27   56 1   
    56   27   57 1   
    57   27   58 1   
    58   28   29 ar  
    59   28   59 1   
    60   29   60 1   
    61   30   31 ar  
    62   31   32 ar  
    63   31   61 1   
@<TRIPOS>SUBSTRUCTURE
     1 0JH         1 TEMP              0 ****  ****    0 ROOT
