@<TRIPOS>MOLECULE
0JJ
   45    49     1     0     0
SMALL
bcc


@<TRIPOS>ATOM
      1 C7         -0.9590   -0.2400    1.9500 c3        1 0JJ     -0.130400
      2 C5          0.4790   -0.4690    1.6710 cc        1 0JJ      0.365600
      3 C6          1.5080   -0.1520    2.6460 cc        1 0JJ     -0.222300
      4 N2          0.9520   -0.9620    0.5270 nd        1 0JJ     -0.519100
      5 S1          2.5740   -1.0590    0.5730 ss        1 0JJ      0.245200
      6 C4          2.7630   -0.4430    2.1400 cd        1 0JJ     -0.189600
      7 C3          4.0300   -0.2510    2.8180 cd        1 0JJ      0.479800
      8 C1          5.2290   -0.1120    2.0050 cd        1 0JJ     -0.235300
      9 C2          6.4360    0.0900    2.6070 cc        1 0JJ     -0.027000
     10 N1          4.0390   -0.2000    4.1610 nc        1 0JJ     -0.451800
     11 N3          5.2110    0.0030    4.7410 na        1 0JJ      0.092300
     12 C8          6.4660    0.1590    4.0380 cc        1 0JJ     -0.124300
     13 N4          7.4530    0.3510    4.9740 nd        1 0JJ     -0.052000
     14 N5          6.9180    0.3270    6.1670 nd        1 0JJ     -0.339700
     15 C9          5.5630    0.1160    6.1070 cc        1 0JJ      0.285800
     16 C10         4.6020    0.0270    7.2600 c3        1 0JJ      0.209500
     17 N6          3.9620    1.2630    7.6040 nu        1 0JJ     -0.732600
     18 C11         2.7820    1.6910    7.0090 ca        1 0JJ      0.177300
     19 C12         1.8580    0.8190    6.4320 ca        1 0JJ     -0.341300
     20 C13         0.6180    1.3170    5.9590 ca        1 0JJ      0.447200
     21 N7          0.2360    2.5830    6.0030 nb        1 0JJ     -0.692000
     22 C15         1.1220    3.4880    6.5470 ca        1 0JJ      0.349300
     23 C16         0.7590    4.8710    6.6090 ca        1 0JJ     -0.184300
     24 C14         2.4130    3.1070    7.0600 ca        1 0JJ      0.218300
     25 N8          3.2870    4.0320    7.5810 nb        1 0JJ     -0.636000
     26 C18         2.9290    5.3010    7.6210 ca        1 0JJ      0.355200
     27 C17         1.6610    5.7720    7.1450 ca        1 0JJ      0.014800
     28 O1          1.2650    7.0920    7.1800 os        1 0JJ     -0.315900
     29 C19         2.1920    8.0100    7.7500 c3        1 0JJ      0.110700
     30 H1         -1.5590   -1.1590    1.7310 hc        1 0JJ      0.061033
     31 H2         -1.0950    0.0340    3.0250 hc        1 0JJ      0.061033
     32 H3         -1.3470    0.5940    1.3130 hc        1 0JJ      0.061033
     33 H4          1.2880    0.2630    3.6340 ha        1 0JJ      0.184000
     34 H5          5.1260   -0.1690    0.9120 ha        1 0JJ      0.163000
     35 H6          7.3800    0.2050    2.0540 ha        1 0JJ      0.176000
     36 H7          3.8370   -0.7700    7.0400 h1        1 0JJ      0.088200
     37 H8          5.1960   -0.2980    8.1680 h1        1 0JJ      0.088200
     38 H9          4.5980    1.9840    7.8810 hn        1 0JJ      0.445800
     39 H10         2.0550   -0.2560    6.3260 ha        1 0JJ      0.151000
     40 H11        -0.1120    0.6100    5.5180 h4        1 0JJ      0.016100
     41 H12        -0.2200    5.2050    6.2340 ha        1 0JJ      0.172000
     42 H13         3.6700    6.0010    8.0470 h4        1 0JJ      0.029100
     43 H14         3.1380    8.0350    7.1560 h1        1 0JJ      0.048367
     44 H15         2.4010    7.7510    8.8160 h1        1 0JJ      0.048367
     45 H16         1.6570    8.9910    7.6800 h1        1 0JJ      0.048367
@<TRIPOS>BOND
     1    1    2 1   
     2    1   30 1   
     3    1   31 1   
     4    1   32 1   
     5    2    3 1   
     6    2    4 2   
     7    3    6 2   
     8    3   33 1   
     9    4    5 1   
    10    5    6 1   
    11    6    7 1   
    12    7    8 1   
    13    7   10 2   
    14    8    9 2   
    15    8   34 1   
    16    9   12 1   
    17    9   35 1   
    18   10   11 1   
    19   11   12 1   
    20   11   15 1   
    21   12   13 2   
    22   13   14 1   
    23   14   15 2   
    24   15   16 1   
    25   16   17 1   
    26   16   36 1   
    27   16   37 1   
    28   17   18 1   
    29   17   38 1   
    30   18   19 ar  
    31   18   24 ar  
    32   19   20 ar  
    33   19   39 1   
    34   20   21 ar  
    35   20   40 1   
    36   21   22 ar  
    37   22   23 ar  
    38   22   24 ar  
    39   23   27 ar  
    40   23   41 1   
    41   24   25 ar  
    42   25   26 ar  
    43   26   27 ar  
    44   26   42 1   
    45   27   28 1   
    46   28   29 1   
    47   29   43 1   
    48   29   44 1   
    49   29   45 1   
@<TRIPOS>SUBSTRUCTURE
     1 0JJ         1 TEMP              0 ****  ****    0 ROOT
