@<TRIPOS>MOLECULE
0JJ
   46    50     1     0     0
SMALL
bcc


@<TRIPOS>ATOM
      1 C7          0.3500   -1.7970   -0.6620 c3        1 0JJ     -0.134400
      2 C5          1.7580   -1.3580   -0.5050 cc        1 0JJ      0.370600
      3 C6          2.3300   -1.0520    0.7930 cc        1 0JJ     -0.206300
      4 N2          2.6170   -1.2180   -1.5160 nd        1 0JJ     -0.504100
      5 S1          4.0680   -0.7470   -0.9810 ss        1 0JJ      0.302200
      6 C4          3.6630   -0.6860    0.6620 cd        1 0JJ     -0.238600
      7 C3          4.5700   -0.3170    1.7260 cd        1 0JJ      0.533800
      8 C1          5.9940   -0.2930    1.4300 cd        1 0JJ     -0.221300
      9 C2          6.8930    0.0500    2.4010 cc        1 0JJ     -0.018000
     10 N1          4.0670   -0.0100    2.9400 nc        1 0JJ     -0.497800
     11 N3          4.9470    0.3240    3.8740 na        1 0JJ      0.140300
     12 C8          6.3730    0.3780    3.6950 cc        1 0JJ     -0.096300
     13 N4          6.9460    0.7580    4.9000 nd        1 0JJ     -0.021000
     14 N5          6.0100    0.9180    5.7770 nd        1 0JJ     -0.324700
     15 C9          4.7620    0.6690    5.2290 cc        1 0JJ      0.181800
     16 C10         3.4680    0.7190    5.9520 c3        1 0JJ      0.148500
     17 N6          3.3550    2.0210    6.6880 n4        1 0JJ     -0.632400
     18 C11         2.0880    2.2150    7.4010 ca        1 0JJ     -0.040700
     19 C12         1.1170    1.2420    7.4860 ca        1 0JJ     -0.201300
     20 C13        -0.0810    1.5410    8.2180 ca        1 0JJ      0.425200
     21 N7         -0.3230    2.6850    8.8220 nb        1 0JJ     -0.590000
     22 C15         0.6360    3.6750    8.7530 ca        1 0JJ      0.342300
     23 C16         0.4170    4.9290    9.3980 ca        1 0JJ     -0.163300
     24 C14         1.8790    3.4960    8.0450 ca        1 0JJ      0.246300
     25 N8          2.8370    4.4790    7.9750 nb        1 0JJ     -0.682000
     26 C18         2.6080    5.6290    8.5820 ca        1 0JJ      0.407200
     27 C17         1.4010    5.9040    9.3140 ca        1 0JJ      0.041800
     28 O1          1.1420    7.0880    9.9500 os        1 0JJ     -0.293900
     29 C19         2.1570    8.0920    9.8850 c3        1 0JJ      0.101700
     30 H1         -0.1130   -1.3560   -1.5800 hc        1 0JJ      0.066700
     31 H2          0.3110   -2.9120   -0.7490 hc        1 0JJ      0.066700
     32 H3         -0.2450   -1.4820    0.2300 hc        1 0JJ      0.066700
     33 H4          1.7600   -1.1190    1.7200 ha        1 0JJ      0.175000
     34 H5          6.3210   -0.5630    0.4120 ha        1 0JJ      0.182000
     35 H6          7.9830    0.0820    2.2420 ha        1 0JJ      0.197000
     36 H7          3.4250   -0.1160    6.7140 hx        1 0JJ      0.122700
     37 H8          2.5950    0.6270    5.2410 hx        1 0JJ      0.122700
     38 H9          3.4740    2.7970    6.0180 hn        1 0JJ      0.477800
     39 H10         1.2050    0.2450    7.0290 ha        1 0JJ      0.167000
     40 H11        -0.8700    0.7640    8.2930 h4        1 0JJ      0.061100
     41 H12        -0.5180    5.1170    9.9540 ha        1 0JJ      0.198000
     42 H13         3.4080    6.3910    8.5010 h4        1 0JJ      0.053100
     43 H14         1.7100    8.9330   10.4770 h1        1 0JJ      0.063033
     44 H15         2.3330    8.4020    8.8270 h1        1 0JJ      0.063033
     45 H16         3.0990    7.7290   10.3620 h1        1 0JJ      0.063033
     46 H62         4.1230    2.0910    7.3770 hn        1 0JJ      0.477800
@<TRIPOS>BOND
     1    1    2 1   
     2    1   30 1   
     3    1   31 1   
     4    1   32 1   
     5    2    3 1   
     6    2    4 2   
     7    3    6 2   
     8    3   33 1   
     9    4    5 1   
    10    5    6 1   
    11    6    7 1   
    12    7    8 1   
    13    7   10 2   
    14    8    9 2   
    15    8   34 1   
    16    9   12 1   
    17    9   35 1   
    18   10   11 1   
    19   11   12 1   
    20   11   15 1   
    21   12   13 2   
    22   13   14 1   
    23   14   15 2   
    24   15   16 1   
    25   16   17 1   
    26   16   36 1   
    27   16   37 1   
    28   17   18 1   
    29   17   38 1   
    30   17   46 1   
    31   18   19 ar  
    32   18   24 ar  
    33   19   20 ar  
    34   19   39 1   
    35   20   21 ar  
    36   20   40 1   
    37   21   22 ar  
    38   22   23 ar  
    39   22   24 ar  
    40   23   27 ar  
    41   23   41 1   
    42   24   25 ar  
    43   25   26 ar  
    44   26   27 ar  
    45   26   42 1   
    46   27   28 1   
    47   28   29 1   
    48   29   43 1   
    49   29   44 1   
    50   29   45 1   
@<TRIPOS>SUBSTRUCTURE
     1 0JJ         1 TEMP              0 ****  ****    0 ROOT
