@<TRIPOS>MOLECULE
0JJ
   45    49     1     0     0
SMALL
bcc


@<TRIPOS>ATOM
      1 C7         -1.0180   -0.2790    2.0410 c3        1 0JJ     -0.130400
      2 C5          0.4150   -0.5260    1.7480 cc        1 0JJ      0.365600
      3 C6          1.4580   -0.1970    2.7030 cc        1 0JJ     -0.222300
      4 N2          0.8690   -1.0500    0.6100 nd        1 0JJ     -0.519100
      5 S1          2.4910   -1.1600    0.6380 ss        1 0JJ      0.245200
      6 C4          2.7040   -0.5090    2.1880 cd        1 0JJ     -0.189600
      7 C3          3.9810   -0.3130    2.8460 cd        1 0JJ      0.479800
      8 C1          5.1710   -0.2020    2.0160 cd        1 0JJ     -0.235300
      9 C2          6.3880    0.0040    2.5970 cc        1 0JJ     -0.027000
     10 N1          4.0080   -0.2330    4.1870 nc        1 0JJ     -0.451800
     11 N3          5.1890   -0.0270    4.7480 na        1 0JJ      0.092300
     12 C8          6.4360    0.1040    4.0260 cc        1 0JJ     -0.124300
     13 N4          7.4360    0.3080    4.9460 nd        1 0JJ     -0.052000
     14 N5          6.9160    0.3140    6.1450 nd        1 0JJ     -0.339700
     15 C9          5.5590    0.1130    6.1070 cc        1 0JJ      0.285800
     16 C10         4.6120    0.0580    7.2740 c3        1 0JJ      0.209500
     17 N6          3.9870    1.3060    7.6000 nh        1 0JJ     -0.732600
     18 C11         2.8040    1.7330    7.0110 ca        1 0JJ      0.177300
     19 C12         1.8660    0.8580    6.4620 ca        1 0JJ     -0.341300
     20 C13         0.6240    1.3590    5.9940 ca        1 0JJ      0.447200
     21 N7          0.2550    2.6290    6.0180 nb        1 0JJ     -0.692000
     22 C15         1.1550    3.5360    6.5340 ca        1 0JJ      0.349300
     23 C16         0.8060    4.9230    6.5720 ca        1 0JJ     -0.184300
     24 C14         2.4490    3.1540    7.0380 ca        1 0JJ      0.218300
     25 N8          3.3370    4.0800    7.5310 nb        1 0JJ     -0.636000
     26 C18         2.9920    5.3530    7.5490 ca        1 0JJ      0.355200
     27 C17         1.7220    5.8260    7.0790 ca        1 0JJ      0.014800
     28 O1          1.3390    7.1500    7.0930 os        1 0JJ     -0.315900
     29 C19         2.2820    8.0710    7.6320 c3        1 0JJ      0.110700
     30 H1         -1.1380    0.0230    3.1100 hc        1 0JJ      0.061033
     31 H2         -1.4070    0.5430    1.3880 hc        1 0JJ      0.061033
     32 H3         -1.6270   -1.1980    1.8510 hc        1 0JJ      0.061033
     33 H4          1.2540    0.2430    3.6840 ha        1 0JJ      0.184000
     34 H5          5.0540   -0.2820    0.9250 ha        1 0JJ      0.163000
     35 H6          7.3250    0.0990    2.0300 ha        1 0JJ      0.176000
     36 H7          5.2140   -0.2550    8.1800 h1        1 0JJ      0.088200
     37 H8          3.8370   -0.7370    7.0790 h1        1 0JJ      0.088200
     38 H9          4.6340    2.0260    7.8550 hn        1 0JJ      0.445800
     39 H10         2.0520   -0.2200    6.3750 ha        1 0JJ      0.151000
     40 H11        -0.1170    0.6510    5.5760 h4        1 0JJ      0.016100
     41 H12        -0.1740    5.2590    6.2020 ha        1 0JJ      0.172000
     42 H13         3.7440    6.0540    7.9530 h4        1 0JJ      0.029100
     43 H14         3.2200    8.0740    7.0260 h1        1 0JJ      0.048367
     44 H15         1.7550    9.0560    7.5490 h1        1 0JJ      0.048367
     45 H16         2.5020    7.8320    8.7010 h1        1 0JJ      0.048367
@<TRIPOS>BOND
     1    1    2 1   
     2    1   30 1   
     3    1   31 1   
     4    1   32 1   
     5    2    3 1   
     6    2    4 2   
     7    3    6 2   
     8    3   33 1   
     9    4    5 1   
    10    5    6 1   
    11    6    7 1   
    12    7    8 1   
    13    7   10 2   
    14    8    9 2   
    15    8   34 1   
    16    9   12 1   
    17    9   35 1   
    18   10   11 1   
    19   11   12 1   
    20   11   15 1   
    21   12   13 2   
    22   13   14 1   
    23   14   15 2   
    24   15   16 1   
    25   16   17 1   
    26   16   36 1   
    27   16   37 1   
    28   17   18 1   
    29   17   38 1   
    30   18   19 ar  
    31   18   24 ar  
    32   19   20 ar  
    33   19   39 1   
    34   20   21 ar  
    35   20   40 1   
    36   21   22 ar  
    37   22   23 ar  
    38   22   24 ar  
    39   23   27 ar  
    40   23   41 1   
    41   24   25 ar  
    42   25   26 ar  
    43   26   27 ar  
    44   26   42 1   
    45   27   28 1   
    46   28   29 1   
    47   29   43 1   
    48   29   44 1   
    49   29   45 1   
@<TRIPOS>SUBSTRUCTURE
     1 0JJ         1 TEMP              0 ****  ****    0 ROOT
