@<TRIPOS>MOLECULE
0JJ
   45    49     1     0     0
SMALL
bcc


@<TRIPOS>ATOM
      1 C7          2.1770   -3.9890    2.7080 c3        1 0JJ     -0.130400
      2 C5          2.9190   -2.8890    2.0450 cc        1 0JJ      0.365600
      3 C6          2.2440   -1.7030    1.5480 cc        1 0JJ     -0.222300
      4 N2          4.2360   -2.8880    1.8400 nd        1 0JJ     -0.519100
      5 S1          4.6950   -1.5290    1.0750 ss        1 0JJ      0.245200
      6 C4          3.1520   -0.8370    0.9620 cd        1 0JJ     -0.189600
      7 C3          2.8500    0.4400    0.3470 cd        1 0JJ      0.479800
      8 C1          3.7800    0.9630   -0.6430 cd        1 0JJ     -0.235300
      9 C2          3.5190    2.1520   -1.2580 cc        1 0JJ     -0.027000
     10 N1          1.7240    1.0780    0.7090 nc        1 0JJ     -0.451800
     11 N3          1.4700    2.2280    0.1060 na        1 0JJ      0.092300
     12 C8          2.3170    2.8420   -0.8940 cc        1 0JJ     -0.124300
     13 N4          1.7250    4.0190   -1.2820 nd        1 0JJ     -0.052000
     14 N5          0.6100    4.1740   -0.6200 nd        1 0JJ     -0.339700
     15 C9          0.3890    3.1310    0.2450 cc        1 0JJ      0.285800
     16 C10        -0.7810    2.9460    1.1730 c3        1 0JJ      0.209500
     17 N6         -1.8560    2.1640    0.6350 nh        1 0JJ     -0.732600
     18 C11        -1.9060    0.7800    0.7390 ca        1 0JJ      0.177300
     19 C12        -1.2520    0.0670    1.7450 ca        1 0JJ     -0.341300
     20 C13        -1.4550   -1.3320    1.8630 ca        1 0JJ      0.447200
     21 N7         -2.2260   -2.0610    1.0740 nb        1 0JJ     -0.692000
     22 C15        -2.8800   -1.4050    0.0530 ca        1 0JJ      0.349300
     23 C16        -3.7190   -2.1520   -0.8340 ca        1 0JJ     -0.184300
     24 C14        -2.7550    0.0110   -0.1730 ca        1 0JJ      0.218300
     25 N8         -3.4030    0.6400   -1.2110 nb        1 0JJ     -0.636000
     26 C18        -4.1660   -0.0740   -2.0160 ca        1 0JJ      0.355200
     27 C17        -4.3600   -1.4860   -1.8630 ca        1 0JJ      0.014800
     28 O1         -5.1550   -2.2500   -2.6890 os        1 0JJ     -0.315900
     29 C19        -5.8240   -1.5530   -3.7360 c3        1 0JJ      0.110700
     30 H1          1.1220   -3.6720    2.8950 hc        1 0JJ      0.061033
     31 H2          2.1700   -4.8960    2.0520 hc        1 0JJ      0.061033
     32 H3          2.6540   -4.2610    3.6820 hc        1 0JJ      0.061033
     33 H4          1.1650   -1.5480    1.6340 ha        1 0JJ      0.184000
     34 H5          4.6790    0.3730   -0.8750 ha        1 0JJ      0.163000
     35 H6          4.1780    2.6030   -2.0150 ha        1 0JJ      0.176000
     36 H7         -0.4130    2.5060    2.1420 h1        1 0JJ      0.088200
     37 H8         -1.2010    3.9740    1.3910 h1        1 0JJ      0.088200
     38 H9         -2.2660    2.5560   -0.1890 hn        1 0JJ      0.445800
     39 H10        -0.5750    0.5510    2.4610 ha        1 0JJ      0.151000
     40 H11        -0.9420   -1.8820    2.6750 h4        1 0JJ      0.016100
     41 H12        -3.8490   -3.2360   -0.6940 ha        1 0JJ      0.172000
     42 H13        -4.6600    0.4810   -2.8330 h4        1 0JJ      0.029100
     43 H14        -6.5140   -0.7800   -3.3180 h1        1 0JJ      0.048367
     44 H15        -5.0870   -1.0890   -4.4350 h1        1 0JJ      0.048367
     45 H16        -6.4030   -2.3610   -4.2520 h1        1 0JJ      0.048367
@<TRIPOS>BOND
     1    1    2 1   
     2    1   30 1   
     3    1   31 1   
     4    1   32 1   
     5    2    3 1   
     6    2    4 2   
     7    3    6 2   
     8    3   33 1   
     9    4    5 1   
    10    5    6 1   
    11    6    7 1   
    12    7    8 1   
    13    7   10 2   
    14    8    9 2   
    15    8   34 1   
    16    9   12 1   
    17    9   35 1   
    18   10   11 1   
    19   11   12 1   
    20   11   15 1   
    21   12   13 2   
    22   13   14 1   
    23   14   15 2   
    24   15   16 1   
    25   16   17 1   
    26   16   36 1   
    27   16   37 1   
    28   17   18 1   
    29   17   38 1   
    30   18   19 ar  
    31   18   24 ar  
    32   19   20 ar  
    33   19   39 1   
    34   20   21 ar  
    35   20   40 1   
    36   21   22 ar  
    37   22   23 ar  
    38   22   24 ar  
    39   23   27 ar  
    40   23   41 1   
    41   24   25 ar  
    42   25   26 ar  
    43   26   27 ar  
    44   26   42 1   
    45   27   28 1   
    46   28   29 1   
    47   29   43 1   
    48   29   44 1   
    49   29   45 1   
@<TRIPOS>SUBSTRUCTURE
     1 0JJ         1 TEMP              0 ****  ****    0 ROOT
