@<TRIPOS>MOLECULE
0JJ
   45    38     1     0     0
SMALL
bcc


@<TRIPOS>ATOM
      1 C7         -8.1990   -0.3740    1.9780 c3        1 0JJ     -0.154000
      2 C5         -7.2110   -0.0330    0.8810 c2        1 0JJ     -0.055000
      3 C6         -5.8370    0.6850    1.0790 c1        1 0JJ     -0.184000
      4 N2         -7.3760   -0.3140   -0.5180 n2        1 0JJ     -0.315000
      5 S1         -6.1740    0.1890   -1.2330 ss        1 0JJ      0.622000
      6 C4         -5.2260    0.8140   -0.1760 c1        1 0JJ     -0.358000
      7 C3         -3.9220    1.5270   -0.4610 c1        1 0JJ      0.046000
      8 C1         -4.2640    2.7770   -0.9240 c2        1 0JJ     -0.162000
      9 C2         -3.3120    3.5880   -1.4590 c1        1 0JJ     -0.028000
     10 N1         -2.6350    1.1030   -0.5380 n1        1 0JJ     -0.037000
     11 N3         -1.6600    1.9320   -1.0860 n1        1 0JJ     -0.064000
     12 C8         -1.9910    3.1520   -1.5380 c1        1 0JJ     -0.101000
     13 N4         -0.8620    3.7460   -2.0090 n1        1 0JJ     -0.048000
     14 N5          0.1640    2.8840   -1.8430 n2        1 0JJ     -0.056000
     15 C9         -0.3210    1.7630   -1.2740 c1        1 0JJ     -0.109000
     16 C10         0.9390    0.9900   -1.6130 c2        1 0JJ      0.044000
     17 N6          1.4510    0.3780   -0.4350 n3        1 0JJ     -0.278000
     18 C11         2.4440   -0.6320   -0.5340 c2        1 0JJ      0.157000
     19 C12         1.5640   -1.6670   -0.6870 c2        1 0JJ     -0.285000
     20 C13         1.9980   -2.9800   -0.5210 c1        1 0JJ     -0.009000
     21 N7          3.3020   -3.2340   -0.2050 n1        1 0JJ     -0.170000
     22 C15         4.1950   -2.1870   -0.0490 c1        1 0JJ      0.029000
     23 C16         5.5150   -2.4440    0.2940 c2        1 0JJ     -0.173000
     24 C14         3.7700   -0.8900   -0.2130 c1        1 0JJ     -0.109000
     25 N8          4.6580    0.1580   -0.0350 n1        1 0JJ     -0.110000
     26 C18         5.9560   -0.0950    0.3030 c1        1 0JJ     -0.065000
     27 C17         6.3900   -1.4080    0.4690 c1        1 0JJ      0.041000
     28 O1          7.6380   -1.8670    0.9270 os        1 0JJ     -0.200000
     29 C19         7.6360   -2.2800    2.2760 c3        1 0JJ     -0.080000
     30 H1         -8.9240   -0.9210    1.6060 hc        1 0JJ      0.098667
     31 H2         -7.7420   -0.8760    2.6860 hc        1 0JJ      0.098667
     32 H3         -8.5710    0.4520    2.3520 hc        1 0JJ      0.098667
     33 H4         -5.4680    0.9900    1.9290 DU        1 0JJ      0.169000
     34 H5         -5.1830    3.0960   -0.8350 ha        1 0JJ      0.163000
     35 H6         -3.5530    4.4750   -1.7880 ha        1 0JJ      0.176000
     36 H7          1.6090    1.6030   -1.9810 h4        1 0JJ      0.125500
     37 H8          0.7300    0.2990   -2.2760 h4        1 0JJ      0.125500
     38 H9          1.1620    0.6540    0.3850 hn        1 0JJ      0.244000
     39 H10         0.6330   -1.4870   -0.9130 ha        1 0JJ      0.149000
     40 H11         1.3700   -3.7190   -0.6300 ha        1 0JJ      0.157000
     41 H12         5.8190   -3.3640    0.4110 ha        1 0JJ      0.161000
     42 H13         6.5810    0.6440    0.4280 ha        1 0JJ      0.178000
     43 H14         6.7690   -2.6860    2.4920 h1        1 0JJ      0.089000
     44 H15         7.7870   -1.5030    2.8570 h1        1 0JJ      0.089000
     45 H16         8.3500   -2.9390    2.4180 h1        1 0JJ      0.089000
@<TRIPOS>BOND
     1    1    2 1   
     2    1   30 1   
     3    1   31 1   
     4    1   32 1   
     5    2    3 1   
     6    2    4 1   
     7    3    6 1   
     8    4    5 1   
     9    5    6 1   
    10    7    8 1   
    11    7   10 1   
    12    8    9 1   
    13    8   34 1   
    14    9   35 1   
    15   11   12 1   
    16   13   14 1   
    17   14   15 1   
    18   16   17 1   
    19   16   36 1   
    20   16   37 1   
    21   17   18 1   
    22   17   38 1   
    23   18   19 1   
    24   18   24 1   
    25   19   20 1   
    26   19   39 1   
    27   20   40 1   
    28   21   22 1   
    29   22   23 1   
    30   23   27 1   
    31   23   41 1   
    32   25   26 1   
    33   26   42 1   
    34   27   28 1   
    35   28   29 1   
    36   29   43 1   
    37   29   44 1   
    38   29   45 1   
@<TRIPOS>SUBSTRUCTURE
     1 0JJ         1 TEMP              0 ****  ****    0 ROOT
