@<TRIPOS>MOLECULE
0JK
   44    38     1     0     0
SMALL
bcc


@<TRIPOS>ATOM
      1 C18        -0.3570   -1.6210    3.2490 c1        1 0JK     -0.090500
      2 C17        -0.1080   -2.1470    4.5380 c1        1 0JK     -0.040500
      3 C21        -1.1660   -2.4110    5.4000 c1        1 0JK     -0.128000
      4 C20        -0.9260   -2.9700    6.6230 c1        1 0JK     -0.128000
      5 C19         0.3820   -3.2760    7.0070 c1        1 0JK     -0.047000
      6 N5          1.4220   -3.0170    6.1590 n1        1 0JK     -0.133000
      7 C16         1.1820   -2.4510    4.9190 c1        1 0JK     -0.040500
      8 C15         2.2510   -2.2360    4.0230 c1        1 0JK     -0.090500
      9 C14         2.0030   -1.7180    2.7550 c1        1 0JK     -0.106000
     10 C13         0.6980   -1.4100    2.3680 c1        1 0JK     -0.117000
     11 C12         0.5840   -1.0240    0.8850 c2        1 0JK      0.024000
     12 N4         -0.0050    0.2970    0.7720 n3        1 0JK     -0.102000
     13 C10        -0.2850    0.9450   -0.3780 c1        1 0JK     -0.155000
     14 C11         0.1020    0.7040   -1.9020 c1        1 0JK      0.398000
     15 O1          0.3760   -0.4140   -2.2880 o         1 0JK     -0.356000
     16 N3         -0.3960    1.1110    1.8320 n2        1 0JK      0.010000
     17 N2         -0.9290    2.2900    1.3010 n2        1 0JK     -0.082000
     18 C9         -0.8700    2.2070   -0.0400 c1        1 0JK     -0.122000
     19 C8         -0.9250    3.2960   -1.1620 c2        1 0JK     -0.097000
     20 C7         -0.2430    2.9850   -2.3800 c3        1 0JK     -0.018000
     21 N1         -0.2790    1.6580   -2.7990 n3        1 0JK     -0.285000
     22 C4         -0.2770    1.3500   -4.2230 c2        1 0JK      0.054000
     23 C3         -1.4750    1.1070   -4.8830 c2        1 0JK     -0.143000
     24 C2         -1.4790    0.8810   -6.2560 c1        1 0JK     -0.121000
     25 C1         -0.2880    0.8990   -6.9660 c1        1 0JK     -0.128000
     26 C6          0.9100    1.1430   -6.3070 c1        1 0JK     -0.128000
     27 C5          0.9150    1.3690   -4.9340 c1        1 0JK     -0.123000
     28 H1         -1.2660   -1.4070    2.9780 ha        1 0JK      0.150000
     29 H2         -2.0750   -2.1980    5.1340 ha        1 0JK      0.140000
     30 H3         -1.6650   -3.1550    7.2260 ha        1 0JK      0.140000
     31 H4          0.5530   -3.6760    7.8820 ha        1 0JK      0.160000
     32 H5          3.1630   -2.4510    4.2920 ha        1 0JK      0.150000
     33 H6          2.7420   -1.5700    2.1370 ha        1 0JK      0.157000
     34 H7          0.0200   -1.6730    0.4220 h4        1 0JK      0.134000
     35 H8          1.4730   -1.0190    0.4810 h4        1 0JK      0.134000
     36 H9         -1.8650    3.4640   -1.3750 ha        1 0JK      0.116000
     37 H10        -0.5390    4.1260   -0.8010 ha        1 0JK      0.116000
     38 H11         0.6960    3.2410   -2.2750 h1        1 0JK      0.096500
     39 H12        -0.6300    3.5360   -3.0920 h1        1 0JK      0.096500
     40 H13        -2.3160    1.0940   -4.3820 ha        1 0JK      0.136000
     41 H14        -2.3220    0.7090   -6.7200 ha        1 0JK      0.135000
     42 H15        -0.2910    0.7400   -7.9350 ha        1 0JK      0.140000
     43 H16         1.7510    1.1560   -6.8090 ha        1 0JK      0.140000
     44 H17         1.7530    1.5390   -4.4730 ha        1 0JK      0.153000
@<TRIPOS>BOND
     1    1    2 1   
     2    1   28 1   
     3    2    7 1   
     4    3    4 1   
     5    3   29 1   
     6    4   30 1   
     7    5    6 1   
     8    5   31 1   
     9    7    8 1   
    10    8   32 1   
    11    9   10 1   
    12    9   33 1   
    13   11   12 1   
    14   11   34 1   
    15   11   35 1   
    16   12   13 1   
    17   12   16 1   
    18   13   18 1   
    19   14   15 1   
    20   14   21 1   
    21   16   17 1   
    22   17   18 1   
    23   19   20 1   
    24   19   36 1   
    25   19   37 1   
    26   20   21 1   
    27   20   38 1   
    28   20   39 1   
    29   21   22 1   
    30   22   23 1   
    31   22   27 1   
    32   23   24 1   
    33   23   40 1   
    34   24   41 1   
    35   25   26 1   
    36   25   42 1   
    37   26   43 1   
    38   27   44 1   
@<TRIPOS>SUBSTRUCTURE
     1 0JK         1 TEMP              0 ****  ****    0 ROOT
