@<TRIPOS>MOLECULE
0JK
   44    48     1     0     0
SMALL
bcc


@<TRIPOS>ATOM
      1 C18         0.0190    0.0970    0.0630 ca        1 0JK     -0.076000
      2 C17         1.4270   -0.0580    0.0700 ca        1 0JK     -0.157300
      3 C21         2.1910    0.0490    1.2690 ca        1 0JK     -0.074000
      4 C20         3.5510   -0.1120    1.2170 ca        1 0JK     -0.252300
      5 C19         4.1570   -0.3830   -0.0520 ca        1 0JK      0.417200
      6 N5          3.4930   -0.4900   -1.1880 nb        1 0JK     -0.658000
      7 C16         2.1190   -0.3290   -1.1510 ca        1 0JK      0.404600
      8 C15         1.3560   -0.4300   -2.3580 ca        1 0JK     -0.169300
      9 C14        -0.0070   -0.2730   -2.3330 ca        1 0JK     -0.106000
     10 C13        -0.6860   -0.0150   -1.1140 ca        1 0JK     -0.125300
     11 C12        -2.1800    0.1080   -1.1310 c3        1 0JK      0.090600
     12 N4         -2.6530    1.4850   -1.1510 na        1 0JK      0.112400
     13 C10        -2.9360    2.2360   -2.2970 cc        1 0JK     -0.266200
     14 C11        -2.9400    1.8690   -3.7210 c         1 0JK      0.760100
     15 O1         -2.7680    0.6990   -4.1100 o         1 0JK     -0.630500
     16 N3         -2.8140    2.2780   -0.0690 nc        1 0JK     -0.158800
     17 N2         -3.1950    3.4520   -0.4060 nd        1 0JK     -0.344000
     18 C9         -3.2940    3.5140   -1.8040 cd        1 0JK      0.300600
     19 C8         -3.7010    4.5930   -2.7140 c3        1 0JK     -0.110700
     20 C7         -3.1440    4.3160   -4.1200 c3        1 0JK      0.095000
     21 N1         -3.2040    2.9390   -4.5830 n         1 0JK     -0.375000
     22 C4         -3.2640    2.7360   -5.9880 ca        1 0JK      0.052600
     23 C3         -3.9480    1.6230   -6.5240 ca        1 0JK     -0.142000
     24 C2         -4.0330    1.4530   -7.9020 ca        1 0JK     -0.114500
     25 C1         -3.4510    2.3740   -8.7710 ca        1 0JK     -0.139000
     26 C6         -2.7680    3.4720   -8.2510 ca        1 0JK     -0.114500
     27 C5         -2.6650    3.6570   -6.8750 ca        1 0JK     -0.142000
     28 H1         -0.4980    0.3120    1.0120 ha        1 0JK      0.145000
     29 H2          1.6710    0.2610    2.2160 ha        1 0JK      0.141000
     30 H3          4.1820   -0.0380    2.1120 ha        1 0JK      0.146000
     31 H4          5.2540   -0.5170   -0.1130 h4        1 0JK      0.023100
     32 H5          1.8790   -0.6330   -3.3060 ha        1 0JK      0.155000
     33 H6         -0.5970   -0.3400   -3.2640 ha        1 0JK      0.159000
     34 H7         -2.5960   -0.3880   -2.0590 h1        1 0JK      0.094200
     35 H8         -2.6110   -0.3970   -0.2180 h1        1 0JK      0.094200
     36 H9         -3.3120    5.5890   -2.3720 hc        1 0JK      0.077700
     37 H10        -4.8220    4.6550   -2.7430 hc        1 0JK      0.077700
     38 H11        -3.7270    4.9500   -4.8490 h1        1 0JK      0.056700
     39 H12        -2.0670    4.6550   -4.1420 h1        1 0JK      0.056700
     40 H13        -4.3980    0.8740   -5.8530 ha        1 0JK      0.144500
     41 H14        -4.5670    0.5790   -8.3050 ha        1 0JK      0.135500
     42 H15        -3.5260    2.2340   -9.8590 ha        1 0JK      0.135000
     43 H16        -2.2990    4.2000   -8.9300 ha        1 0JK      0.135500
     44 H17        -2.1070    4.5250   -6.4940 ha        1 0JK      0.144500
@<TRIPOS>BOND
     1    1    2 ar  
     2    1   10 ar  
     3    1   28 1   
     4    2    3 ar  
     5    2    7 ar  
     6    3    4 ar  
     7    3   29 1   
     8    4    5 ar  
     9    4   30 1   
    10    5    6 ar  
    11    5   31 1   
    12    6    7 ar  
    13    7    8 ar  
    14    8    9 ar  
    15    8   32 1   
    16    9   10 ar  
    17    9   33 1   
    18   10   11 1   
    19   11   12 1   
    20   11   34 1   
    21   11   35 1   
    22   12   13 1   
    23   12   16 1   
    24   13   14 1   
    25   13   18 2   
    26   14   15 2   
    27   14   21 1   
    28   16   17 2   
    29   17   18 1   
    30   18   19 1   
    31   19   20 1   
    32   19   36 1   
    33   19   37 1   
    34   20   21 1   
    35   20   38 1   
    36   20   39 1   
    37   21   22 1   
    38   22   23 ar  
    39   22   27 ar  
    40   23   24 ar  
    41   23   40 1   
    42   24   25 ar  
    43   24   41 1   
    44   25   26 ar  
    45   25   42 1   
    46   26   27 ar  
    47   26   43 1   
    48   27   44 1   
@<TRIPOS>SUBSTRUCTURE
     1 0JK         1 TEMP              0 ****  ****    0 ROOT
