@<TRIPOS>MOLECULE
0JK
   44    48     1     0     0
SMALL
bcc


@<TRIPOS>ATOM
      1 C18        -3.3550    0.7440   -0.6920 ca        1 0JK     -0.076000
      2 C17        -4.3060   -0.1870   -0.2050 ca        1 0JK     -0.157300
      3 C21        -5.6020    0.2170    0.2290 ca        1 0JK     -0.074000
      4 C20        -6.4820   -0.7280    0.6900 ca        1 0JK     -0.252300
      5 C19        -6.0600   -2.0960    0.7170 ca        1 0JK      0.417200
      6 N5         -4.8710   -2.5180    0.3270 nb        1 0JK     -0.658000
      7 C16        -3.9720   -1.5750   -0.1390 ca        1 0JK      0.404600
      8 C15        -2.6680   -1.9830   -0.5680 ca        1 0JK     -0.169300
      9 C14        -1.7690   -1.0570   -1.0320 ca        1 0JK     -0.106000
     10 C13        -2.1130    0.3180   -1.1040 ca        1 0JK     -0.125300
     11 C12        -1.1110    1.2860   -1.6580 c3        1 0JK      0.090600
     12 N4         -0.3630    2.0020   -0.6340 na        1 0JK      0.112400
     13 C10         0.8610    1.6020   -0.0850 cc        1 0JK     -0.266200
     14 C11         1.7500    0.4790   -0.4150 c         1 0JK      0.760100
     15 O1          1.5460   -0.2730   -1.3870 o         1 0JK     -0.630500
     16 N3         -0.7730    3.1200    0.0040 nc        1 0JK     -0.158800
     17 N2          0.0770    3.4890    0.8870 nd        1 0JK     -0.344000
     18 C9          1.1440    2.5780    0.9000 cd        1 0JK      0.300600
     19 C8          2.3830    2.5270    1.6870 c3        1 0JK     -0.110700
     20 C7          2.9310    1.0910    1.6870 c3        1 0JK      0.095000
     21 N1          2.8620    0.3670    0.4270 n         1 0JK     -0.375000
     22 C4          3.8260   -0.6560    0.2200 ca        1 0JK      0.052600
     23 C3          4.2880   -0.9530   -1.0800 ca        1 0JK     -0.142000
     24 C2          5.2590   -1.9320   -1.2690 ca        1 0JK     -0.114500
     25 C1          5.7900   -2.6270   -0.1840 ca        1 0JK     -0.139000
     26 C6          5.3350   -2.3440    1.1020 ca        1 0JK     -0.114500
     27 C5          4.3590   -1.3750    1.3120 ca        1 0JK     -0.142000
     28 H1         -3.6270    1.8110   -0.7300 ha        1 0JK      0.145000
     29 H2         -5.8710    1.2830    0.1870 ha        1 0JK      0.141000
     30 H3         -7.4900   -0.4680    1.0350 ha        1 0JK      0.146000
     31 H4         -6.7570   -2.8730    1.0840 h4        1 0JK      0.023100
     32 H5         -2.3980   -3.0500   -0.5160 ha        1 0JK      0.155000
     33 H6         -0.7590   -1.3670   -1.3540 ha        1 0JK      0.159000
     34 H7         -0.3500    0.7340   -2.2860 h1        1 0JK      0.094200
     35 H8         -1.6390    2.0480   -2.3020 h1        1 0JK      0.094200
     36 H9          3.1370    3.2330    1.2440 hc        1 0JK      0.077700
     37 H10         2.2080    2.8370    2.7510 hc        1 0JK      0.077700
     38 H11         4.0150    1.1390    1.9970 h1        1 0JK      0.056700
     39 H12         2.3680    0.5020    2.4690 h1        1 0JK      0.056700
     40 H13         3.8660   -0.4280   -1.9520 ha        1 0JK      0.144500
     41 H14         5.6070   -2.1550   -2.2890 ha        1 0JK      0.135500
     42 H15         6.5600   -3.3960   -0.3420 ha        1 0JK      0.135000
     43 H16         5.7440   -2.8940    1.9630 ha        1 0JK      0.135500
     44 H17         4.0080   -1.1840    2.3380 ha        1 0JK      0.144500
@<TRIPOS>BOND
     1    1    2 ar  
     2    1   10 ar  
     3    1   28 1   
     4    2    3 ar  
     5    2    7 ar  
     6    3    4 ar  
     7    3   29 1   
     8    4    5 ar  
     9    4   30 1   
    10    5    6 ar  
    11    5   31 1   
    12    6    7 ar  
    13    7    8 ar  
    14    8    9 ar  
    15    8   32 1   
    16    9   10 ar  
    17    9   33 1   
    18   10   11 1   
    19   11   12 1   
    20   11   34 1   
    21   11   35 1   
    22   12   13 1   
    23   12   16 1   
    24   13   14 1   
    25   13   18 2   
    26   14   15 2   
    27   14   21 1   
    28   16   17 2   
    29   17   18 1   
    30   18   19 1   
    31   19   20 1   
    32   19   36 1   
    33   19   37 1   
    34   20   21 1   
    35   20   38 1   
    36   20   39 1   
    37   21   22 1   
    38   22   23 ar  
    39   22   27 ar  
    40   23   24 ar  
    41   23   40 1   
    42   24   25 ar  
    43   24   41 1   
    44   25   26 ar  
    45   25   42 1   
    46   26   27 ar  
    47   26   43 1   
    48   27   44 1   
@<TRIPOS>SUBSTRUCTURE
     1 0JK         1 TEMP              0 ****  ****    0 ROOT
