@<TRIPOS>MOLECULE
0JK
   44    48     1     0     0
SMALL
bcc


@<TRIPOS>ATOM
      1 C18         0.0320    0.1060    0.0600 ca        1 0JK     -0.076000
      2 C17         1.4410   -0.0380    0.0670 ca        1 0JK     -0.157300
      3 C21         2.2050    0.0750    1.2650 ca        1 0JK     -0.074000
      4 C20         3.5670   -0.0750    1.2120 ca        1 0JK     -0.252300
      5 C19         4.1740   -0.3430   -0.0570 ca        1 0JK      0.417200
      6 N5          3.5100   -0.4550   -1.1930 nb        1 0JK     -0.658000
      7 C16         2.1350   -0.3050   -1.1550 ca        1 0JK      0.404600
      8 C15         1.3710   -0.4120   -2.3610 ca        1 0JK     -0.169300
      9 C14         0.0070   -0.2650   -2.3350 ca        1 0JK     -0.106000
     10 C13        -0.6730   -0.0120   -1.1160 ca        1 0JK     -0.125300
     11 C12        -2.1680    0.0990   -1.1320 c3        1 0JK      0.090600
     12 N4         -2.6520    1.4730   -1.1500 na        1 0JK      0.112400
     13 C10        -2.9400    2.2230   -2.2950 cc        1 0JK     -0.266200
     14 C11        -2.9420    1.8570   -3.7190 c         1 0JK      0.760100
     15 O1         -2.7620    0.6890   -4.1090 o         1 0JK     -0.630500
     16 N3         -2.8180    2.2640   -0.0670 nc        1 0JK     -0.158800
     17 N2         -3.2080    3.4350   -0.4030 nd        1 0JK     -0.344000
     18 C9         -3.3080    3.4980   -1.8010 cd        1 0JK      0.300600
     19 C8         -3.7230    4.5750   -2.7090 c3        1 0JK     -0.110700
     20 C7         -3.1650    4.3030   -4.1160 c3        1 0JK      0.095000
     21 N1         -3.2140    2.9260   -4.5810 n         1 0JK     -0.375000
     22 C4         -3.2730    2.7240   -5.9860 ca        1 0JK      0.052600
     23 C3         -3.9490    1.6060   -6.5220 ca        1 0JK     -0.142000
     24 C2         -4.0330    1.4370   -7.9010 ca        1 0JK     -0.114500
     25 C1         -3.4590    2.3640   -8.7690 ca        1 0JK     -0.139000
     26 C6         -2.7840    3.4660   -8.2480 ca        1 0JK     -0.114500
     27 C5         -2.6820    3.6510   -6.8720 ca        1 0JK     -0.142000
     28 H1         -0.4860    0.3170    1.0100 ha        1 0JK      0.145000
     29 H2          1.6840    0.2840    2.2120 ha        1 0JK      0.141000
     30 H3          4.1980    0.0040    2.1060 ha        1 0JK      0.146000
     31 H4          5.2710   -0.4680   -0.1200 h4        1 0JK      0.023100
     32 H5          1.8950   -0.6120   -3.3090 ha        1 0JK      0.155000
     33 H6         -0.5840   -0.3370   -3.2650 ha        1 0JK      0.159000
     34 H7         -2.5810   -0.3990   -2.0600 h1        1 0JK      0.094200
     35 H8         -2.5950   -0.4090   -0.2180 h1        1 0JK      0.094200
     36 H9         -4.8450    4.6280   -2.7380 hc        1 0JK      0.077700
     37 H10        -3.3420    5.5730   -2.3670 hc        1 0JK      0.077700
     38 H11        -2.0900    4.6500   -4.1380 h1        1 0JK      0.056700
     39 H12        -3.7520    4.9330   -4.8440 h1        1 0JK      0.056700
     40 H13        -4.3940    0.8530   -5.8520 ha        1 0JK      0.144500
     41 H14        -4.5600    0.5590   -8.3050 ha        1 0JK      0.135500
     42 H15        -3.5330    2.2240   -9.8570 ha        1 0JK      0.135000
     43 H16        -2.3210    4.1980   -8.9270 ha        1 0JK      0.135500
     44 H17        -2.1300    4.5220   -6.4900 ha        1 0JK      0.144500
@<TRIPOS>BOND
     1    1    2 ar  
     2    1   10 ar  
     3    1   28 1   
     4    2    3 ar  
     5    2    7 ar  
     6    3    4 ar  
     7    3   29 1   
     8    4    5 ar  
     9    4   30 1   
    10    5    6 ar  
    11    5   31 1   
    12    6    7 ar  
    13    7    8 ar  
    14    8    9 ar  
    15    8   32 1   
    16    9   10 ar  
    17    9   33 1   
    18   10   11 1   
    19   11   12 1   
    20   11   34 1   
    21   11   35 1   
    22   12   13 1   
    23   12   16 1   
    24   13   14 1   
    25   13   18 2   
    26   14   15 2   
    27   14   21 1   
    28   16   17 2   
    29   17   18 1   
    30   18   19 1   
    31   19   20 1   
    32   19   36 1   
    33   19   37 1   
    34   20   21 1   
    35   20   38 1   
    36   20   39 1   
    37   21   22 1   
    38   22   23 ar  
    39   22   27 ar  
    40   23   24 ar  
    41   23   40 1   
    42   24   25 ar  
    43   24   41 1   
    44   25   26 ar  
    45   25   42 1   
    46   26   27 ar  
    47   26   43 1   
    48   27   44 1   
@<TRIPOS>SUBSTRUCTURE
     1 0JK         1 TEMP              0 ****  ****    0 ROOT
