@<TRIPOS>MOLECULE
0JK
   44    48     1     0     0
SMALL
bcc


@<TRIPOS>ATOM
      1 C18         0.0290    0.1160    0.0670 ca        1 0JK     -0.076000
      2 C17         1.4380   -0.0320    0.0750 ca        1 0JK     -0.157300
      3 C21         2.2010    0.0830    1.2730 ca        1 0JK     -0.074000
      4 C20         3.5630   -0.0710    1.2200 ca        1 0JK     -0.252300
      5 C19         4.1700   -0.3440   -0.0480 ca        1 0JK      0.417200
      6 N5          3.5060   -0.4590   -1.1830 nb        1 0JK     -0.658000
      7 C16         2.1310   -0.3040   -1.1460 ca        1 0JK      0.404600
      8 C15         1.3670   -0.4130   -2.3520 ca        1 0JK     -0.169300
      9 C14         0.0040   -0.2630   -2.3270 ca        1 0JK     -0.106000
     10 C13        -0.6760   -0.0040   -1.1090 ca        1 0JK     -0.125300
     11 C12        -2.1710    0.1110   -1.1250 c3        1 0JK      0.090600
     12 N4         -2.6510    1.4860   -1.1490 na        1 0JK      0.112400
     13 C10        -2.9380    2.2310   -2.2980 cc        1 0JK     -0.266200
     14 C11        -2.9420    1.8590   -3.7200 c         1 0JK      0.760100
     15 O1         -2.7640    0.6880   -4.1060 o         1 0JK     -0.630500
     16 N3         -2.8150    2.2820   -0.0700 nc        1 0JK     -0.158800
     17 N2         -3.2020    3.4520   -0.4110 nd        1 0JK     -0.344000
     18 C9         -3.3030    3.5090   -1.8100 cd        1 0JK      0.300600
     19 C8         -3.7160    4.5830   -2.7230 c3        1 0JK     -0.110700
     20 C7         -3.1590    4.3030   -4.1280 c3        1 0JK      0.095000
     21 N1         -3.2120    2.9240   -4.5870 n         1 0JK     -0.375000
     22 C4         -3.2720    2.7160   -5.9910 ca        1 0JK      0.052600
     23 C3         -3.9510    1.5970   -6.5220 ca        1 0JK     -0.142000
     24 C2         -4.0360    1.4210   -7.9000 ca        1 0JK     -0.114500
     25 C1         -3.4590    2.3430   -8.7720 ca        1 0JK     -0.139000
     26 C6         -2.7820    3.4460   -8.2570 ca        1 0JK     -0.114500
     27 C5         -2.6780    3.6370   -6.8820 ca        1 0JK     -0.142000
     28 H1         -0.4880    0.3310    1.0160 ha        1 0JK      0.145000
     29 H2          1.6810    0.2960    2.2190 ha        1 0JK      0.141000
     30 H3          4.1940    0.0090    2.1140 ha        1 0JK      0.146000
     31 H4          5.2670   -0.4730   -0.1100 h4        1 0JK      0.023100
     32 H5          1.8910   -0.6170   -3.2990 ha        1 0JK      0.155000
     33 H6         -0.5870   -0.3370   -3.2570 ha        1 0JK      0.159000
     34 H7         -2.5840   -0.3910   -2.0510 h1        1 0JK      0.094200
     35 H8         -2.5990   -0.3930   -0.2100 h1        1 0JK      0.094200
     36 H9         -4.8380    4.6380   -2.7510 hc        1 0JK      0.077700
     37 H10        -3.3320    5.5810   -2.3850 hc        1 0JK      0.077700
     38 H11        -2.0830    4.6470   -4.1530 h1        1 0JK      0.056700
     39 H12        -3.7450    4.9310   -4.8590 h1        1 0JK      0.056700
     40 H13        -4.3960    0.8490   -5.8480 ha        1 0JK      0.144500
     41 H14        -4.5650    0.5430   -8.2990 ha        1 0JK      0.135500
     42 H15        -3.5340    2.1980   -9.8600 ha        1 0JK      0.135000
     43 H16        -2.3170    4.1740   -8.9390 ha        1 0JK      0.135500
     44 H17        -2.1240    4.5090   -6.5040 ha        1 0JK      0.144500
@<TRIPOS>BOND
     1    1    2 ar  
     2    1   10 ar  
     3    1   28 1   
     4    2    3 ar  
     5    2    7 ar  
     6    3    4 ar  
     7    3   29 1   
     8    4    5 ar  
     9    4   30 1   
    10    5    6 ar  
    11    5   31 1   
    12    6    7 ar  
    13    7    8 ar  
    14    8    9 ar  
    15    8   32 1   
    16    9   10 ar  
    17    9   33 1   
    18   10   11 1   
    19   11   12 1   
    20   11   34 1   
    21   11   35 1   
    22   12   13 1   
    23   12   16 1   
    24   13   14 1   
    25   13   18 2   
    26   14   15 2   
    27   14   21 1   
    28   16   17 2   
    29   17   18 1   
    30   18   19 1   
    31   19   20 1   
    32   19   36 1   
    33   19   37 1   
    34   20   21 1   
    35   20   38 1   
    36   20   39 1   
    37   21   22 1   
    38   22   23 ar  
    39   22   27 ar  
    40   23   24 ar  
    41   23   40 1   
    42   24   25 ar  
    43   24   41 1   
    44   25   26 ar  
    45   25   42 1   
    46   26   27 ar  
    47   26   43 1   
    48   27   44 1   
@<TRIPOS>SUBSTRUCTURE
     1 0JK         1 TEMP              0 ****  ****    0 ROOT
