@<TRIPOS>MOLECULE
0JL
   55    59     1     0     0
SMALL
bcc


@<TRIPOS>ATOM
      1 CBF        -6.4020    4.4370   -0.6400 c3        1 0JL     -0.129400
      2 CBE        -5.1800    3.5970   -0.6480 cc        1 0JL      0.380600
      3 CBB        -5.2560    2.1540   -0.6510 cc        1 0JL     -0.303300
      4 NBD        -3.9360    4.0760   -0.6580 nd        1 0JL     -0.547100
      5 S          -2.8500    2.8760   -0.6760 ss        1 0JL      0.304200
      6 CBA        -3.9780    1.5950   -0.6720 cd        1 0JL      0.008500
      7 NAZ        -3.6810    0.2260   -0.7230 n         1 0JL     -0.226200
      8 CAT        -2.6850   -0.3230    0.1280 c         1 0JL      0.743100
      9 CAS        -2.5630   -1.7690    0.0270 cc        1 0JL     -0.276200
     10 OBG        -1.9880    0.3950    0.8680 o         1 0JL     -0.626500
     11 CAY        -4.4730   -0.5800   -1.5510 cc        1 0JL     -0.018400
     12 CAX        -4.3580   -1.9390   -1.6470 cd        1 0JL     -0.254800
     13 CAW        -3.3740   -2.5690   -0.8340 cd        1 0JL      0.379100
     14 NAV        -2.9660   -3.9040   -0.6410 nd        1 0JL     -0.344000
     15 NAU        -2.0250   -3.9260    0.2220 nc        1 0JL     -0.136800
     16 NAR        -1.7340   -2.6910    0.6790 na        1 0JL      0.103400
     17 CAP        -0.6700   -2.3480    1.6320 c3        1 0JL      0.111300
     18 CAQ        -0.6250   -3.2920    2.8320 c3        1 0JL     -0.101100
     19 CAO         0.6810   -2.2830    0.9630 ca        1 0JL     -0.110300
     20 CAI         1.3000   -1.0620    0.8070 ca        1 0JL     -0.091000
     21 CAH         2.5860   -0.9800    0.2140 ca        1 0JL     -0.122300
     22 CAG         3.2530    0.2640    0.0560 ca        1 0JL     -0.120000
     23 CAN         1.3130   -3.4660    0.5030 ca        1 0JL     -0.114000
     24 CAM         2.5530   -3.4200   -0.0810 ca        1 0JL     -0.157300
     25 CAL         3.2350   -2.1710   -0.2390 ca        1 0JL      0.375600
     26 NAK         4.4880   -2.1380   -0.8210 nb        1 0JL     -0.633000
     27 CAJ         5.0850   -0.9710   -0.9590 ca        1 0JL      0.372200
     28 CAF         4.5040    0.2730   -0.5340 ca        1 0JL      0.003800
     29 OAE         5.1000    1.5020   -0.7120 os        1 0JL     -0.323900
     30 CAD         6.4970    1.4750   -1.0400 c3        1 0JL      0.123400
     31 CAC         6.9800    2.9150   -0.9010 c3        1 0JL      0.122400
     32 OAB         7.7540    2.9680    0.2950 os        1 0JL     -0.423600
     33 CAA         8.1280    4.2890    0.6460 c3        1 0JL      0.116700
     34 H1         -7.1730    3.9670    0.0190 hc        1 0JL      0.058033
     35 H2         -6.1930    5.4710   -0.2710 hc        1 0JL      0.058033
     36 H3         -6.8100    4.5060   -1.6800 hc        1 0JL      0.058033
     37 H4         -6.2010    1.6100   -0.6310 ha        1 0JL      0.170000
     38 H6         -5.2170   -0.0250   -2.1540 h4        1 0JL      0.167000
     39 H7         -4.9910   -2.5260   -2.3230 ha        1 0JL      0.174000
     40 H8         -0.9430   -1.3080    2.0050 h1        1 0JL      0.103700
     41 H9         -0.3760   -4.3360    2.5250 hc        1 0JL      0.057700
     42 H10         0.1640   -2.9260    3.5320 hc        1 0JL      0.057700
     43 H11        -1.6060   -3.3000    3.3650 hc        1 0JL      0.057700
     44 H12         0.8070   -0.1310    1.1350 ha        1 0JL      0.153000
     45 H13         2.7770    1.1960    0.3920 ha        1 0JL      0.158000
     46 H14         0.7890   -4.4290    0.6150 ha        1 0JL      0.150000
     47 H15         3.0400   -4.3420   -0.4370 ha        1 0JL      0.153000
     48 H16         6.0850   -0.9890   -1.4310 h4        1 0JL      0.027100
     49 H17         7.0510    0.7990   -0.3370 h1        1 0JL      0.057200
     50 H18         6.6120    1.1220   -2.0980 h1        1 0JL      0.057200
     51 H19         7.6290    3.1920   -1.7730 h1        1 0JL      0.047200
     52 H20         6.1110    3.6230   -0.8360 h1        1 0JL      0.047200
     53 H21         8.7490    4.7500   -0.1620 h1        1 0JL      0.035700
     54 H22         7.2230    4.9180    0.8370 h1        1 0JL      0.035700
     55 H23         8.7280    4.1690    1.5820 h1        1 0JL      0.035700
@<TRIPOS>BOND
     1    1    2 1   
     2    1   34 1   
     3    1   35 1   
     4    1   36 1   
     5    2    3 1   
     6    2    4 2   
     7    3    6 2   
     8    3   37 1   
     9    4    5 1   
    10    5    6 1   
    11    6    7 1   
    12    7    8 1   
    13    7   11 1   
    14    8    9 1   
    15    8   10 2   
    16    9   13 2   
    17    9   16 1   
    18   11   12 2   
    19   11   38 1   
    20   12   13 1   
    21   12   39 1   
    22   13   14 1   
    23   14   15 2   
    24   15   16 1   
    25   16   17 1   
    26   17   18 1   
    27   17   19 1   
    28   17   40 1   
    29   18   41 1   
    30   18   42 1   
    31   18   43 1   
    32   19   20 ar  
    33   19   23 ar  
    34   20   21 ar  
    35   20   44 1   
    36   21   22 ar  
    37   21   25 ar  
    38   22   28 ar  
    39   22   45 1   
    40   23   24 ar  
    41   23   46 1   
    42   24   25 ar  
    43   24   47 1   
    44   25   26 ar  
    45   26   27 ar  
    46   27   28 ar  
    47   27   48 1   
    48   28   29 1   
    49   29   30 1   
    50   30   31 1   
    51   30   49 1   
    52   30   50 1   
    53   31   32 1   
    54   31   51 1   
    55   31   52 1   
    56   32   33 1   
    57   33   53 1   
    58   33   54 1   
    59   33   55 1   
@<TRIPOS>SUBSTRUCTURE
     1 0JL         1 TEMP              0 ****  ****    0 ROOT
