@<TRIPOS>MOLECULE
0JL
   55    59     1     0     0
SMALL
bcc


@<TRIPOS>ATOM
      1 CBF         0.4810   -0.4480   -0.5790 c3        1 0JL     -0.129400
      2 CBE         1.8680   -0.8590   -0.2520 cc        1 0JL      0.380600
      3 CBB         2.5860   -0.2750    0.8590 cc        1 0JL     -0.303300
      4 NBD         2.5610   -1.7780   -0.9240 nd        1 0JL     -0.547100
      5 S           4.0330   -1.9820   -0.2840 ss        1 0JL      0.304200
      6 CBA         3.8600   -0.8340    0.9680 cd        1 0JL      0.008500
      7 NAZ         4.8070   -0.5320    1.9560 n         1 0JL     -0.226200
      8 CAT         6.1630   -0.3040    1.6020 c         1 0JL      0.743100
      9 CAS         7.0000    0.0940    2.7230 cc        1 0JL     -0.276200
     10 OBG         6.5690   -0.4550    0.4350 o         1 0JL     -0.626500
     11 CAY         4.3440   -0.3540    3.2660 cc        1 0JL     -0.018400
     12 CAX         5.1310    0.0180    4.3200 cd        1 0JL     -0.254800
     13 CAW         6.5090    0.2570    4.0540 cd        1 0JL      0.379100
     14 NAV         7.6080    0.6540    4.8410 nd        1 0JL     -0.344000
     15 NAU         8.6430    0.7260    4.0960 nc        1 0JL     -0.136800
     16 NAR         8.3610    0.4170    2.8130 na        1 0JL      0.103400
     17 CAP         9.3250    0.3430    1.7070 c3        1 0JL      0.111300
     18 CAQ        10.2850    1.5300    1.6820 c3        1 0JL     -0.101100
     19 CAO        10.0920   -0.9560    1.7200 ca        1 0JL     -0.110300
     20 CAI         9.8570   -1.8900    0.7370 ca        1 0JL     -0.091000
     21 CAH        10.5920   -3.1030    0.7080 ca        1 0JL     -0.122300
     22 CAG        10.3790   -4.0770   -0.3040 ca        1 0JL     -0.120000
     23 CAN        11.0540   -1.2120    2.7310 ca        1 0JL     -0.114000
     24 CAM        11.7770   -2.3770    2.7350 ca        1 0JL     -0.157300
     25 CAL        11.5730   -3.3610    1.7160 ca        1 0JL      0.375600
     26 NAK        12.3140   -4.5280    1.7260 nb        1 0JL     -0.633000
     27 CAJ        12.0960   -5.4170    0.7770 ca        1 0JL      0.372200
     28 CAF        11.1280   -5.2390   -0.2710 ca        1 0JL      0.003800
     29 OAE        10.8630   -6.1800   -1.2420 os        1 0JL     -0.323900
     30 CAD        11.8360   -7.2250   -1.3780 c3        1 0JL      0.123400
     31 CAC        11.4810   -7.9510   -2.6720 c3        1 0JL      0.122400
     32 OAB        12.4620   -7.5670   -3.6330 os        1 0JL     -0.423600
     33 CAA        12.1600   -8.0330   -4.9370 c3        1 0JL      0.116700
     34 H1          0.2110   -0.7020   -1.6330 hc        1 0JL      0.058033
     35 H2         -0.2320   -0.9720    0.1060 hc        1 0JL      0.058033
     36 H3          0.3760    0.6550   -0.4340 hc        1 0JL      0.058033
     37 H4          2.1620    0.4990    1.4970 ha        1 0JL      0.170000
     38 H6          3.2640   -0.5560    3.4020 h4        1 0JL      0.167000
     39 H7          4.7250    0.1280    5.3330 ha        1 0JL      0.174000
     40 H8          8.6860    0.3800    0.7670 h1        1 0JL      0.103700
     41 H9          9.7230    2.4920    1.6130 hc        1 0JL      0.057700
     42 H10        10.9320    1.5560    2.5920 hc        1 0JL      0.057700
     43 H11        10.9380    1.4290    0.7810 hc        1 0JL      0.057700
     44 H12         9.0920   -1.7160   -0.0390 ha        1 0JL      0.153000
     45 H13         9.6300   -3.9060   -1.0900 ha        1 0JL      0.158000
     46 H14        11.2090   -0.4610    3.5230 ha        1 0JL      0.150000
     47 H15        12.5220   -2.5720    3.5230 ha        1 0JL      0.153000
     48 H16        12.7070   -6.3370    0.8230 h4        1 0JL      0.027100
     49 H17        11.7460   -7.9180   -0.5020 h1        1 0JL      0.057200
     50 H18        12.8700   -6.7930   -1.4340 h1        1 0JL      0.057200
     51 H19        10.4550   -7.6610   -3.0240 h1        1 0JL      0.047200
     52 H20        11.5280   -9.0610   -2.5190 h1        1 0JL      0.047200
     53 H21        13.0100   -7.6680   -5.5660 h1        1 0JL      0.035700
     54 H22        11.1930   -7.6010   -5.2960 h1        1 0JL      0.035700
     55 H23        12.1080   -9.1490   -4.9550 h1        1 0JL      0.035700
@<TRIPOS>BOND
     1    1    2 1   
     2    1   34 1   
     3    1   35 1   
     4    1   36 1   
     5    2    3 1   
     6    2    4 2   
     7    3    6 2   
     8    3   37 1   
     9    4    5 1   
    10    5    6 1   
    11    6    7 1   
    12    7    8 1   
    13    7   11 1   
    14    8    9 1   
    15    8   10 2   
    16    9   13 2   
    17    9   16 1   
    18   11   12 2   
    19   11   38 1   
    20   12   13 1   
    21   12   39 1   
    22   13   14 1   
    23   14   15 2   
    24   15   16 1   
    25   16   17 1   
    26   17   18 1   
    27   17   19 1   
    28   17   40 1   
    29   18   41 1   
    30   18   42 1   
    31   18   43 1   
    32   19   20 ar  
    33   19   23 ar  
    34   20   21 ar  
    35   20   44 1   
    36   21   22 ar  
    37   21   25 ar  
    38   22   28 ar  
    39   22   45 1   
    40   23   24 ar  
    41   23   46 1   
    42   24   25 ar  
    43   24   47 1   
    44   25   26 ar  
    45   26   27 ar  
    46   27   28 ar  
    47   27   48 1   
    48   28   29 1   
    49   29   30 1   
    50   30   31 1   
    51   30   49 1   
    52   30   50 1   
    53   31   32 1   
    54   31   51 1   
    55   31   52 1   
    56   32   33 1   
    57   33   53 1   
    58   33   54 1   
    59   33   55 1   
@<TRIPOS>SUBSTRUCTURE
     1 0JL         1 TEMP              0 ****  ****    0 ROOT
