@<TRIPOS>MOLECULE
0JL
   55    59     1     0     0
SMALL
bcc


@<TRIPOS>ATOM
      1 CBF         0.4750   -0.4750   -0.5560 c3        1 0JL     -0.129400
      2 CBE         1.8650   -0.8800   -0.2320 cc        1 0JL      0.380600
      3 CBB         2.5850   -0.2900    0.8730 cc        1 0JL     -0.303300
      4 NBD         2.5570   -1.8010   -0.9030 nd        1 0JL     -0.547100
      5 S           4.0330   -1.9970   -0.2680 ss        1 0JL      0.304200
      6 CBA         3.8610   -0.8440    0.9800 cd        1 0JL      0.008500
      7 NAZ         4.8100   -0.5360    1.9630 n         1 0JL     -0.226200
      8 CAT         6.1650   -0.3050    1.6030 c         1 0JL      0.743100
      9 CAS         7.0040    0.1000    2.7190 cc        1 0JL     -0.276200
     10 OBG         6.5670   -0.4590    0.4350 o         1 0JL     -0.626500
     11 CAY         4.3520   -0.3550    3.2750 cc        1 0JL     -0.018400
     12 CAX         5.1420    0.0240    4.3240 cd        1 0JL     -0.254800
     13 CAW         6.5180    0.2660    4.0520 cd        1 0JL      0.379100
     14 NAV         7.6190    0.6700    4.8330 nd        1 0JL     -0.344000
     15 NAU         8.6500    0.7420    4.0830 nc        1 0JL     -0.136800
     16 NAR         8.3650    0.4280    2.8040 na        1 0JL      0.103400
     17 CAP         9.3250    0.3530    1.6940 c3        1 0JL      0.111300
     18 CAQ        10.2830    1.5410    1.6620 c3        1 0JL     -0.101100
     19 CAO        10.0950   -0.9450    1.7080 ca        1 0JL     -0.110300
     20 CAI         9.8560   -1.8830    0.7290 ca        1 0JL     -0.091000
     21 CAH        10.5940   -3.0950    0.7000 ca        1 0JL     -0.122300
     22 CAG        10.3790   -4.0720   -0.3080 ca        1 0JL     -0.120000
     23 CAN        11.0610   -1.1960    2.7160 ca        1 0JL     -0.114000
     24 CAM        11.7860   -2.3600    2.7200 ca        1 0JL     -0.157300
     25 CAL        11.5790   -3.3480    1.7040 ca        1 0JL      0.375600
     26 NAK        12.3230   -4.5130    1.7150 nb        1 0JL     -0.633000
     27 CAJ        12.1020   -5.4060    0.7700 ca        1 0JL      0.372200
     28 CAF        11.1300   -5.2330   -0.2740 ca        1 0JL      0.003800
     29 OAE        10.8620   -6.1770   -1.2410 os        1 0JL     -0.323900
     30 CAD        11.8360   -7.2230   -1.3770 c3        1 0JL      0.123400
     31 CAC        11.4750   -7.9540   -2.6660 c3        1 0JL      0.122400
     32 OAB        12.4530   -7.5750   -3.6320 os        1 0JL     -0.423600
     33 CAA        12.1460   -8.0470   -4.9330 c3        1 0JL      0.116700
     34 H1          0.2050   -0.7250   -1.6110 hc        1 0JL      0.058033
     35 H2         -0.2340   -1.0070    0.1270 hc        1 0JL      0.058033
     36 H3          0.3630    0.6260   -0.4050 hc        1 0JL      0.058033
     37 H4          2.1600    0.4860    1.5100 ha        1 0JL      0.170000
     38 H6          3.2740   -0.5590    3.4150 h4        1 0JL      0.167000
     39 H7          4.7400    0.1360    5.3380 ha        1 0JL      0.174000
     40 H8          8.6820    0.3850    0.7560 h1        1 0JL      0.103700
     41 H9         10.9320    1.5710    2.5690 hc        1 0JL      0.057700
     42 H10         9.7180    2.5020    1.5920 hc        1 0JL      0.057700
     43 H11        10.9320    1.4380    0.7590 hc        1 0JL      0.057700
     44 H12         9.0880   -1.7120   -0.0440 ha        1 0JL      0.153000
     45 H13         9.6250   -3.9050   -1.0910 ha        1 0JL      0.158000
     46 H14        11.2190   -0.4430    3.5040 ha        1 0JL      0.150000
     47 H15        12.5350   -2.5510    3.5050 ha        1 0JL      0.153000
     48 H16        12.7160   -6.3240    0.8160 h4        1 0JL      0.027100
     49 H17        12.8680   -6.7900   -1.4380 h1        1 0JL      0.057200
     50 H18        11.7490   -7.9120   -0.4970 h1        1 0JL      0.057200
     51 H19        10.4480   -7.6660   -3.0150 h1        1 0JL      0.047200
     52 H20        11.5230   -9.0640   -2.5080 h1        1 0JL      0.047200
     53 H21        12.9950   -7.6860   -5.5660 h1        1 0JL      0.035700
     54 H22        12.0950   -9.1640   -4.9450 h1        1 0JL      0.035700
     55 H23        11.1780   -7.6170   -5.2900 h1        1 0JL      0.035700
@<TRIPOS>BOND
     1    1    2 1   
     2    1   34 1   
     3    1   35 1   
     4    1   36 1   
     5    2    3 1   
     6    2    4 2   
     7    3    6 2   
     8    3   37 1   
     9    4    5 1   
    10    5    6 1   
    11    6    7 1   
    12    7    8 1   
    13    7   11 1   
    14    8    9 1   
    15    8   10 2   
    16    9   13 2   
    17    9   16 1   
    18   11   12 2   
    19   11   38 1   
    20   12   13 1   
    21   12   39 1   
    22   13   14 1   
    23   14   15 2   
    24   15   16 1   
    25   16   17 1   
    26   17   18 1   
    27   17   19 1   
    28   17   40 1   
    29   18   41 1   
    30   18   42 1   
    31   18   43 1   
    32   19   20 ar  
    33   19   23 ar  
    34   20   21 ar  
    35   20   44 1   
    36   21   22 ar  
    37   21   25 ar  
    38   22   28 ar  
    39   22   45 1   
    40   23   24 ar  
    41   23   46 1   
    42   24   25 ar  
    43   24   47 1   
    44   25   26 ar  
    45   26   27 ar  
    46   27   28 ar  
    47   27   48 1   
    48   28   29 1   
    49   29   30 1   
    50   30   31 1   
    51   30   49 1   
    52   30   50 1   
    53   31   32 1   
    54   31   51 1   
    55   31   52 1   
    56   32   33 1   
    57   33   53 1   
    58   33   54 1   
    59   33   55 1   
@<TRIPOS>SUBSTRUCTURE
     1 0JL         1 TEMP              0 ****  ****    0 ROOT
