@<TRIPOS>MOLECULE
0JL
   55    51     1     0     0
SMALL
bcc


@<TRIPOS>ATOM
      1 CBF        -5.6810    8.3630   -0.6250 c3        1 0JL     -0.153000
      2 CBE        -5.3830    6.9450   -0.2750 c2        1 0JL     -0.043000
      3 CBB        -4.3040    6.4740    0.7430 c1        1 0JL     -0.237000
      4 NBD        -5.8990    5.7820   -0.9560 n2        1 0JL     -0.326000
      5 S          -5.1970    4.5850   -0.4190 ss        1 0JL      0.615000
      6 CBA        -4.1960    5.0690    0.6540 c1        1 0JL     -0.254000
      7 NAZ        -3.3870    4.2110    1.5220 n2        1 0JL     -0.164000
      8 CAT        -2.2510    3.5060    0.9810 c1        1 0JL      0.380000
      9 CAS        -1.4420    2.5240    1.8810 c1        1 0JL     -0.112500
     10 OBG        -2.0220    3.5510   -0.2520 o         1 0JL     -0.351000
     11 CAY        -3.7770    4.0100    2.8950 c2        1 0JL     -0.021000
     12 CAX        -2.9970    3.0610    3.7720 c1        1 0JL     -0.145000
     13 CAW        -1.8120    2.3260    3.2110 c1        1 0JL     -0.112500
     14 NAV        -0.9100    1.4990    3.7700 n2        1 0JL     -0.095500
     15 NAU         0.0080    1.1810    2.8240 n2        1 0JL      0.033000
     16 NAR        -0.3390    1.8270    1.6540 n2        1 0JL     -0.095500
     17 CAP         0.4530    1.4530    0.5480 c2        1 0JL      0.084000
     18 CAQ         1.4150    2.5480    0.2500 c3        1 0JL     -0.219000
     19 CAO         1.2250    0.1680    0.8800 c2        1 0JL     -0.102000
     20 CAI         1.2290   -0.7430   -0.1370 c2        1 0JL     -0.092000
     21 CAH         2.0360   -1.9400   -0.0340 c1        1 0JL     -0.056000
     22 CAG         2.0140   -2.8930   -1.0560 c2        1 0JL     -0.122000
     23 CAN         2.0110   -0.0580    2.0380 c1        1 0JL     -0.114000
     24 CAM         2.7950   -1.2230    2.1390 c1        1 0JL     -0.092000
     25 CAL         2.7990   -2.1570    1.0940 c1        1 0JL     -0.019000
     26 NAK         3.5470   -3.3280    1.2140 n2        1 0JL     -0.106000
     27 CAJ         3.5270   -4.2690    0.2090 c1        1 0JL     -0.094000
     28 CAF         2.7590   -4.0550   -0.9310 c1        1 0JL      0.024000
     29 OAE         2.8840   -4.7450   -2.1180 os        1 0JL     -0.208000
     30 CAD         3.0630   -6.2180   -1.9410 c3        1 0JL     -0.026000
     31 CAC         2.8810   -6.9040   -3.2820 c3        1 0JL     -0.026000
     32 OAB         3.7160   -8.0560   -3.3550 os        1 0JL     -0.280000
     33 CAA         3.1810   -9.1110   -4.1770 c3        1 0JL     -0.072000
     34 H1         -5.8890    8.8170    0.1260 hc        1 0JL      0.097333
     35 H2         -4.8370    8.7980   -1.0750 hc        1 0JL      0.097333
     36 H3         -6.4060    8.3940   -1.2220 hc        1 0JL      0.097333
     37 H4         -3.7960    7.0450    1.3330 DU        1 0JL      0.170000
     38 H6         -4.5770    4.5020    3.2680 h4        1 0JL      0.167000
     39 H7         -3.2700    2.9220    4.7260 ha        1 0JL      0.174000
     40 H8         -0.1340    1.2930   -0.2470 ha        1 0JL      0.143000
     41 H9          0.9540    3.2600   -0.2550 hc        1 0JL      0.096667
     42 H10         2.1410    2.2120   -0.2650 hc        1 0JL      0.096667
     43 H11         1.7430    2.8980    1.0560 hc        1 0JL      0.096667
     44 H12         0.7280   -0.5500   -0.9760 ha        1 0JL      0.153000
     45 H13         1.4560   -2.7360   -1.8800 ha        1 0JL      0.158000
     46 H14         2.0990    0.6990    2.7630 ha        1 0JL      0.150000
     47 H15         3.3010   -1.3700    2.8850 ha        1 0JL      0.154000
     48 H16         4.0490   -5.0840    0.2980 ha        1 0JL      0.168000
     49 H17         2.3540   -6.5760   -1.2610 h1        1 0JL      0.094000
     50 H18         3.9760   -6.4030   -1.5930 h1        1 0JL      0.094000
     51 H19         1.9260   -7.1770   -3.3910 h1        1 0JL      0.083500
     52 H20         3.1100   -6.3200   -3.9540 h1        1 0JL      0.083500
     53 H21         3.7090   -9.8430   -4.1110 h1        1 0JL      0.076000
     54 H22         2.2680   -9.3350   -3.8730 h1        1 0JL      0.076000
     55 H23         3.1510   -8.8280   -5.0730 h1        1 0JL      0.076000
@<TRIPOS>BOND
     1    1    2 1   
     2    1   34 1   
     3    1   35 1   
     4    1   36 1   
     5    2    3 1   
     6    2    4 1   
     7    3    6 1   
     8    4    5 1   
     9    5    6 1   
    10    7    8 1   
    11    7   11 1   
    12    8   10 1   
    13    9   13 1   
    14    9   16 1   
    15   11   12 1   
    16   11   38 1   
    17   12   39 1   
    18   13   14 1   
    19   14   15 1   
    20   15   16 1   
    21   17   18 1   
    22   17   19 1   
    23   17   40 1   
    24   18   41 1   
    25   18   42 1   
    26   18   43 1   
    27   19   20 1   
    28   19   23 1   
    29   20   21 1   
    30   20   44 1   
    31   21   22 1   
    32   22   28 1   
    33   22   45 1   
    34   23   46 1   
    35   24   25 1   
    36   24   47 1   
    37   25   26 1   
    38   26   27 1   
    39   27   48 1   
    40   28   29 1   
    41   29   30 1   
    42   30   31 1   
    43   30   49 1   
    44   30   50 1   
    45   31   32 1   
    46   31   51 1   
    47   31   52 1   
    48   32   33 1   
    49   33   53 1   
    50   33   54 1   
    51   33   55 1   
@<TRIPOS>SUBSTRUCTURE
     1 0JL         1 TEMP              0 ****  ****    0 ROOT
