@<TRIPOS>MOLECULE
0JL
   55    59     1     0     0
SMALL
bcc


@<TRIPOS>ATOM
      1 CBF         0.4700   -0.4710   -0.5450 c3        1 0JL     -0.129400
      2 CBE         1.8600   -0.8770   -0.2240 cc        1 0JL      0.380600
      3 CBB         2.5820   -0.2880    0.8810 cc        1 0JL     -0.303300
      4 NBD         2.5510   -1.7980   -0.8960 nd        1 0JL     -0.547100
      5 S           4.0270   -1.9950   -0.2630 ss        1 0JL      0.304200
      6 CBA         3.8580   -0.8430    0.9850 cd        1 0JL      0.008500
      7 NAZ         4.8090   -0.5350    1.9670 n         1 0JL     -0.226200
      8 CAT         6.1630   -0.3060    1.6050 c         1 0JL      0.743100
      9 CAS         7.0050    0.0980    2.7200 cc        1 0JL     -0.276200
     10 OBG         6.5640   -0.4600    0.4360 o         1 0JL     -0.626500
     11 CAY         4.3530   -0.3550    3.2790 cc        1 0JL     -0.018400
     12 CAX         5.1440    0.0240    4.3270 cd        1 0JL     -0.254800
     13 CAW         6.5200    0.2650    4.0530 cd        1 0JL      0.379100
     14 NAV         7.6220    0.6680    4.8330 nd        1 0JL     -0.344000
     15 NAU         8.6530    0.7400    4.0820 nc        1 0JL     -0.136800
     16 NAR         8.3650    0.4260    2.8020 na        1 0JL      0.103400
     17 CAP         9.3230    0.3500    1.6910 c3        1 0JL      0.111300
     18 CAQ        10.2810    1.5400    1.6560 c3        1 0JL     -0.102100
     19 CAO        10.0950   -0.9460    1.7050 ca        1 0JL     -0.110300
     20 CAI         9.8560   -1.8850    0.7260 ca        1 0JL     -0.091000
     21 CAH        10.5950   -3.0960    0.6980 ca        1 0JL     -0.122300
     22 CAG        10.3790   -4.0740   -0.3100 ca        1 0JL     -0.120000
     23 CAN        11.0620   -1.1960    2.7120 ca        1 0JL     -0.114000
     24 CAM        11.7890   -2.3590    2.7160 ca        1 0JL     -0.157300
     25 CAL        11.5820   -3.3480    1.7010 ca        1 0JL      0.375600
     26 NAK        12.3260   -4.5120    1.7110 nb        1 0JL     -0.633000
     27 CAJ        12.1050   -5.4060    0.7670 ca        1 0JL      0.372200
     28 CAF        11.1320   -5.2340   -0.2760 ca        1 0JL      0.003800
     29 OAE        10.8640   -6.1790   -1.2420 os        1 0JL     -0.323900
     30 CAD        11.8390   -7.2230   -1.3790 c3        1 0JL      0.123400
     31 CAC        11.4780   -7.9550   -2.6680 c3        1 0JL      0.122400
     32 OAB        12.4530   -7.5740   -3.6350 os        1 0JL     -0.423600
     33 CAA        12.1450   -8.0460   -4.9360 c3        1 0JL      0.116700
     34 H1          0.3580    0.6300   -0.3900 hc        1 0JL      0.058033
     35 H2          0.2000   -0.7160   -1.6020 hc        1 0JL      0.058033
     36 H3         -0.2390   -1.0060    0.1360 hc        1 0JL      0.058033
     37 H4          2.1590    0.4880    1.5190 ha        1 0JL      0.170000
     38 H6          3.2750   -0.5590    3.4220 h4        1 0JL      0.167000
     39 H7          4.7440    0.1360    5.3430 ha        1 0JL      0.174000
     40 H8          8.6790    0.3810    0.7540 h1        1 0JL      0.103700
     41 H9         10.9320    1.5710    2.5620 hc        1 0JL      0.057700
     42 H10         9.7150    2.5000    1.5870 hc        1 0JL      0.057700
     43 H11        10.9290    1.4370    0.7530 hc        1 0JL      0.057700
     44 H12         9.0870   -1.7160   -0.0460 ha        1 0JL      0.153000
     45 H13         9.6250   -3.9090   -1.0920 ha        1 0JL      0.158000
     46 H14        11.2200   -0.4420    3.4990 ha        1 0JL      0.150000
     47 H15        12.5390   -2.5490    3.5000 ha        1 0JL      0.153000
     48 H16        12.7200   -6.3230    0.8130 h4        1 0JL      0.027100
     49 H17        11.7550   -7.9130   -0.4990 h1        1 0JL      0.057200
     50 H18        12.8710   -6.7900   -1.4420 h1        1 0JL      0.057200
     51 H19        11.5280   -9.0650   -2.5100 h1        1 0JL      0.047200
     52 H20        10.4490   -7.6690   -3.0160 h1        1 0JL      0.047200
     53 H21        12.9920   -7.6820   -5.5710 h1        1 0JL      0.035700
     54 H22        11.1760   -7.6180   -5.2920 h1        1 0JL      0.035700
     55 H23        12.0970   -9.1630   -4.9480 h1        1 0JL      0.035700
@<TRIPOS>BOND
     1    1    2 1   
     2    1   34 1   
     3    1   35 1   
     4    1   36 1   
     5    2    3 1   
     6    2    4 2   
     7    3    6 2   
     8    3   37 1   
     9    4    5 1   
    10    5    6 1   
    11    6    7 1   
    12    7    8 1   
    13    7   11 1   
    14    8    9 1   
    15    8   10 2   
    16    9   13 2   
    17    9   16 1   
    18   11   12 2   
    19   11   38 1   
    20   12   13 1   
    21   12   39 1   
    22   13   14 1   
    23   14   15 2   
    24   15   16 1   
    25   16   17 1   
    26   17   18 1   
    27   17   19 1   
    28   17   40 1   
    29   18   41 1   
    30   18   42 1   
    31   18   43 1   
    32   19   20 ar  
    33   19   23 ar  
    34   20   21 ar  
    35   20   44 1   
    36   21   22 ar  
    37   21   25 ar  
    38   22   28 ar  
    39   22   45 1   
    40   23   24 ar  
    41   23   46 1   
    42   24   25 ar  
    43   24   47 1   
    44   25   26 ar  
    45   26   27 ar  
    46   27   28 ar  
    47   27   48 1   
    48   28   29 1   
    49   29   30 1   
    50   30   31 1   
    51   30   49 1   
    52   30   50 1   
    53   31   32 1   
    54   31   51 1   
    55   31   52 1   
    56   32   33 1   
    57   33   53 1   
    58   33   54 1   
    59   33   55 1   
@<TRIPOS>SUBSTRUCTURE
     1 0JL         1 TEMP              0 ****  ****    0 ROOT
