@<TRIPOS>MOLECULE
0JM
   44    46     1     0     0
SMALL
bcc


@<TRIPOS>ATOM
      1 O5         -6.0000   -0.5100    0.5040 o         1 0JM     -0.835300
      2 C16        -5.1100   -0.1280   -0.3090 c         1 0JM      0.937600
      3 O1         -5.3430    0.3960   -1.4280 o         1 0JM     -0.835300
      4 C13        -3.6290   -0.3840    0.1700 c3        1 0JM      0.040500
      5 C12        -3.0400   -1.6520   -0.5120 c3        1 0JM      0.074100
      6 C14        -4.0570   -2.3730   -1.3600 c3        1 0JM     -0.084100
      7 C15        -2.4460   -2.5860    0.5170 c3        1 0JM     -0.084100
      8 S1         -1.6880   -1.0990   -1.6030 ss        1 0JM     -0.409200
      9 N2         -2.7790    0.7800   -0.0120 n3        1 0JM     -0.682600
     10 C11        -1.7450    0.5990   -1.0520 cy        1 0JM      0.232600
     11 C10        -1.7610    1.0670    1.0480 cy        1 0JM      0.322300
     12 O4         -1.9470    2.2790    1.7370 oh        1 0JM     -0.591800
     13 C9         -0.6270    1.1110   -0.0640 cy        1 0JM      0.057700
     14 N1          0.5280    0.3190    0.1330 n         1 0JM     -0.541900
     15 C8          1.8090    0.7970   -0.0800 c         1 0JM      0.691100
     16 O6          2.0020    1.9730   -0.4630 o         1 0JM     -0.665100
     17 C7          2.9330   -0.2080    0.1380 c3        1 0JM     -0.237400
     18 C17         2.8450   -0.7720    1.5980 c         1 0JM      0.928600
     19 O2          1.9510   -1.6450    1.7840 o         1 0JM     -0.823300
     20 O3          3.6360   -0.3550    2.4820 o         1 0JM     -0.823300
     21 C1          4.2650    0.3500   -0.2210 ca        1 0JM     -0.002300
     22 C6          4.8970   -0.0610   -1.4020 ca        1 0JM     -0.102500
     23 C2          4.9200    1.2690    0.6130 ca        1 0JM     -0.102500
     24 C3          6.1740    1.7650    0.2640 ca        1 0JM     -0.154500
     25 C4          6.7940    1.3540   -0.9160 ca        1 0JM     -0.161000
     26 C5          6.1530    0.4380   -1.7470 ca        1 0JM     -0.154500
     27 H2         -3.7150   -0.5920    1.2790 h1        1 0JM      0.061700
     28 H3         -4.4160   -1.7050   -2.1830 hc        1 0JM      0.041200
     29 H4         -3.6150   -3.2990   -1.7990 hc        1 0JM      0.041200
     30 H5         -4.9400   -2.6510   -0.7310 hc        1 0JM      0.041200
     31 H6         -3.2470   -2.9620    1.2010 hc        1 0JM      0.041200
     32 H7         -1.9660   -3.4640    0.0200 hc        1 0JM      0.041200
     33 H8         -1.6710   -2.0600    1.1280 hc        1 0JM      0.041200
     34 H10        -1.9030    1.2600   -1.9310 h2        1 0JM      0.090700
     35 H11        -1.6320    0.2920    1.8490 h2        1 0JM      0.090700
     36 H12        -2.2510    2.9450    1.1070 ho        1 0JM      0.405000
     37 H13        -0.3290    2.1670   -0.3070 h1        1 0JM      0.088700
     38 H14         0.4240   -0.6000    0.5190 hn        1 0JM      0.355500
     39 H15         2.7200   -1.0910   -0.5320 hc        1 0JM      0.072700
     40 H17         4.3980   -0.7830   -2.0650 ha        1 0JM      0.146500
     41 H18         4.4340    1.5610    1.5590 ha        1 0JM      0.146500
     42 H19         6.6780    2.4830    0.9260 ha        1 0JM      0.102500
     43 H20         7.7810    1.7500   -1.1890 ha        1 0JM      0.097000
     44 H21         6.6350    0.1080   -2.6780 ha        1 0JM      0.102500
@<TRIPOS>BOND
     1    1    2 1   
     2    2    3 1   
     3    2    4 1   
     4    4    5 1   
     5    4    9 1   
     6    4   27 1   
     7    5    6 1   
     8    5    7 1   
     9    5    8 1   
    10    6   28 1   
    11    6   29 1   
    12    6   30 1   
    13    7   31 1   
    14    7   32 1   
    15    7   33 1   
    16    8   10 1   
    17    9   10 1   
    18    9   11 1   
    19   10   13 1   
    20   10   34 1   
    21   11   12 1   
    22   11   13 1   
    23   11   35 1   
    24   12   36 1   
    25   13   14 1   
    26   13   37 1   
    27   14   15 1   
    28   14   38 1   
    29   15   16 2   
    30   15   17 1   
    31   17   18 1   
    32   17   21 1   
    33   17   39 1   
    34   18   19 1   
    35   18   20 1   
    36   21   22 ar  
    37   21   23 ar  
    38   22   26 ar  
    39   22   40 1   
    40   23   24 ar  
    41   23   41 1   
    42   24   25 ar  
    43   24   42 1   
    44   25   26 ar  
    45   25   43 1   
    46   26   44 1   
@<TRIPOS>SUBSTRUCTURE
     1 0JM         1 TEMP              0 ****  ****    0 ROOT
