@<TRIPOS>MOLECULE
0JM
   44    41     1     0     0
SMALL
bcc


@<TRIPOS>ATOM
      1 O5         -3.2830   -2.1060    3.0660 o         1 0JM     -0.570000
      2 C16        -3.9040   -2.2020    2.0080 c1        1 0JM      0.357000
      3 O1         -5.1570   -2.4830    2.0240 o         1 0JM     -0.570000
      4 C13        -3.2570   -2.1200    0.8430 c2        1 0JM     -0.107000
      5 C12        -3.2300   -0.5550    0.3230 c3        1 0JM     -0.108000
      6 C14        -4.2290    0.2760    1.1050 c3        1 0JM     -0.202000
      7 C15        -3.5510   -0.4970   -1.1720 c3        1 0JM     -0.202000
      8 S1         -1.7090   -0.0090    0.5960 ss        1 0JM     -0.045000
      9 N2         -1.8240   -2.3930    1.0480 n3        1 0JM     -0.208000
     10 C11        -1.1200   -0.9890    1.3880 cy        1 0JM     -0.147000
     11 C10        -0.5290   -2.8810    0.5160 cy        1 0JM      0.053000
     12 O4         -0.0380   -3.8640    1.2050 oh        1 0JM     -0.319000
     13 C9          0.1520   -1.4900    0.8580 cy        1 0JM     -0.019000
     14 N1          0.5600   -0.8260   -0.2330 n3        1 0JM     -0.351000
     15 C8          1.8230   -0.1090   -0.2150 c1        1 0JM      0.335000
     16 O6          2.5260   -0.1110    0.8110 o         1 0JM     -0.426000
     17 C7          2.2740    0.6560   -1.4350 c2        1 0JM     -0.184000
     18 C17         3.1980   -0.1950   -2.2390 c1        1 0JM      0.348000
     19 O2          4.4280   -0.1950   -1.9870 os        1 0JM     -0.549000
     20 O3          2.7470   -0.9350   -3.1310 o         1 0JM     -0.567000
     21 C1          3.0040    1.9260   -1.0000 c2        1 0JM      0.005000
     22 C6          2.4940    3.1780   -1.3500 c2        1 0JM     -0.138000
     23 C2          4.1660    1.8370   -0.2580 c1        1 0JM     -0.067000
     24 C3          4.8240    2.9910    0.1370 c1        1 0JM     -0.156500
     25 C4          4.3120    4.2430   -0.2140 c1        1 0JM     -0.156500
     26 C5          3.1510    4.3300   -0.9550 c1        1 0JM     -0.157000
     27 H2         -3.7480   -2.7390    0.3210 h4        1 0JM      0.101000
     28 H3         -4.0050    0.2480    2.0490 hc        1 0JM      0.080500
     29 H4         -4.1990    1.2080    0.7860 hc        1 0JM      0.080500
     30 H5         -5.1690   -0.1020    0.9680 hc        1 0JM      0.080500
     31 H6         -3.3340    0.3770   -1.5130 hc        1 0JM      0.080500
     32 H7         -4.5370   -0.6780   -1.3130 hc        1 0JM      0.080500
     33 H8         -3.0140   -1.1850   -1.6520 hc        1 0JM      0.080500
     34 H10        -1.1010   -0.7910    2.3180 h2        1 0JM      0.130000
     35 H11        -0.5580   -3.0570   -0.4460 h2        1 0JM      0.130000
     36 H12        -0.0030   -4.6150    0.6840 ho        1 0JM      0.204000
     37 H13         0.8210   -1.5670    1.5240 h1        1 0JM      0.128000
     38 H14         0.0660   -0.9010   -1.0510 hn        1 0JM      0.269000
     39 H15         1.5160    0.8910   -1.9620 ha        1 0JM      0.112000
     40 H17         1.7050    3.2390   -1.8530 ha        1 0JM      0.118000
     41 H18         4.5240    0.9640   -0.0140 ha        1 0JM      0.175000
     42 H19         5.6540    2.9310    0.5660 ha        1 0JM      0.101500
     43 H20         4.7780    5.0600    0.0660 ha        1 0JM      0.101500
     44 H21         2.7800    5.2420   -1.2200 ha        1 0JM      0.099000
@<TRIPOS>BOND
     1    1    2 1   
     2    2    3 1   
     3    4    5 1   
     4    4    9 1   
     5    4   27 1   
     6    5    6 1   
     7    5    7 1   
     8    5    8 1   
     9    6   28 1   
    10    6   29 1   
    11    6   30 1   
    12    7   31 1   
    13    7   32 1   
    14    7   33 1   
    15    8   10 1   
    16    9   10 1   
    17    9   11 1   
    18   10   13 1   
    19   10   34 1   
    20   11   12 1   
    21   11   13 1   
    22   11   35 1   
    23   12   36 1   
    24   13   14 1   
    25   13   37 1   
    26   14   15 1   
    27   14   38 1   
    28   15   16 1   
    29   17   18 1   
    30   17   21 1   
    31   17   39 1   
    32   18   20 1   
    33   21   22 1   
    34   21   23 1   
    35   22   26 1   
    36   22   40 1   
    37   23   41 1   
    38   24   25 1   
    39   24   42 1   
    40   25   43 1   
    41   26   44 1   
@<TRIPOS>SUBSTRUCTURE
     1 0JM         1 TEMP              0 ****  ****    0 ROOT
