@<TRIPOS>MOLECULE
0JM
   45    47     1     0     0
SMALL
bcc


@<TRIPOS>ATOM
      1 O5          1.8330    0.0120    1.9940 o         1 0JM     -0.800800
      2 C16         2.6320    0.3830    1.0970 c         1 0JM      0.949600
      3 O1          3.7280    0.9680    1.2500 o         1 0JM     -0.800800
      4 C13         2.1190    0.0680   -0.3800 c3        1 0JM     -0.002500
      5 C12         1.5230    1.3450   -1.0300 c3        1 0JM      0.098100
      6 C14         0.1920    1.0590   -1.6830 c3        1 0JM     -0.094100
      7 C15         1.4120    2.4890   -0.0570 c3        1 0JM     -0.094100
      8 S1          2.6950    1.8540   -2.3530 ss        1 0JM     -0.425200
      9 N2          3.1670   -0.5320   -1.1860 n3        1 0JM     -0.649600
     10 C11         3.7120    0.3930   -2.2020 cy        1 0JM      0.247600
     11 C10         2.7570   -1.5420   -2.2110 cy        1 0JM      0.352300
     12 O4          3.3100   -2.8180   -2.0700 oh        1 0JM     -0.576800
     13 C9          3.4880   -0.6760   -3.3290 cy        1 0JM      0.011500
     14 N1          2.6590   -0.2580   -4.4630 ny        1 0JM     -0.684800
     15 C8          3.3830   -0.0080   -5.7620 c         1 0JM      0.579100
     16 O6          4.5760   -0.2840   -5.8080 o         1 0JM     -0.482100
     17 C7          2.4840    0.4960   -6.8570 c3        1 0JM     -0.240400
     18 C17         1.4560   -0.6490   -7.2380 c         1 0JM      0.935600
     19 O2          1.2220   -0.8720   -8.4390 o         1 0JM     -0.778300
     20 O3          0.9090   -1.2310   -6.2520 o         1 0JM     -0.778300
     21 C1          3.2850    1.0410   -7.9870 ca        1 0JM     -0.064300
     22 C6          3.5900    2.4100   -8.0100 ca        1 0JM     -0.094500
     23 C2          3.7270    0.2250   -9.0340 ca        1 0JM     -0.094500
     24 C3          4.4710    0.7700  -10.0820 ca        1 0JM     -0.142000
     25 C4          4.7770    2.1290  -10.0940 ca        1 0JM     -0.127000
     26 C5          4.3330    2.9500   -9.0570 ca        1 0JM     -0.142000
     27 H2          1.2880   -0.6860   -0.2480 h1        1 0JM      0.076700
     28 H3          0.2740    0.2160   -2.4110 hc        1 0JM      0.051200
     29 H4         -0.5560    0.7770   -0.9000 hc        1 0JM      0.051200
     30 H5         -0.1880    1.9610   -2.2220 hc        1 0JM      0.051200
     31 H6          0.9180    3.3670   -0.5370 hc        1 0JM      0.051200
     32 H7          0.8090    2.1640    0.8300 hc        1 0JM      0.051200
     33 H8          2.4270    2.7860    0.3120 hc        1 0JM      0.051200
     34 H10         4.7750    0.6640   -2.0140 h2        1 0JM      0.131700
     35 H11         1.6560   -1.7010   -2.3660 h2        1 0JM      0.093700
     36 H12         4.1140   -2.7630   -1.5320 ho        1 0JM      0.433000
     37 H13         4.4380   -1.1470   -3.6920 hx        1 0JM      0.130700
     38 H14         1.9290   -0.9860   -4.6860 hn        1 0JM      0.488800
     39 H15         1.8260    1.3190   -6.4520 hc        1 0JM      0.088700
     40 H17         3.2380    3.0650   -7.1990 ha        1 0JM      0.144500
     41 H18         3.4530   -0.8440   -9.0420 ha        1 0JM      0.144500
     42 H19         4.8090    0.1210  -10.9020 ha        1 0JM      0.125000
     43 H20         5.3640    2.5550  -10.9200 ha        1 0JM      0.121000
     44 H21         4.5670    4.0240   -9.0660 ha        1 0JM      0.125000
     45 H121        2.1590    0.6180   -4.1910 hn        1 0JM      0.488800
@<TRIPOS>BOND
     1    1    2 1   
     2    2    3 1   
     3    2    4 1   
     4    4    5 1   
     5    4    9 1   
     6    4   27 1   
     7    5    6 1   
     8    5    7 1   
     9    5    8 1   
    10    6   28 1   
    11    6   29 1   
    12    6   30 1   
    13    7   31 1   
    14    7   32 1   
    15    7   33 1   
    16    8   10 1   
    17    9   10 1   
    18    9   11 1   
    19   10   13 1   
    20   10   34 1   
    21   11   12 1   
    22   11   13 1   
    23   11   35 1   
    24   12   36 1   
    25   13   14 1   
    26   13   37 1   
    27   14   15 1   
    28   14   38 1   
    29   14   45 1   
    30   15   16 2   
    31   15   17 1   
    32   17   18 1   
    33   17   21 1   
    34   17   39 1   
    35   18   19 1   
    36   18   20 1   
    37   21   22 ar  
    38   21   23 ar  
    39   22   26 ar  
    40   22   40 1   
    41   23   24 ar  
    42   23   41 1   
    43   24   25 ar  
    44   24   42 1   
    45   25   26 ar  
    46   25   43 1   
    47   26   44 1   
@<TRIPOS>SUBSTRUCTURE
     1 0JM         1 TEMP              0 ****  ****    0 ROOT
