@<TRIPOS>MOLECULE
0JM
   45    47     1     0     0
SMALL
bcc


@<TRIPOS>ATOM
      1 O5          1.8970    0.0840    2.0090 o         1 0JM     -0.800800
      2 C16         2.6850    0.4470    1.1000 c         1 0JM      0.949600
      3 O1          3.7810    1.0360    1.2350 o         1 0JM     -0.800800
      4 C13         2.1590    0.1120   -0.3690 c3        1 0JM     -0.002500
      5 C12         1.5530    1.3790   -1.0280 c3        1 0JM      0.098100
      6 C14         0.2160    1.0820   -1.6640 c3        1 0JM     -0.094100
      7 C15         1.4480    2.5350   -0.0670 c3        1 0JM     -0.094100
      8 S1          2.7100    1.8760   -2.3690 ss        1 0JM     -0.425200
      9 N2          3.2010   -0.4940   -1.1780 n3        1 0JM     -0.649600
     10 C11         3.7330    0.4200   -2.2100 cy        1 0JM      0.247600
     11 C10         2.7840   -1.5180   -2.1870 cy        1 0JM      0.352300
     12 O4          3.3420   -2.7900   -2.0370 oh        1 0JM     -0.576800
     13 C9          3.5010   -0.6630   -3.3220 cy        1 0JM      0.011500
     14 N1          2.6590   -0.2600   -4.4520 n4        1 0JM     -0.684800
     15 C8          3.3690   -0.0250   -5.7620 c         1 0JM      0.579100
     16 O6          4.5630   -0.2980   -5.8170 o         1 0JM     -0.482100
     17 C7          2.4580    0.4640   -6.8540 c3        1 0JM     -0.240400
     18 C17         1.4280   -0.6880   -7.2100 c         1 0JM      0.935600
     19 O2          1.1820   -0.9250   -8.4050 o         1 0JM     -0.778300
     20 O3          0.8940   -1.2580   -6.2120 o         1 0JM     -0.778300
     21 C1          3.2470    0.9970   -7.9990 ca        1 0JM     -0.064300
     22 C6          3.5480    2.3660   -8.0410 ca        1 0JM     -0.094500
     23 C2          3.6790    0.1690   -9.0400 ca        1 0JM     -0.094500
     24 C3          4.4110    0.7030  -10.1020 ca        1 0JM     -0.142000
     25 C4          4.7150    2.0620  -10.1340 ca        1 0JM     -0.127000
     26 C5          4.2790    2.8940   -9.1030 ca        1 0JM     -0.142000
     27 H2          1.3320   -0.6420   -0.2190 h1        1 0JM      0.076700
     28 H3         -0.5230    0.8070   -0.8710 hc        1 0JM      0.051200
     29 H4          0.2930    0.2310   -2.3830 hc        1 0JM      0.051200
     30 H5         -0.1720    1.9760   -2.2100 hc        1 0JM      0.051200
     31 H6          0.9460    3.4060   -0.5530 hc        1 0JM      0.051200
     32 H7          0.8540    2.2190    0.8290 hc        1 0JM      0.051200
     33 H8          2.4660    2.8390    0.2880 hc        1 0JM      0.051200
     34 H10         4.7960    0.6960   -2.0360 h2        1 0JM      0.131700
     35 H11         1.6810   -1.6810   -2.3290 h2        1 0JM      0.093700
     36 H12         4.1510   -2.7270   -1.5070 ho        1 0JM      0.433000
     37 H13         4.4480   -1.1350   -3.6890 hx        1 0JM      0.130700
     38 H14         1.9280   -0.9930   -4.6600 hn        1 0JM      0.488800
     39 H15         1.8030    1.2910   -6.4520 hc        1 0JM      0.088700
     40 H17         3.2030    3.0300   -7.2350 ha        1 0JM      0.144500
     41 H18         3.4070   -0.9000   -9.0320 ha        1 0JM      0.144500
     42 H19         4.7420    0.0440  -10.9180 ha        1 0JM      0.125000
     43 H20         5.2920    2.4790  -10.9710 ha        1 0JM      0.121000
     44 H21         4.5110    3.9690   -9.1260 ha        1 0JM      0.125000
     45 H121        2.1590    0.6170   -4.1860 hn        1 0JM      0.488800
@<TRIPOS>BOND
     1    1    2 1   
     2    2    3 1   
     3    2    4 1   
     4    4    5 1   
     5    4    9 1   
     6    4   27 1   
     7    5    6 1   
     8    5    7 1   
     9    5    8 1   
    10    6   28 1   
    11    6   29 1   
    12    6   30 1   
    13    7   31 1   
    14    7   32 1   
    15    7   33 1   
    16    8   10 1   
    17    9   10 1   
    18    9   11 1   
    19   10   13 1   
    20   10   34 1   
    21   11   12 1   
    22   11   13 1   
    23   11   35 1   
    24   12   36 1   
    25   13   14 1   
    26   13   37 1   
    27   14   15 1   
    28   14   38 1   
    29   14   45 1   
    30   15   16 2   
    31   15   17 1   
    32   17   18 1   
    33   17   21 1   
    34   17   39 1   
    35   18   19 1   
    36   18   20 1   
    37   21   22 ar  
    38   21   23 ar  
    39   22   26 ar  
    40   22   40 1   
    41   23   24 ar  
    42   23   41 1   
    43   24   25 ar  
    44   24   42 1   
    45   25   26 ar  
    46   25   43 1   
    47   26   44 1   
@<TRIPOS>SUBSTRUCTURE
     1 0JM         1 TEMP              0 ****  ****    0 ROOT
