@<TRIPOS>MOLECULE
0JM
   45    47     1     0     0
SMALL
bcc


@<TRIPOS>ATOM
      1 O5          1.8650    0.0430    2.0040 o         1 0JM     -0.800800
      2 C16         2.6560    0.4140    1.1010 c         1 0JM      0.949600
      3 O1          3.7490    1.0090    1.2450 o         1 0JM     -0.800800
      4 C13         2.1390    0.0860   -0.3720 c3        1 0JM     -0.002500
      5 C12         1.5300    1.3540   -1.0260 c3        1 0JM      0.098100
      6 C14         0.1970    1.0540   -1.6710 c3        1 0JM     -0.094100
      7 C15         1.4140    2.5030   -0.0590 c3        1 0JM     -0.094100
      8 S1          2.6910    1.8640   -2.3590 ss        1 0JM     -0.425200
      9 N2          3.1870   -0.5110   -1.1790 n3        1 0JM     -0.649600
     10 C11         3.7200    0.4120   -2.2040 cy        1 0JM      0.247600
     11 C10         2.7800   -1.5310   -2.1960 cy        1 0JM      0.352300
     12 O4          3.3440   -2.8010   -2.0500 oh        1 0JM     -0.576800
     13 C9          3.4980   -0.6660   -3.3230 cy        1 0JM      0.011500
     14 N1          2.6610   -0.2610   -4.4550 n4        1 0JM     -0.684800
     15 C8          3.3760   -0.0130   -5.7590 c         1 0JM      0.579100
     16 O6          4.5710   -0.2810   -5.8100 o         1 0JM     -0.482100
     17 C7          2.4680    0.4780   -6.8530 c3        1 0JM     -0.240400
     18 C17         1.4460   -0.6780   -7.2210 c         1 0JM      0.935600
     19 O2          1.2070   -0.9090   -8.4200 o         1 0JM     -0.778300
     20 O3          0.9090   -1.2570   -6.2290 o         1 0JM     -0.778300
     21 C1          3.2590    1.0220   -7.9910 ca        1 0JM     -0.064300
     22 C6          3.5540    2.3930   -8.0230 ca        1 0JM     -0.094500
     23 C2          3.7010    0.2020   -9.0350 ca        1 0JM     -0.094500
     24 C3          4.4360    0.7460  -10.0890 ca        1 0JM     -0.142000
     25 C4          4.7330    2.1080  -10.1110 ca        1 0JM     -0.127000
     26 C5          4.2870    2.9310   -9.0770 ca        1 0JM     -0.142000
     27 H2          1.3140   -0.6740   -0.2310 h1        1 0JM      0.076700
     28 H3          0.2820    0.2070   -2.3940 hc        1 0JM      0.051200
     29 H4         -0.1920    1.9490   -2.2140 hc        1 0JM      0.051200
     30 H5         -0.5450    0.7710   -0.8830 hc        1 0JM      0.051200
     31 H6          0.9110    3.3750   -0.5430 hc        1 0JM      0.051200
     32 H7          0.8180    2.1790    0.8320 hc        1 0JM      0.051200
     33 H8          2.4290    2.8100    0.3020 hc        1 0JM      0.051200
     34 H10         4.7820    0.6920   -2.0230 h2        1 0JM      0.131700
     35 H11         1.6790   -1.6980   -2.3450 h2        1 0JM      0.093700
     36 H12         4.1500   -2.7370   -1.5160 ho        1 0JM      0.433000
     37 H13         4.4500   -1.1310   -3.6880 hx        1 0JM      0.130700
     38 H14         2.1550    0.6130   -4.1860 hn        1 0JM      0.488800
     39 H15         1.8060    1.2980   -6.4490 hc        1 0JM      0.088700
     40 H17         3.2010    3.0500   -7.2140 ha        1 0JM      0.144500
     41 H18         3.4350   -0.8680   -9.0350 ha        1 0JM      0.144500
     42 H19         4.7740    0.0950  -10.9080 ha        1 0JM      0.125000
     43 H20         5.3120    2.5330  -10.9430 ha        1 0JM      0.121000
     44 H21         4.5140    4.0070   -9.0930 ha        1 0JM      0.125000
     45 H121        1.9350   -0.9960   -4.6700 hn        1 0JM      0.488800
@<TRIPOS>BOND
     1    1    2 1   
     2    2    3 1   
     3    2    4 1   
     4    4    5 1   
     5    4    9 1   
     6    4   27 1   
     7    5    6 1   
     8    5    7 1   
     9    5    8 1   
    10    6   28 1   
    11    6   29 1   
    12    6   30 1   
    13    7   31 1   
    14    7   32 1   
    15    7   33 1   
    16    8   10 1   
    17    9   10 1   
    18    9   11 1   
    19   10   13 1   
    20   10   34 1   
    21   11   12 1   
    22   11   13 1   
    23   11   35 1   
    24   12   36 1   
    25   13   14 1   
    26   13   37 1   
    27   14   15 1   
    28   14   38 1   
    29   14   45 1   
    30   15   16 2   
    31   15   17 1   
    32   17   18 1   
    33   17   21 1   
    34   17   39 1   
    35   18   19 1   
    36   18   20 1   
    37   21   22 ar  
    38   21   23 ar  
    39   22   26 ar  
    40   22   40 1   
    41   23   24 ar  
    42   23   41 1   
    43   24   25 ar  
    44   24   42 1   
    45   25   26 ar  
    46   25   43 1   
    47   26   44 1   
@<TRIPOS>SUBSTRUCTURE
     1 0JM         1 TEMP              0 ****  ****    0 ROOT
