@<TRIPOS>MOLECULE
0JN
   46    37     1     0     0
SMALL
bcc


@<TRIPOS>ATOM
      1 N1          0.2590    0.2880   -4.5850 n1        1 0JN     -0.272000
      2 C2          1.6190    0.3100   -4.5640 c1        1 0JN      0.028000
      3 N3          2.2830    0.3800   -3.3730 n1        1 0JN     -0.215000
      4 C4          1.5890    0.4280   -2.2120 c1        1 0JN     -0.101000
      5 C5          0.2390    0.4060   -2.2320 c1        1 0JN     -0.101000
      6 C6         -0.4310    0.3350   -3.4370 c1        1 0JN      0.228000
      7 CAA         3.9510    1.8040   -0.4880 c3        1 0JN     -0.223333
      8 CAB         3.2080    0.1350    1.2130 c3        1 0JN     -0.223333
      9 CAE        -3.6320   -0.1380    4.6790 c1        1 0JN     -0.124000
     10 CAF        -3.0440    1.0150    4.1500 c1        1 0JN     -0.124000
     11 CAG        -2.5710   -2.5430    0.6130 c1        1 0JN     -0.124000
     12 CAH        -1.9820   -1.3890    0.0810 c1        1 0JN     -0.119000
     13 CAI        -3.6550   -1.3090    3.9330 c1        1 0JN     -0.121000
     14 CAJ        -3.1210   -2.5190    1.8870 c1        1 0JN     -0.124000
     15 CAR        -1.9480   -0.2150    0.8320 c1        1 0JN     -0.077000
     16 CAS        -0.2130    0.3630   -0.9030 c1        1 0JN     -0.074000
     17 CAT        -3.0890   -1.3340    2.6480 c1        1 0JN     -0.037000
     18 NAX         1.9970    0.3990   -0.8890 n1        1 0JN     -0.133000
     19 CAY         3.3240    0.4260   -0.2840 c2        1 0JN      0.119000
     20 CAC         4.2030   -0.6320   -0.9390 c3        1 0JN     -0.223333
     21 NAP         0.8690    0.3590   -0.0940 n2        1 0JN     -0.043000
     22 NAD        -1.6810    0.5500   -4.1750 n3        1 0JN     -0.341000
     23 CAM        -1.5400    0.8090   -0.2380 c2        1 0JN     -0.062000
     24 CAU        -2.5070   -0.1910    2.1230 c1        1 0JN     -0.037000
     25 CAK        -2.4820    0.9890    2.8740 c1        1 0JN     -0.121000
     26 H1          2.1170    0.2770   -5.3980 ha        1 0JN      0.187000
     27 H2          3.3440    2.4930   -0.1470 hc        1 0JN      0.091000
     28 H3          4.1090    1.9510   -1.4370 hc        1 0JN      0.091000
     29 H4          4.7890    1.8500   -0.0110 hc        1 0JN      0.091000
     30 H5          4.0860    0.2050    1.6250 hc        1 0JN      0.091000
     31 H6          2.6040    0.7810    1.6240 hc        1 0JN      0.091000
     32 H7          2.8530   -0.7770    1.3450 hc        1 0JN      0.091000
     33 H8         -4.0230   -0.1200    5.5680 ha        1 0JN      0.134750
     34 H9         -3.0260    1.8410    4.6760 ha        1 0JN      0.134750
     35 H10        -2.5940   -3.3540    0.0930 ha        1 0JN      0.134750
     36 H11        -1.6030   -1.4060   -0.7950 ha        1 0JN      0.147000
     37 H12        -4.0730   -2.1320    4.3100 ha        1 0JN      0.134000
     38 H13        -3.5260   -3.3140    2.2530 ha        1 0JN      0.134750
     39 H14         4.5350   -0.2950   -1.7940 hc        1 0JN      0.091000
     40 H15         3.6870   -1.4320   -1.0880 hc        1 0JN      0.091000
     41 H16         4.9660   -0.8370   -0.3490 hc        1 0JN      0.091000
     42 H17        -2.4910    0.5190   -3.7320 hn        1 0JN      0.229500
     43 H18        -1.6610    0.6740   -5.0930 hn        1 0JN      0.229500
     44 H19        -1.4180    1.6660    0.1700 ha        1 0JN      0.113000
     45 H20        -2.2580    0.8690   -0.9320 ha        1 0JN      0.113000
     46 H21        -2.0640    1.8140    2.4940 ha        1 0JN      0.134000
@<TRIPOS>BOND
     1    1    6 1   
     2    2    3 1   
     3    2   26 1   
     4    4    5 1   
     5    6   22 1   
     6    7   19 1   
     7    7   27 1   
     8    7   28 1   
     9    7   29 1   
    10    8   19 1   
    11    8   30 1   
    12    8   31 1   
    13    8   32 1   
    14    9   10 1   
    15    9   33 1   
    16   10   34 1   
    17   11   14 1   
    18   11   35 1   
    19   12   15 1   
    20   12   36 1   
    21   13   17 1   
    22   13   37 1   
    23   14   38 1   
    24   15   23 1   
    25   16   21 1   
    26   17   24 1   
    27   18   21 1   
    28   19   20 1   
    29   20   39 1   
    30   20   40 1   
    31   20   41 1   
    32   22   42 1   
    33   22   43 1   
    34   23   44 1   
    35   23   45 1   
    36   24   25 1   
    37   25   46 1   
@<TRIPOS>SUBSTRUCTURE
     1 0JN         1 TEMP              0 ****  ****    0 ROOT
