@<TRIPOS>MOLECULE
0JN
   47    50     1     0     0
SMALL
bcc


@<TRIPOS>ATOM
      1 N1          0.4220   -1.8990    0.9150 nb        1 0JN     -0.704000
      2 C2          1.7370   -1.5120    0.8400 ca        1 0JN      0.679900
      3 N3          2.4280   -0.7450    1.7020 nb        1 0JN     -0.629000
      4 C4          1.7060   -0.3020    2.7740 ca        1 0JN      0.453800
      5 C5          0.2750   -0.6310    2.9740 ca        1 0JN     -0.422500
      6 C6         -0.2800   -1.4580    1.9810 ca        1 0JN      0.563200
      7 CAA         3.8050    2.0180    2.9380 c3        1 0JN     -0.112100
      8 CAB         3.4660    1.9060    5.3990 c3        1 0JN     -0.112100
      9 CAE        -1.4900   -4.8310    6.3140 ca        1 0JN     -0.104000
     10 CAF        -0.5410   -3.7910    6.4600 ca        1 0JN     -0.100000
     11 CAG        -4.5110   -1.7790    4.0540 ca        1 0JN     -0.153000
     12 CAH        -3.5570   -0.7420    4.1670 ca        1 0JN     -0.170000
     13 CAI        -2.6790   -4.5930    5.6680 ca        1 0JN     -0.117000
     14 CAJ        -4.2250   -3.0360    4.5250 ca        1 0JN     -0.106000
     15 CAR        -2.3240   -0.9680    4.7490 ca        1 0JN     -0.115300
     16 CAS        -0.0710    0.0430    4.2100 cc        1 0JN      0.355900
     17 CAT        -2.9710   -3.3050    5.1420 ca        1 0JN     -0.059000
     18 NAX         2.0730    0.4960    3.8680 na        1 0JN      0.045200
     19 CAY         3.4330    1.0870    4.0990 c3        1 0JN      0.092700
     20 CAC         4.4790   -0.0300    4.2110 c3        1 0JN     -0.112100
     21 NAP         1.0330    0.6840    4.6840 nd        1 0JN     -0.452100
     22 NAD        -1.6870   -1.8920    2.0880 n4        1 0JN     -0.835300
     23 CAM        -1.3810    0.1740    4.9050 c3        1 0JN     -0.063400
     24 CAU        -2.0120   -2.2630    5.2710 ca        1 0JN     -0.066000
     25 CAK        -0.7940   -2.5400    5.9500 ca        1 0JN     -0.132000
     26 H1          2.2890   -1.8890   -0.0520 h5        1 0JN      0.096100
     27 H2          3.0550    2.8370    2.8240 hc        1 0JN      0.063367
     28 H3          4.7980    2.4770    3.1680 hc        1 0JN      0.063367
     29 H4          3.8940    1.4630    1.9750 hc        1 0JN      0.063367
     30 H5          4.4980    2.3180    5.5210 hc        1 0JN      0.063367
     31 H6          2.7470    2.7590    5.3590 hc        1 0JN      0.063367
     32 H7          3.2320    1.2690    6.2850 hc        1 0JN      0.063367
     33 H10        -5.4960   -1.5540    3.6130 ha        1 0JN      0.159000
     34 H11        -3.8360    0.2680    3.8230 ha        1 0JN      0.151000
     35 H12        -3.4340   -5.3890    5.5630 ha        1 0JN      0.153000
     36 H13        -4.9680   -3.8480    4.4610 ha        1 0JN      0.159000
     37 H14         4.2280   -0.7340    5.0400 hc        1 0JN      0.063367
     38 H15         5.4670    0.4430    4.4350 hc        1 0JN      0.063367
     39 H16         4.5760   -0.6020    3.2590 hc        1 0JN      0.063367
     40 H17        -1.7810   -2.5080    2.9140 hn        1 0JN      0.478800
     41 H18        -2.2820   -1.0630    2.2340 hn        1 0JN      0.478800
     42 H19        -1.8650    1.1220    4.5270 hc        1 0JN      0.096200
     43 H20        -1.2070    0.3280    6.0120 hc        1 0JN      0.096200
     44 H21        -0.0600   -1.7290    6.0800 ha        1 0JN      0.148000
     45 H8         -1.2680   -5.8250    6.7330 ha        1 0JN      0.157000
     46 HAD3       -1.9870   -2.3960    1.2440 hn        1 0JN      0.478800
     47 H9          0.3980   -3.9960    6.9980 ha        1 0JN      0.154000
@<TRIPOS>BOND
     1    1    2 ar  
     2    1    6 ar  
     3    2    3 ar  
     4    2   26 1   
     5    3    4 ar  
     6    4    5 ar  
     7    4   18 1   
     8    5    6 ar  
     9    5   16 1   
    10    6   22 1   
    11    7   19 1   
    12    7   27 1   
    13    7   28 1   
    14    7   29 1   
    15    8   19 1   
    16    8   30 1   
    17    8   31 1   
    18    8   32 1   
    19    9   10 ar  
    20    9   13 ar  
    21    9   45 1   
    22   10   25 ar  
    23   10   47 1   
    24   11   12 ar  
    25   11   14 ar  
    26   11   33 1   
    27   12   15 ar  
    28   12   34 1   
    29   13   17 ar  
    30   13   35 1   
    31   14   17 ar  
    32   14   36 1   
    33   15   23 1   
    34   15   24 ar  
    35   16   21 2   
    36   16   23 1   
    37   17   24 ar  
    38   18   19 1   
    39   18   21 1   
    40   19   20 1   
    41   20   37 1   
    42   20   38 1   
    43   20   39 1   
    44   22   40 1   
    45   22   41 1   
    46   22   46 1   
    47   23   42 1   
    48   23   43 1   
    49   24   25 ar  
    50   25   44 1   
@<TRIPOS>SUBSTRUCTURE
     1 0JN         1 TEMP              0 ****  ****    0 ROOT
