@<TRIPOS>MOLECULE
0JN
   46    49     1     0     0
SMALL
bcc


@<TRIPOS>ATOM
      1 N1          0.0440    0.1530   -0.2290 nb        1 0JN     -0.801000
      2 C2          1.3980    0.1690   -0.0960 ca        1 0JN      0.691900
      3 N3          2.1550    0.1320    1.0190 nb        1 0JN     -0.740000
      4 C4          1.4140    0.0660    2.1700 ca        1 0JN      0.472800
      5 C5         -0.0460    0.0350    2.1910 ca        1 0JN     -0.489500
      6 C6         -0.7040    0.0720    0.9210 ca        1 0JN      0.752200
      7 CAA         3.9840    1.2530    3.5270 c3        1 0JN     -0.105767
      8 CAB         3.3110   -0.0570    5.5240 c3        1 0JN     -0.105767
      9 CAE        -1.3070   -3.1460    8.4370 ca        1 0JN     -0.127000
     10 CAF        -0.8510   -1.8440    8.1240 ca        1 0JN     -0.130000
     11 CAG        -3.2560   -3.5510    4.0140 ca        1 0JN     -0.128000
     12 CAH        -2.8240   -2.2440    3.6970 ca        1 0JN     -0.123000
     13 CAI        -2.0020   -3.8710    7.5030 ca        1 0JN     -0.121000
     14 CAJ        -2.9920   -4.0820    5.2510 ca        1 0JN     -0.115000
     15 CAR        -2.1270   -1.4790    4.6090 ca        1 0JN     -0.066300
     16 CAS        -0.3790   -0.0340    3.6020 cc        1 0JN      0.377900
     17 CAT        -2.2770   -3.3260    6.2180 ca        1 0JN     -0.038000
     18 NAX         1.8260    0.0280    3.5160 na        1 0JN      0.007200
     19 CAY         3.2310   -0.0050    3.9890 c3        1 0JN      0.100700
     20 CAC         3.9580   -1.2440    3.4430 c3        1 0JN     -0.105767
     21 NAP         0.7630   -0.0360    4.3360 nd        1 0JN     -0.513100
     22 NAD        -2.0760   -0.0180    0.8180 nv        1 0JN     -0.955500
     23 CAM        -1.7250   -0.0890    4.2350 c3        1 0JN     -0.038400
     24 CAU        -1.8300   -2.0150    5.9010 ca        1 0JN     -0.020000
     25 CAK        -1.1040   -1.2940    6.8910 ca        1 0JN     -0.112000
     26 H1          1.9580    0.2250   -1.0550 h5        1 0JN      0.051100
     27 H2          5.0200    1.2160    3.9440 hc        1 0JN      0.051922
     28 H3          3.4820    2.1760    3.9020 hc        1 0JN      0.051922
     29 H4          4.0550    1.3010    2.4160 hc        1 0JN      0.051922
     30 H5          2.8200   -0.9770    5.9210 hc        1 0JN      0.051922
     31 H6          4.3880   -0.0730    5.8190 hc        1 0JN      0.051922
     32 H7          2.8300    0.8390    5.9820 hc        1 0JN      0.051922
     33 H9         -0.2870   -1.2780    8.8810 ha        1 0JN      0.132000
     34 H10        -3.8040   -4.1300    3.2560 ha        1 0JN      0.133000
     35 H11        -3.0540   -1.8470    2.6960 ha        1 0JN      0.129000
     36 H12        -2.3600   -4.8870    7.7290 ha        1 0JN      0.131000
     37 H13        -3.3250   -5.0970    5.5140 ha        1 0JN      0.133000
     38 H14         4.0190   -1.2230    2.3300 hc        1 0JN      0.051922
     39 H15         4.9970   -1.2520    3.8530 hc        1 0JN      0.051922
     40 H16         3.4400   -2.1800    3.7630 hc        1 0JN      0.051922
     41 H17        -2.5030    0.1420   -0.0640 hn        1 0JN      0.432300
     42 H18        -2.6140    0.1630    1.6280 hn        1 0JN      0.432300
     43 H19        -2.4850    0.3460    3.5330 hc        1 0JN      0.057200
     44 H20        -1.7420    0.5720    5.1470 hc        1 0JN      0.057200
     45 H21        -0.7250   -0.2870    6.6570 ha        1 0JN      0.143000
     46 H8         -1.0940   -3.5640    9.4320 ha        1 0JN      0.131000
@<TRIPOS>BOND
     1    1    2 ar  
     2    1    6 ar  
     3    2    3 ar  
     4    2   26 1   
     5    3    4 ar  
     6    4    5 ar  
     7    4   18 1   
     8    5    6 ar  
     9    5   16 1   
    10    6   22 1   
    11    7   19 1   
    12    7   27 1   
    13    7   28 1   
    14    7   29 1   
    15    8   19 1   
    16    8   30 1   
    17    8   31 1   
    18    8   32 1   
    19    9   10 ar  
    20    9   13 ar  
    21    9   46 1   
    22   10   25 ar  
    23   10   33 1   
    24   11   12 ar  
    25   11   14 ar  
    26   11   34 1   
    27   12   15 ar  
    28   12   35 1   
    29   13   17 ar  
    30   13   36 1   
    31   14   17 ar  
    32   14   37 1   
    33   15   23 1   
    34   15   24 ar  
    35   16   21 2   
    36   16   23 1   
    37   17   24 ar  
    38   18   19 1   
    39   18   21 1   
    40   19   20 1   
    41   20   38 1   
    42   20   39 1   
    43   20   40 1   
    44   22   41 1   
    45   22   42 1   
    46   23   43 1   
    47   23   44 1   
    48   24   25 ar  
    49   25   45 1   
@<TRIPOS>SUBSTRUCTURE
     1 0JN         1 TEMP              0 ****  ****    0 ROOT
