@<TRIPOS>MOLECULE
0JN
   46    49     1     0     0
SMALL
bcc


@<TRIPOS>ATOM
      1 N1         -3.2840    2.8730    0.2070 nb        1 0JN     -0.798000
      2 C2         -4.0540    1.8280    0.6180 ca        1 0JN      0.689900
      3 N3         -3.7920    0.5060    0.6020 nb        1 0JN     -0.738000
      4 C4         -2.5600    0.2080    0.0810 ca        1 0JN      0.470800
      5 C5         -1.6250    1.2180   -0.4090 ca        1 0JN     -0.485500
      6 C6         -2.0530    2.5790   -0.3270 ca        1 0JN      0.745200
      7 CAA        -3.8060   -2.6190   -0.4730 c3        1 0JN     -0.105767
      8 CAB        -1.5200   -3.5010   -0.0820 c3        1 0JN     -0.105767
      9 CAE         4.5210   -2.2960    0.1170 ca        1 0JN     -0.125000
     10 CAF         3.4370   -2.4180   -0.7840 ca        1 0JN     -0.130000
     11 CAG         3.2440    2.2880    1.0600 ca        1 0JN     -0.128000
     12 CAH         2.1640    2.1790    0.1550 ca        1 0JN     -0.128000
     13 CAI         4.7260   -1.1140    0.7840 ca        1 0JN     -0.122000
     14 CAJ         4.0770    1.2180    1.2690 ca        1 0JN     -0.114000
     15 CAR         1.9150    1.0070   -0.5290 ca        1 0JN     -0.060300
     16 CAS        -0.4810    0.4520   -0.8670 cc        1 0JN      0.378900
     17 CAT         3.8600   -0.0050    0.5770 ca        1 0JN     -0.036000
     18 NAX        -1.9290   -1.0350   -0.1140 na        1 0JN      0.007200
     19 CAY        -2.4860   -2.3560    0.2680 c3        1 0JN      0.100700
     20 CAC        -2.7490   -2.4160    1.7800 c3        1 0JN     -0.105767
     21 NAP        -0.7150   -0.8710   -0.6660 nd        1 0JN     -0.513100
     22 NAD        -1.2740    3.6070   -0.8270 nh        1 0JN     -0.946500
     23 CAM         0.7730    0.9530   -1.4920 c3        1 0JN     -0.045400
     24 CAU         2.7710   -0.1210   -0.3280 ca        1 0JN     -0.021000
     25 CAK         2.5860   -1.3620   -1.0010 ca        1 0JN     -0.109000
     26 H1         -5.0440    2.1170    1.0340 h5        1 0JN      0.051100
     27 H2         -4.1680   -3.6390   -0.1980 hc        1 0JN      0.051922
     28 H3         -4.5900   -1.8790   -0.1860 hc        1 0JN      0.051922
     29 H4         -3.6560   -2.5800   -1.5790 hc        1 0JN      0.051922
     30 H5         -1.3190   -3.5360   -1.1790 hc        1 0JN      0.051922
     31 H6         -0.5530   -3.3910    0.4620 hc        1 0JN      0.051922
     32 H7         -1.9940   -4.4650    0.2240 hc        1 0JN      0.051922
     33 H9          3.2840   -3.3730   -1.3080 ha        1 0JN      0.132000
     34 H10         3.4040    3.2390    1.5890 ha        1 0JN      0.132000
     35 H11         1.5240    3.0610    0.0060 ha        1 0JN      0.116000
     36 H12         5.5630   -1.0020    1.4900 ha        1 0JN      0.132000
     37 H13         4.9220    1.2870    1.9690 ha        1 0JN      0.134000
     38 H14        -3.1270   -3.4350    2.0330 hc        1 0JN      0.051922
     39 H15        -1.8090   -2.2320    2.3530 hc        1 0JN      0.051922
     40 H16        -3.5160   -1.6680    2.0910 hc        1 0JN      0.051922
     41 H17        -0.3010    3.4320   -0.9020 hn        1 0JN      0.427300
     42 H18        -1.5470    4.5420   -0.6320 hn        1 0JN      0.427300
     43 H19         0.5900    1.9730   -1.9230 hc        1 0JN      0.063700
     44 H20         1.0460    0.2980   -2.3670 hc        1 0JN      0.063700
     45 H21         1.7400   -1.4800   -1.6940 ha        1 0JN      0.145000
     46 H8          5.1890   -3.1550    0.2740 ha        1 0JN      0.132000
@<TRIPOS>BOND
     1    1    2 ar  
     2    1    6 ar  
     3    2    3 ar  
     4    2   26 1   
     5    3    4 ar  
     6    4    5 ar  
     7    4   18 1   
     8    5    6 ar  
     9    5   16 1   
    10    6   22 1   
    11    7   19 1   
    12    7   27 1   
    13    7   28 1   
    14    7   29 1   
    15    8   19 1   
    16    8   30 1   
    17    8   31 1   
    18    8   32 1   
    19    9   10 ar  
    20    9   13 ar  
    21    9   46 1   
    22   10   25 ar  
    23   10   33 1   
    24   11   12 ar  
    25   11   14 ar  
    26   11   34 1   
    27   12   15 ar  
    28   12   35 1   
    29   13   17 ar  
    30   13   36 1   
    31   14   17 ar  
    32   14   37 1   
    33   15   23 1   
    34   15   24 ar  
    35   16   21 2   
    36   16   23 1   
    37   17   24 ar  
    38   18   19 1   
    39   18   21 1   
    40   19   20 1   
    41   20   38 1   
    42   20   39 1   
    43   20   40 1   
    44   22   41 1   
    45   22   42 1   
    46   23   43 1   
    47   23   44 1   
    48   24   25 ar  
    49   25   45 1   
@<TRIPOS>SUBSTRUCTURE
     1 0JN         1 TEMP              0 ****  ****    0 ROOT
