@<TRIPOS>MOLECULE
0JN
   46    49     1     0     0
SMALL
bcc


@<TRIPOS>ATOM
      1 N1          0.0400    0.1520   -0.2290 nb        1 0JN     -0.801000
      2 C2          1.3940    0.1690   -0.0970 ca        1 0JN      0.691900
      3 N3          2.1520    0.1330    1.0180 nb        1 0JN     -0.740000
      4 C4          1.4120    0.0660    2.1690 ca        1 0JN      0.472800
      5 C5         -0.0490    0.0340    2.1910 ca        1 0JN     -0.489500
      6 C6         -0.7070    0.0710    0.9220 ca        1 0JN      0.752200
      7 CAA         3.9830    1.2540    3.5230 c3        1 0JN     -0.105767
      8 CAB         3.3120   -0.0550    5.5220 c3        1 0JN     -0.105767
      9 CAE        -1.3010   -3.1460    8.4380 ca        1 0JN     -0.127000
     10 CAF        -0.8460   -1.8430    8.1240 ca        1 0JN     -0.130000
     11 CAG        -3.2560   -3.5510    4.0170 ca        1 0JN     -0.128000
     12 CAH        -2.8250   -2.2440    3.6990 ca        1 0JN     -0.123000
     13 CAI        -1.9980   -3.8710    7.5050 ca        1 0JN     -0.121000
     14 CAJ        -2.9900   -4.0830    5.2530 ca        1 0JN     -0.115000
     15 CAR        -2.1270   -1.4790    4.6110 ca        1 0JN     -0.066300
     16 CAS        -0.3800   -0.0340    3.6020 cc        1 0JN      0.377900
     17 CAT        -2.2740   -3.3260    6.2200 ca        1 0JN     -0.038000
     18 NAX         1.8250    0.0290    3.5140 na        1 0JN      0.007200
     19 CAY         3.2300   -0.0040    3.9870 c3        1 0JN      0.100700
     20 CAC         3.9570   -1.2430    3.4410 c3        1 0JN     -0.105767
     21 NAP         0.7620   -0.0350    4.3350 nd        1 0JN     -0.513100
     22 NAD        -2.0790   -0.0190    0.8190 nh        1 0JN     -0.955500
     23 CAM        -1.7260   -0.0890    4.2360 c3        1 0JN     -0.038400
     24 CAU        -1.8280   -2.0150    5.9020 ca        1 0JN     -0.020000
     25 CAK        -1.1010   -1.2940    6.8910 ca        1 0JN     -0.112000
     26 H1          1.9530    0.2250   -1.0560 h5        1 0JN      0.051100
     27 H2          4.0530    1.3010    2.4110 hc        1 0JN      0.051922
     28 H3          5.0190    1.2170    3.9400 hc        1 0JN      0.051922
     29 H4          3.4810    2.1770    3.8970 hc        1 0JN      0.051922
     30 H5          4.3890   -0.0700    5.8160 hc        1 0JN      0.051922
     31 H6          2.8210   -0.9740    5.9200 hc        1 0JN      0.051922
     32 H7          2.8300    0.8420    5.9790 hc        1 0JN      0.051922
     33 H9         -0.2820   -1.2780    8.8800 ha        1 0JN      0.132000
     34 H10        -3.8050   -4.1310    3.2600 ha        1 0JN      0.133000
     35 H11        -3.0560   -1.8470    2.6990 ha        1 0JN      0.129000
     36 H12        -2.3540   -4.8870    7.7310 ha        1 0JN      0.131000
     37 H13        -3.3230   -5.0980    5.5170 ha        1 0JN      0.133000
     38 H14         3.4390   -2.1780    3.7620 hc        1 0JN      0.051922
     39 H15         4.9960   -1.2510    3.8500 hc        1 0JN      0.051922
     40 H16         4.0160   -1.2230    2.3280 hc        1 0JN      0.051922
     41 H17        -2.6160    0.1610    1.6300 hn        1 0JN      0.432300
     42 H18        -2.5070    0.1400   -0.0620 hn        1 0JN      0.432300
     43 H19        -2.4860    0.3450    3.5340 hc        1 0JN      0.057200
     44 H20        -1.7420    0.5720    5.1480 hc        1 0JN      0.057200
     45 H21        -0.7230   -0.2870    6.6570 ha        1 0JN      0.143000
     46 H8         -1.0870   -3.5640    9.4320 ha        1 0JN      0.131000
@<TRIPOS>BOND
     1    1    2 ar  
     2    1    6 ar  
     3    2    3 ar  
     4    2   26 1   
     5    3    4 ar  
     6    4    5 ar  
     7    4   18 1   
     8    5    6 ar  
     9    5   16 1   
    10    6   22 1   
    11    7   19 1   
    12    7   27 1   
    13    7   28 1   
    14    7   29 1   
    15    8   19 1   
    16    8   30 1   
    17    8   31 1   
    18    8   32 1   
    19    9   10 ar  
    20    9   13 ar  
    21    9   46 1   
    22   10   25 ar  
    23   10   33 1   
    24   11   12 ar  
    25   11   14 ar  
    26   11   34 1   
    27   12   15 ar  
    28   12   35 1   
    29   13   17 ar  
    30   13   36 1   
    31   14   17 ar  
    32   14   37 1   
    33   15   23 1   
    34   15   24 ar  
    35   16   21 2   
    36   16   23 1   
    37   17   24 ar  
    38   18   19 1   
    39   18   21 1   
    40   19   20 1   
    41   20   38 1   
    42   20   39 1   
    43   20   40 1   
    44   22   41 1   
    45   22   42 1   
    46   23   43 1   
    47   23   44 1   
    48   24   25 ar  
    49   25   45 1   
@<TRIPOS>SUBSTRUCTURE
     1 0JN         1 TEMP              0 ****  ****    0 ROOT
