@<TRIPOS>MOLECULE
0JO
   31    31     1     0     0
SMALL
bcc


@<TRIPOS>ATOM
      1 O           2.2870   -2.3710   -0.9570 o         1 0JO     -0.846300
      2 C           2.8700   -1.2530   -0.8950 c         1 0JO      0.922800
      3 OXT         4.0680   -1.1090   -0.5140 o         1 0JO     -0.846300
      4 CA          2.0760    0.0210   -1.2430 ce        1 0JO      0.059400
      5 CB          2.1540    1.0750   -0.4080 c2        1 0JO     -0.298000
      6 N           1.3650    0.0160   -2.4580 ne        1 0JO     -0.606300
      7 C4A         0.1380    0.4130   -2.5330 cf        1 0JO      0.491800
      8 C4         -0.6500    0.4080   -3.7760 ca        1 0JO     -0.215900
      9 C3         -0.5420   -0.6470   -4.7190 ca        1 0JO      0.026800
     10 O3          0.3010   -1.7280   -4.6030 oh        1 0JO     -0.539100
     11 C2         -1.3610   -0.6480   -5.8740 ca        1 0JO      0.291600
     12 C2A        -1.2210   -1.7820   -6.8330 c3        1 0JO     -0.104400
     13 N1         -2.2560    0.3470   -6.1230 nb        1 0JO     -0.674000
     14 C6         -2.3500    1.3400   -5.2400 ca        1 0JO      0.354200
     15 C5         -1.5740    1.4270   -4.0450 ca        1 0JO     -0.128600
     16 C5A        -1.8030    2.6510   -3.1850 c3        1 0JO      0.245700
     17 OP4        -3.1320    2.9610   -3.0570 os        1 0JO     -0.563200
     18 P          -3.6600    4.4200   -3.8400 p5        1 0JO      1.316900
     19 OP3        -2.4580    5.3130   -3.6890 o         1 0JO     -0.924833
     20 OP1        -3.9010    3.9090   -5.2420 o         1 0JO     -0.924833
     21 OP2        -4.8820    4.7990   -3.0530 o         1 0JO     -0.924833
     22 H2          2.8180    1.0380    0.4640 ha        1 0JO      0.099500
     23 H3          1.6100    2.0140   -0.5610 ha        1 0JO      0.099500
     24 H4         -0.4340    0.7860   -1.6510 h4        1 0JO     -0.013200
     25 H5          0.8170   -1.6450   -3.7840 ho        1 0JO      0.454000
     26 H6         -0.1630   -1.8330   -7.1950 hc        1 0JO      0.018700
     27 H7         -1.4500   -2.7420   -6.3080 hc        1 0JO      0.018700
     28 H8         -1.8990   -1.6810   -7.7140 hc        1 0JO      0.018700
     29 H9         -3.0890    2.1900   -5.4280 h4        1 0JO      0.150100
     30 H10        -1.2350    3.5120   -3.6550 h1        1 0JO      0.020200
     31 H11        -1.3670    2.4570   -2.1600 h1        1 0JO      0.020200
@<TRIPOS>BOND
     1    1    2 1   
     2    2    3 1   
     3    2    4 1   
     4    4    5 2   
     5    4    6 1   
     6    5   22 1   
     7    5   23 1   
     8    6    7 2   
     9    7    8 1   
    10    7   24 1   
    11    8    9 ar  
    12    8   15 ar  
    13    9   10 1   
    14    9   11 ar  
    15   10   25 1   
    16   11   12 1   
    17   11   13 ar  
    18   12   26 1   
    19   12   27 1   
    20   12   28 1   
    21   13   14 ar  
    22   14   15 ar  
    23   14   29 1   
    24   15   16 1   
    25   16   17 1   
    26   16   30 1   
    27   16   31 1   
    28   17   18 1   
    29   18   19 1   
    30   18   20 1   
    31   18   21 1   
@<TRIPOS>SUBSTRUCTURE
     1 0JO         1 TEMP              0 ****  ****    0 ROOT
