@<TRIPOS>MOLECULE
0JO
   31    31     1     0     0
SMALL
bcc


@<TRIPOS>ATOM
      1 O           2.3250   -2.3970   -1.0320 o         1 0JO     -0.846300
      2 C           2.8880   -1.2720   -0.9340 c         1 0JO      0.922800
      3 OXT         4.0810   -1.1190   -0.5400 o         1 0JO     -0.846300
      4 CA          2.0750   -0.0020   -1.2490 ce        1 0JO      0.059400
      5 CB          2.1310    1.0300   -0.3830 c2        1 0JO     -0.298000
      6 N           1.3710    0.0170   -2.4680 ne        1 0JO     -0.606300
      7 C4A         0.1380    0.3960   -2.5390 cf        1 0JO      0.491800
      8 C4         -0.6420    0.4150   -3.7870 ca        1 0JO     -0.215900
      9 C3         -0.5110   -0.6100   -4.7590 ca        1 0JO      0.026800
     10 O3          0.3500   -1.6790   -4.6700 oh        1 0JO     -0.539100
     11 C2         -1.3230   -0.5920   -5.9190 ca        1 0JO      0.291600
     12 C2A        -1.1580   -1.6940   -6.9100 c3        1 0JO     -0.104400
     13 N1         -2.2340    0.3950   -6.1440 nb        1 0JO     -0.674000
     14 C6         -2.3500    1.3600   -5.2330 ca        1 0JO      0.354200
     15 C5         -1.5830    1.4240   -4.0310 ca        1 0JO     -0.128600
     16 C5A        -1.8370    2.6180   -3.1370 c3        1 0JO      0.245700
     17 OP4        -3.1720    2.9020   -3.0090 os        1 0JO     -0.563200
     18 P          -3.7210    4.3740   -3.7520 p5        1 0JO      1.316900
     19 OP3        -2.5350    5.2830   -3.5670 o         1 0JO     -0.924833
     20 OP1        -3.9460    3.9010   -5.1690 o         1 0JO     -0.924833
     21 OP2        -4.9530    4.7090   -2.9620 o         1 0JO     -0.924833
     22 H2          2.7900    0.9780    0.4910 ha        1 0JO      0.099500
     23 H3          1.5720    1.9630   -0.5120 ha        1 0JO      0.099500
     24 H4         -0.4450    0.7340   -1.6500 h4        1 0JO     -0.013200
     25 H5          0.8590   -1.6130   -3.8460 ho        1 0JO      0.454000
     26 H6         -1.3660   -2.6740   -6.4130 hc        1 0JO      0.018367
     27 H7         -0.1000   -1.7110   -7.2720 hc        1 0JO      0.018367
     28 H8         -1.8380   -1.5830   -7.7880 hc        1 0JO      0.018367
     29 H9         -3.1030    2.2020   -5.4010 h4        1 0JO      0.150100
     30 H10        -1.2820    3.5030   -3.5790 h1        1 0JO      0.020200
     31 H11        -1.4040    2.4020   -2.1150 h1        1 0JO      0.020200
@<TRIPOS>BOND
     1    1    2 1   
     2    2    3 1   
     3    2    4 1   
     4    4    5 2   
     5    4    6 1   
     6    5   22 1   
     7    5   23 1   
     8    6    7 2   
     9    7    8 1   
    10    7   24 1   
    11    8    9 ar  
    12    8   15 ar  
    13    9   10 1   
    14    9   11 ar  
    15   10   25 1   
    16   11   12 1   
    17   11   13 ar  
    18   12   26 1   
    19   12   27 1   
    20   12   28 1   
    21   13   14 ar  
    22   14   15 ar  
    23   14   29 1   
    24   15   16 1   
    25   16   17 1   
    26   16   30 1   
    27   16   31 1   
    28   17   18 1   
    29   18   19 1   
    30   18   20 1   
    31   18   21 1   
@<TRIPOS>SUBSTRUCTURE
     1 0JO         1 TEMP              0 ****  ****    0 ROOT
