@<TRIPOS>MOLECULE
0JO
   31    31     1     0     0
SMALL
bcc


@<TRIPOS>ATOM
      1 O           5.2840   -0.9810   -1.2960 o         1 0JO     -0.846300
      2 C           5.0530   -1.5790   -0.2090 c         1 0JO      0.922800
      3 OXT         5.9450   -2.1630    0.4720 o         1 0JO     -0.846300
      4 CA          3.6010   -1.6640    0.3010 ce        1 0JO      0.059400
      5 CB          3.1350   -2.8570    0.7200 c2        1 0JO     -0.298000
      6 N           2.8740   -0.4600    0.3530 ne        1 0JO     -0.606300
      7 C4A         1.6690   -0.3680   -0.1070 cf        1 0JO      0.491800
      8 C4          0.8790    0.8740   -0.0900 ca        1 0JO     -0.215900
      9 C3          1.4730    2.1350   -0.3500 ca        1 0JO      0.026800
     10 O3          2.8100    2.3420   -0.6040 oh        1 0JO     -0.539100
     11 C2          0.6700    3.3000   -0.3870 ca        1 0JO      0.291600
     12 C2A         1.3360    4.6040   -0.6730 c3        1 0JO     -0.104400
     13 N1         -0.6730    3.2560   -0.1670 nb        1 0JO     -0.674000
     14 C6         -1.2270    2.0710    0.0830 ca        1 0JO      0.354200
     15 C5         -0.5030    0.8410    0.1340 ca        1 0JO     -0.128600
     16 C5A        -1.3080   -0.3960    0.4670 c3        1 0JO      0.245700
     17 OP4        -2.5060   -0.4360   -0.1970 os        1 0JO     -0.563200
     18 P          -3.9330   -0.2440    0.7770 p5        1 0JO      1.316900
     19 OP3        -3.5340   -0.9250    2.0600 o         1 0JO     -0.924833
     20 OP1        -4.0130    1.2630    0.8550 o         1 0JO     -0.924833
     21 OP2        -4.9930   -0.9230   -0.0420 o         1 0JO     -0.924833
     22 H2          2.1110   -3.0180    1.0780 ha        1 0JO      0.099500
     23 H3          3.8000   -3.7270    0.7490 ha        1 0JO      0.099500
     24 H4          1.1290   -1.2280   -0.5680 h4        1 0JO     -0.013200
     25 H5          3.2790    1.4940   -0.5640 ho        1 0JO      0.454000
     26 H6          1.8330    4.5550   -1.6740 hc        1 0JO      0.018700
     27 H7          0.6180    5.4590   -0.6680 hc        1 0JO      0.018700
     28 H8          2.1280    4.7920    0.0940 hc        1 0JO      0.018700
     29 H9         -2.3510    2.0070    0.2760 h4        1 0JO      0.150100
     30 H10        -0.6990   -1.3080    0.1880 h1        1 0JO      0.020200
     31 H11        -1.4720   -0.4080    1.5890 h1        1 0JO      0.020200
@<TRIPOS>BOND
     1    1    2 1   
     2    2    3 1   
     3    2    4 1   
     4    4    5 2   
     5    4    6 1   
     6    5   22 1   
     7    5   23 1   
     8    6    7 2   
     9    7    8 1   
    10    7   24 1   
    11    8    9 ar  
    12    8   15 ar  
    13    9   10 1   
    14    9   11 ar  
    15   10   25 1   
    16   11   12 1   
    17   11   13 ar  
    18   12   26 1   
    19   12   27 1   
    20   12   28 1   
    21   13   14 ar  
    22   14   15 ar  
    23   14   29 1   
    24   15   16 1   
    25   16   17 1   
    26   16   30 1   
    27   16   31 1   
    28   17   18 1   
    29   18   19 1   
    30   18   20 1   
    31   18   21 1   
@<TRIPOS>SUBSTRUCTURE
     1 0JO         1 TEMP              0 ****  ****    0 ROOT
