@<TRIPOS>MOLECULE
0JO
   31    31     1     0     0
SMALL
bcc


@<TRIPOS>ATOM
      1 O           2.2580   -2.3450   -0.8940 o         1 0JO     -0.846300
      2 C           2.8510   -1.2320   -0.8560 c         1 0JO      0.922800
      3 OXT         4.0510   -1.0910   -0.4770 o         1 0JO     -0.846300
      4 CA          2.0700    0.0420   -1.2290 ce        1 0JO      0.059400
      5 CB          2.1590    1.1140   -0.4160 c2        1 0JO     -0.298000
      6 N           1.3580    0.0200   -2.4430 ne        1 0JO     -0.606300
      7 C4A         0.1350    0.4270   -2.5260 cf        1 0JO      0.491800
      8 C4         -0.6530    0.4040   -3.7690 ca        1 0JO     -0.215900
      9 C3         -0.5560   -0.6710   -4.6900 ca        1 0JO      0.026800
     10 O3          0.2770   -1.7570   -4.5520 oh        1 0JO     -0.539100
     11 C2         -1.3750   -0.6880   -5.8440 ca        1 0JO      0.291600
     12 C2A        -1.2460   -1.8430   -6.7800 c3        1 0JO     -0.104400
     13 N1         -2.2600    0.3110   -6.1140 nb        1 0JO     -0.674000
     14 C6         -2.3450    1.3220   -5.2510 ca        1 0JO      0.354200
     15 C5         -1.5680    1.4260   -4.0580 ca        1 0JO     -0.128600
     16 C5A        -1.7840    2.6690   -3.2240 c3        1 0JO      0.245700
     17 OP4        -3.1110    2.9940   -3.1020 os        1 0JO     -0.563200
     18 P          -3.6250    4.4420   -3.9140 p5        1 0JO      1.316900
     19 OP3        -2.4150    5.3270   -3.7820 o         1 0JO     -0.924833
     20 OP1        -3.8720    3.9050   -5.3050 o         1 0JO     -0.924833
     21 OP2        -4.8430    4.8490   -3.1350 o         1 0JO     -0.924833
     22 H2          2.8220    1.0870    0.4560 ha        1 0JO      0.099500
     23 H3          1.6240    2.0540   -0.5880 ha        1 0JO      0.099500
     24 H4         -0.4330    0.8240   -1.6520 h4        1 0JO     -0.013200
     25 H5          0.7940   -1.6630   -3.7350 ho        1 0JO      0.454000
     26 H6         -0.1900   -1.9090   -7.1420 hc        1 0JO      0.018700
     27 H7         -1.4820   -2.7900   -6.2350 hc        1 0JO      0.018700
     28 H8         -1.9250   -1.7540   -7.6620 hc        1 0JO      0.018700
     29 H9         -3.0760    2.1750   -5.4570 h4        1 0JO      0.150100
     30 H10        -1.2090    3.5150   -3.7110 h1        1 0JO      0.020200
     31 H11        -1.3500    2.4920   -2.1940 h1        1 0JO      0.020200
@<TRIPOS>BOND
     1    1    2 1   
     2    2    3 1   
     3    2    4 1   
     4    4    5 2   
     5    4    6 1   
     6    5   22 1   
     7    5   23 1   
     8    6    7 2   
     9    7    8 1   
    10    7   24 1   
    11    8    9 ar  
    12    8   15 ar  
    13    9   10 1   
    14    9   11 ar  
    15   10   25 1   
    16   11   12 1   
    17   11   13 ar  
    18   12   26 1   
    19   12   27 1   
    20   12   28 1   
    21   13   14 ar  
    22   14   15 ar  
    23   14   29 1   
    24   15   16 1   
    25   16   17 1   
    26   16   30 1   
    27   16   31 1   
    28   17   18 1   
    29   18   19 1   
    30   18   20 1   
    31   18   21 1   
@<TRIPOS>SUBSTRUCTURE
     1 0JO         1 TEMP              0 ****  ****    0 ROOT
