@<TRIPOS>MOLECULE
0JO
   31    24     1     0     0
SMALL
bcc


@<TRIPOS>ATOM
      1 O          -2.8560   -2.6050    0.2160 o         1 0JO     -0.582000
      2 C          -1.6470   -2.5140    0.5470 c1        1 0JO      0.371000
      3 OXT        -1.3320   -2.4450    1.7650 os        1 0JO     -0.578000
      4 CA         -0.5650   -2.6410   -0.5060 c2        1 0JO     -0.078000
      5 CB          0.4670   -3.4680   -0.3080 c1        1 0JO     -0.282000
      6 N          -0.6450   -1.8740   -1.7140 n2        1 0JO     -0.173000
      7 C4A        -0.6370   -0.5550   -1.6630 c1        1 0JO      0.012000
      8 C4         -0.5470    0.1460   -0.3400 c1        1 0JO     -0.177000
      9 C3         -1.6990    0.5260    0.3140 c1        1 0JO      0.051000
     10 O3         -2.9420    0.2140   -0.2310 o         1 0JO     -0.294000
     11 C2         -1.6210    1.2930    1.4650 c1        1 0JO     -0.130000
     12 C2A        -2.9480    1.8100    2.1580 c2        1 0JO     -0.129000
     13 N1         -0.3970    1.6750    1.9540 n2        1 0JO     -0.150000
     14 C6          0.7500    1.2980    1.3040 c1        1 0JO     -0.108000
     15 C5          0.6740    0.5270    0.1480 c1        1 0JO     -0.058000
     16 C5A         1.9600    0.2600   -0.6940 c2        1 0JO      0.083000
     17 OP4         2.9660    1.2290   -0.3540 os        1 0JO     -0.724000
     18 P           4.0640    1.6070   -1.4570 p5        1 0JO      1.549500
     19 OP3         3.3910    2.2780   -2.6300 o         1 0JO     -0.927167
     20 OP1         5.0850    2.5540   -0.8520 o         1 0JO     -0.927167
     21 OP2         4.7560    0.3560   -1.9220 o         1 0JO     -0.927167
     22 H2          0.5230   -3.9970    0.5230 DU        1 0JO      0.101000
     23 H3          1.1580   -3.5490   -0.9790 ha        1 0JO      0.102000
     24 H4         -0.6900   -0.0370   -2.4830 ha        1 0JO      0.133000
     25 H5         -3.2530    0.9080   -0.6640 ho        1 0JO      0.266000
     26 H6         -3.4260    2.4080    1.5430 ha        1 0JO      0.058333
     27 H7         -2.7180    2.3060    2.9910 ha        1 0JO      0.058333
     28 H8         -3.5190    1.0460    2.3810 ha        1 0JO      0.058333
     29 H9          1.6040    1.5640    1.6470 ha        1 0JO      0.280000
     30 H10         1.7430    0.3320   -1.6610 h4        1 0JO      0.059500
     31 H11         2.3000   -0.6510   -0.4990 h4        1 0JO      0.059500
@<TRIPOS>BOND
     1    1    2 1   
     2    2    4 1   
     3    4    5 1   
     4    4    6 1   
     5    5   23 1   
     6    6    7 1   
     7    7   24 1   
     8    8    9 1   
     9    8   15 1   
    10    9   11 1   
    11   10   25 1   
    12   11   13 1   
    13   12   26 1   
    14   12   27 1   
    15   12   28 1   
    16   13   14 1   
    17   14   29 1   
    18   16   17 1   
    19   16   30 1   
    20   16   31 1   
    21   17   18 1   
    22   18   19 1   
    23   18   20 1   
    24   18   21 1   
@<TRIPOS>SUBSTRUCTURE
     1 0JO         1 TEMP              0 ****  ****    0 ROOT
