@<TRIPOS>MOLECULE
0JP
   37    31     1     0     0
SMALL
bcc


@<TRIPOS>ATOM
      1 C17        -0.8960   -0.0100    0.2240 c1        1 0JP     -0.092000
      2 C2          0.4920   -0.0040    2.6000 c1        1 0JP     -0.189000
      3 C11        -0.8470   -0.5730   -4.5480 c1        1 0JP     -0.144000
      4 C7          3.0650   -0.2810   -2.3880 c1        1 0JP     -0.075000
      5 C13        -0.9030    1.7190   -5.3390 c1        1 0JP     -0.377000
      6 C16         0.5230    0.0620    0.2190 c1        1 0JP     -0.038000
      7 C3          1.1940    0.0660    1.3730 c1        1 0JP     -0.038000
      8 C18        -1.5900   -0.0790    1.4370 c1        1 0JP      0.033000
      9 C1         -0.9090   -0.0760    2.6050 c2        1 0JP      0.062000
     10 C9          0.8460   -0.1230   -2.3840 c1        1 0JP     -0.044000
     11 C15         1.2770   -0.0520   -1.0940 c1        1 0JP     -0.029000
     12 C10        -0.0030    0.2120   -3.6170 c1        1 0JP     -0.308000
     13 C4          2.6970    0.1400    1.3600 c2        1 0JP     -0.133000
     14 C5          3.3870    0.1590    0.0680 c3        1 0JP     -0.015000
     15 C22        -3.9160   -0.7880    1.2180 c3        1 0JP     -0.075000
     16 C21        -1.5370   -0.1130    4.8410 c3        1 0JP     -0.078000
     17 N12        -1.4000    0.3790   -5.6150 n2        1 0JP     -0.103000
     18 N8          1.9450   -0.2650   -3.1920 n2        1 0JP     -0.138000
     19 N6          2.6570   -0.1500   -1.0960 n3        1 0JP     -0.163000
     20 O19        -3.0010    0.2900    1.5350 o         1 0JP     -0.210000
     21 O20        -1.8320    0.3140    3.5440 os        1 0JP     -0.202000
     22 S14        -0.0150    1.6460   -4.0800 ss        1 0JP      0.554000
     23 H17        -1.3940   -0.0120   -0.6310 ha        1 0JP      0.169000
     24 H2          1.0040   -0.0020    3.4760 ha        1 0JP      0.140000
     25 H11        -1.0260   -1.5510   -4.4910 DU        1 0JP      0.191333
     26 H7          4.0510   -0.3740   -2.7110 DU        1 0JP      0.191333
     27 H13        -1.0970    2.5210   -5.8580 DU        1 0JP      0.191333
     28 H42         3.0240   -0.6030    1.8480 ha        1 0JP      0.105000
     29 H41         2.9370    0.8900    1.8060 ha        1 0JP      0.105000
     30 H52         3.7470    1.0260   -0.0490 h1        1 0JP      0.099000
     31 H51         4.1930   -0.5190    0.1310 h1        1 0JP      0.099000
     32 H223       -4.7480   -0.5780    1.5200 h1        1 0JP      0.084667
     33 H221       -3.6000   -1.6450    1.6670 h1        1 0JP      0.084667
     34 H222       -3.9450   -0.9220    0.2250 h1        1 0JP      0.084667
     35 H213       -2.2660    0.0630    5.3960 h1        1 0JP      0.085333
     36 H212       -0.7680    0.3540    5.1650 h1        1 0JP      0.085333
     37 H211       -1.3450   -1.1240    4.8360 h1        1 0JP      0.085333
@<TRIPOS>BOND
     1    1    8 1   
     2    1   23 1   
     3    2    9 1   
     4    2   24 1   
     5    3   12 1   
     6    3   17 1   
     7    4   18 1   
     8    4   19 1   
     9    5   17 1   
    10    5   22 1   
    11    6    7 1   
    12    8    9 1   
    13    9   21 1   
    14   10   11 1   
    15   10   18 1   
    16   11   19 1   
    17   12   22 1   
    18   13   14 1   
    19   13   28 1   
    20   13   29 1   
    21   14   19 1   
    22   14   30 1   
    23   14   31 1   
    24   15   20 1   
    25   15   32 1   
    26   15   33 1   
    27   15   34 1   
    28   16   21 1   
    29   16   35 1   
    30   16   36 1   
    31   16   37 1   
@<TRIPOS>SUBSTRUCTURE
     1 0JP         1 TEMP              0 ****  ****    0 ROOT
