@<TRIPOS>MOLECULE
0JP
   37    40     1     0     0
SMALL
bcc


@<TRIPOS>ATOM
      1 C17         0.0040   -0.1060    0.0420 ca        1 0JP     -0.162000
      2 C2          1.4710   -0.0440    2.4340 ca        1 0JP     -0.177000
      3 C11        -0.3520    1.5480   -2.6420 cc        1 0JP      0.314200
      4 C7          3.9410   -0.3220   -2.5740 cc        1 0JP      0.413400
      5 C13        -1.3890    1.0600   -4.5340 cd        1 0JP      0.334300
      6 C16         1.4040   -0.0470    0.0050 ca        1 0JP     -0.004000
      7 C3          2.1390   -0.0320    1.2050 ca        1 0JP     -0.080300
      8 C18        -0.6640   -0.1120    1.2640 ca        1 0JP      0.109100
      9 C1          0.0780   -0.0770    2.4770 ca        1 0JP      0.110100
     10 C9          1.8010    0.2110   -2.6070 cd        1 0JP      0.386800
     11 C15         2.1310   -0.0420   -1.2490 cc        1 0JP     -0.115600
     12 C10         0.5560    0.6290   -3.1760 cd        1 0JP     -0.205900
     13 C4          3.6270    0.0240    1.1840 c3        1 0JP     -0.043100
     14 C5          4.2360   -0.6490   -0.0510 c3        1 0JP      0.043300
     15 C22        -2.7930   -0.0940    0.2070 c3        1 0JP      0.106700
     16 C21         0.0500   -0.0420    4.8540 c3        1 0JP      0.109700
     17 N12        -1.4680    1.7870   -3.4190 nc        1 0JP     -0.632000
     18 N8          2.9420    0.0170   -3.4100 nd        1 0JP     -0.665000
     19 N6          3.5010   -0.3710   -1.2500 na        1 0JP     -0.206900
     20 O19        -2.0340   -0.1620    1.4110 os        1 0JP     -0.303900
     21 O20        -0.6770   -0.0870    3.6310 os        1 0JP     -0.299900
     22 S14        -0.0020    0.0920   -4.6770 ss        1 0JP     -0.029300
     23 H17        -0.5570   -0.1550   -0.9030 ha        1 0JP      0.161000
     24 H2          2.0560   -0.0250    3.3650 ha        1 0JP      0.140000
     25 H11        -0.2390    2.0800   -1.6900 h4        1 0JP      0.050100
     26 H7          4.9740   -0.5390   -2.8650 h5        1 0JP      0.065100
     27 H13        -2.1730    1.1060   -5.2950 h5        1 0JP      0.052100
     28 H42         3.9440    1.1030    1.2170 hc        1 0JP      0.064200
     29 H41         4.0520   -0.4810    2.0920 hc        1 0JP      0.064200
     30 H52         5.2980   -0.2970   -0.1830 h1        1 0JP      0.059700
     31 H51         4.2540   -1.7670    0.1070 h1        1 0JP      0.059700
     32 H223       -2.6120   -1.0010   -0.4200 h1        1 0JP      0.049033
     33 H221       -2.5530    0.8340   -0.3650 h1        1 0JP      0.049033
     34 H222       -3.8510   -0.0720    0.5730 h1        1 0JP      0.049033
     35 H213        0.6550    0.8950    4.9210 h1        1 0JP      0.044367
     36 H212        0.7060   -0.9400    4.9580 h1        1 0JP      0.044367
     37 H211       -0.7550   -0.0490    5.6320 h1        1 0JP      0.044367
@<TRIPOS>BOND
     1    1    6 ar  
     2    1    8 ar  
     3    1   23 1   
     4    2    7 ar  
     5    2    9 ar  
     6    2   24 1   
     7    3   12 2   
     8    3   17 1   
     9    3   25 1   
    10    4   18 2   
    11    4   19 1   
    12    4   26 1   
    13    5   17 2   
    14    5   22 1   
    15    5   27 1   
    16    6    7 ar  
    17    6   11 1   
    18    7   13 1   
    19    8    9 ar  
    20    8   20 1   
    21    9   21 1   
    22   10   11 2   
    23   10   12 1   
    24   10   18 1   
    25   11   19 1   
    26   12   22 1   
    27   13   14 1   
    28   13   28 1   
    29   13   29 1   
    30   14   19 1   
    31   14   30 1   
    32   14   31 1   
    33   15   20 1   
    34   15   32 1   
    35   15   33 1   
    36   15   34 1   
    37   16   21 1   
    38   16   35 1   
    39   16   36 1   
    40   16   37 1   
@<TRIPOS>SUBSTRUCTURE
     1 0JP         1 TEMP              0 ****  ****    0 ROOT
