@<TRIPOS>MOLECULE
0JP
   37    40     1     0     0
SMALL
bcc


@<TRIPOS>ATOM
      1 C17         0.6980    0.6910    0.2650 ca        1 0JP     -0.162000
      2 C2          3.0760   -0.7380   -0.1590 ca        1 0JP     -0.177000
      3 C11        -2.1060    1.2240   -1.1200 cc        1 0JP      0.314200
      4 C7         -1.8990   -3.2640    0.2040 cc        1 0JP      0.413400
      5 C13        -3.9530    2.1790   -0.3640 cd        1 0JP      0.334300
      6 C16         0.6540   -0.6920    0.0400 ca        1 0JP     -0.004000
      7 C3          1.8490   -1.4100   -0.1570 ca        1 0JP     -0.080300
      8 C18         1.9180    1.3630    0.2580 ca        1 0JP      0.109100
      9 C1          3.1230    0.6410    0.0400 ca        1 0JP      0.110100
     10 C9         -1.9710   -1.0750   -0.0610 cd        1 0JP      0.386800
     11 C15        -0.5970   -1.4220    0.0440 cc        1 0JP     -0.115600
     12 C10        -2.5680    0.2070   -0.2790 cd        1 0JP     -0.205900
     13 C4          1.8210   -2.8800   -0.3910 c3        1 0JP     -0.043100
     14 C5          0.6410   -3.5760    0.2970 c3        1 0JP      0.043300
     15 C22         0.8660    3.4700    0.5810 c3        1 0JP      0.106700
     16 C21         5.4900    0.6910   -0.1760 c3        1 0JP      0.109700
     17 N12        -2.8970    2.3550   -1.1610 nc        1 0JP     -0.632000
     18 N8         -2.7580   -2.2370    0.0550 nd        1 0JP     -0.665000
     19 N6         -0.5750   -2.8220    0.2040 na        1 0JP     -0.206900
     20 O19         2.0710    2.7180    0.4630 os        1 0JP     -0.303900
     21 O20         4.2760    1.3980    0.0510 os        1 0JP     -0.299900
     22 S14        -4.0220    0.6840    0.4360 ss        1 0JP     -0.029300
     23 H17        -0.2400    1.2350    0.4560 ha        1 0JP      0.161000
     24 H2          4.0010   -1.3100   -0.3210 ha        1 0JP      0.140000
     25 H11        -1.1990    1.1840   -1.7340 h4        1 0JP      0.050100
     26 H7         -2.1750   -4.3180    0.3160 h5        1 0JP      0.065100
     27 H13        -4.7140    2.9570   -0.2560 h5        1 0JP      0.052100
     28 H42         1.7690   -3.0640   -1.4990 hc        1 0JP      0.064200
     29 H41         2.7640   -3.3560   -0.0130 hc        1 0JP      0.064200
     30 H52         0.4800   -4.5880   -0.1710 h1        1 0JP      0.059700
     31 H51         0.8850   -3.7280    1.3890 h1        1 0JP      0.059700
     32 H223        0.2230    3.3400   -0.3230 h1        1 0JP      0.049033
     33 H221        0.3110    3.1760    1.5050 h1        1 0JP      0.049033
     34 H222        1.2310    4.5260    0.6590 h1        1 0JP      0.049033
     35 H213        6.2670    1.4960   -0.1320 h1        1 0JP      0.044367
     36 H212        5.6620   -0.0680    0.6250 h1        1 0JP      0.044367
     37 H211        5.4830    0.2050   -1.1820 h1        1 0JP      0.044367
@<TRIPOS>BOND
     1    1    6 ar  
     2    1    8 ar  
     3    1   23 1   
     4    2    7 ar  
     5    2    9 ar  
     6    2   24 1   
     7    3   12 2   
     8    3   17 1   
     9    3   25 1   
    10    4   18 2   
    11    4   19 1   
    12    4   26 1   
    13    5   17 2   
    14    5   22 1   
    15    5   27 1   
    16    6    7 ar  
    17    6   11 1   
    18    7   13 1   
    19    8    9 ar  
    20    8   20 1   
    21    9   21 1   
    22   10   11 2   
    23   10   12 1   
    24   10   18 1   
    25   11   19 1   
    26   12   22 1   
    27   13   14 1   
    28   13   28 1   
    29   13   29 1   
    30   14   19 1   
    31   14   30 1   
    32   14   31 1   
    33   15   20 1   
    34   15   32 1   
    35   15   33 1   
    36   15   34 1   
    37   16   21 1   
    38   16   35 1   
    39   16   36 1   
    40   16   37 1   
@<TRIPOS>SUBSTRUCTURE
     1 0JP         1 TEMP              0 ****  ****    0 ROOT
