@<TRIPOS>MOLECULE
0JQ
   61    64     1     0     0
SMALL
bcc


@<TRIPOS>ATOM
      1 C11        -0.1370   -0.1520   -0.0730 c3        1 0JQ      0.106700
      2 O2          1.2870   -0.1810   -0.0280 os        1 0JQ     -0.299900
      3 C9          1.8520   -0.0920    1.2250 ca        1 0JQ      0.122100
      4 C5          1.1540    0.0200    2.4050 ca        1 0JQ     -0.224300
      5 C6          3.2940   -0.1200    1.2300 ca        1 0JQ      0.140100
      6 O1          3.8650   -0.2220   -0.0170 os        1 0JQ     -0.297900
      7 C10         5.2900   -0.2450   -0.0540 c3        1 0JQ      0.106700
      8 C3          3.9840   -0.0470    2.4190 ca        1 0JQ     -0.199000
      9 C1          3.2850    0.0550    3.6470 ca        1 0JQ     -0.094300
     10 C2          1.8570    0.1020    3.6440 ca        1 0JQ      0.324600
     11 N1          1.1390    0.2340    4.8430 nb        1 0JQ     -0.285000
     12 N2          1.7250    0.3170    5.9410 nb        1 0JQ     -0.298000
     13 C7          3.1090    0.2740    6.0380 ca        1 0JQ      0.311200
     14 C4          3.9290    0.1350    4.9230 cp        1 0JQ     -0.080300
     15 C8          5.3750    0.0770    5.0770 cp        1 0JQ     -0.172300
     16 C12         6.0650    1.0570    5.8000 ca        1 0JQ     -0.080000
     17 C13         7.4520    0.9740    5.9540 ca        1 0JQ     -0.166600
     18 C16         8.1720    2.0060    6.7310 c3        1 0JQ     -0.042800
     19 C15         6.1330   -0.9850    4.5340 ca        1 0JQ      0.418200
     20 N3          7.4600   -1.0930    4.6560 nb        1 0JQ     -0.698000
     21 C14         8.1350   -0.1320    5.3570 ca        1 0JQ      0.594200
     22 N4          9.5600   -0.2260    5.5460 nh        1 0JQ     -0.722300
     23 C24        10.3030    0.4670    4.4930 c3        1 0JQ      0.172800
     24 C23        11.8060    0.4850    4.7690 c3        1 0JQ     -0.075400
     25 C20        10.0520   -1.5830    5.7730 c3        1 0JQ      0.172800
     26 C21        11.5500   -1.6080    6.0850 c3        1 0JQ     -0.075400
     27 C22        12.3320   -0.9260    4.9740 c3        1 0JQ     -0.053700
     28 C18        13.8520   -0.9340    5.2230 c3        1 0JQ      0.154800
     29 C17        14.2790   -0.0310    6.3740 c3        1 0JQ     -0.123100
     30 C19        14.3550   -2.3540    5.4710 c3        1 0JQ     -0.123100
     31 O3         14.4170   -0.4430    4.0000 oh        1 0JQ     -0.603800
     32 H1         -0.3590   -0.2370   -1.1680 h1        1 0JQ      0.049700
     33 H2         -0.5670   -1.0180    0.4860 h1        1 0JQ      0.049700
     34 H3         -0.5250    0.8120    0.3360 h1        1 0JQ      0.049700
     35 H4          0.0530    0.0490    2.4180 ha        1 0JQ      0.164000
     36 H5          5.6840   -1.1310    0.5000 h1        1 0JQ      0.050033
     37 H6          5.7100    0.7010    0.3660 h1        1 0JQ      0.050033
     38 H7          5.5150   -0.3280   -1.1480 h1        1 0JQ      0.050033
     39 H8          5.0850   -0.0570    2.4390 ha        1 0JQ      0.155000
     40 H9          3.5110    0.3480    7.0610 h4        1 0JQ      0.036100
     41 H10         5.5130    1.8970    6.2510 ha        1 0JQ      0.146000
     42 H11         8.7620    1.5330    7.5560 hc        1 0JQ      0.050367
     43 H12         7.4600    2.7420    7.1800 hc        1 0JQ      0.050367
     44 H13         8.8860    2.5640    6.0730 hc        1 0JQ      0.050367
     45 H14         5.6370   -1.7980    3.9720 h4        1 0JQ      0.029100
     46 H15         9.9260    1.5260    4.4460 h1        1 0JQ      0.043700
     47 H16        10.1270   -0.0090    3.4840 h1        1 0JQ      0.043700
     48 H17        12.3280    0.9570    3.8970 hc        1 0JQ      0.053700
     49 H18        12.0140    1.1070    5.6780 hc        1 0JQ      0.053700
     50 H19         9.4860   -2.0050    6.6490 h1        1 0JQ      0.043700
     51 H20         9.8700   -2.2550    4.8840 h1        1 0JQ      0.043700
     52 H21        11.7460   -1.1010    7.0640 hc        1 0JQ      0.053700
     53 H22        11.8610   -2.6800    6.1800 hc        1 0JQ      0.053700
     54 H23        12.1650   -1.5020    4.0180 hc        1 0JQ      0.063700
     55 H24        13.6760   -0.2500    7.2860 hc        1 0JQ      0.043533
     56 H25        15.3580   -0.1990    6.6100 hc        1 0JQ      0.043533
     57 H26        14.1430    1.0400    6.0930 hc        1 0JQ      0.043533
     58 H27        13.9480   -3.0480    4.6980 hc        1 0JQ      0.043533
     59 H28        15.4700   -2.3790    5.4180 hc        1 0JQ      0.043533
     60 H29        14.0390   -2.7030    6.4820 hc        1 0JQ      0.043533
     61 H30        15.3730   -0.4260    4.1230 ho        1 0JQ      0.398000
@<TRIPOS>BOND
     1    1    2 1   
     2    1   32 1   
     3    1   33 1   
     4    1   34 1   
     5    2    3 1   
     6    3    4 ar  
     7    3    5 ar  
     8    4   10 ar  
     9    4   35 1   
    10    5    6 1   
    11    5    8 ar  
    12    6    7 1   
    13    7   36 1   
    14    7   37 1   
    15    7   38 1   
    16    8    9 ar  
    17    8   39 1   
    18    9   10 ar  
    19    9   14 ar  
    20   10   11 ar  
    21   11   12 ar  
    22   12   13 ar  
    23   13   14 ar  
    24   13   40 1   
    25   14   15 1   
    26   15   16 ar  
    27   15   19 ar  
    28   16   17 ar  
    29   16   41 1   
    30   17   18 1   
    31   17   21 ar  
    32   18   42 1   
    33   18   43 1   
    34   18   44 1   
    35   19   20 ar  
    36   19   45 1   
    37   20   21 ar  
    38   21   22 1   
    39   22   23 1   
    40   22   25 1   
    41   23   24 1   
    42   23   46 1   
    43   23   47 1   
    44   24   27 1   
    45   24   48 1   
    46   24   49 1   
    47   25   26 1   
    48   25   50 1   
    49   25   51 1   
    50   26   27 1   
    51   26   52 1   
    52   26   53 1   
    53   27   28 1   
    54   27   54 1   
    55   28   29 1   
    56   28   30 1   
    57   28   31 1   
    58   29   55 1   
    59   29   56 1   
    60   29   57 1   
    61   30   58 1   
    62   30   59 1   
    63   30   60 1   
    64   31   61 1   
@<TRIPOS>SUBSTRUCTURE
     1 0JQ         1 TEMP              0 ****  ****    0 ROOT
