@<TRIPOS>MOLECULE
0JQ
   61    64     1     0     0
SMALL
bcc


@<TRIPOS>ATOM
      1 C11         7.8050   -2.0530   -0.2230 c3        1 0JQ      0.106700
      2 O2          6.4260   -2.3960   -0.1220 os        1 0JQ     -0.299900
      3 C9          5.5420   -1.3400   -0.1020 ca        1 0JQ      0.122100
      4 C5          5.8900   -0.0110   -0.1710 ca        1 0JQ     -0.224300
      5 C6          4.1570   -1.7270    0.0060 ca        1 0JQ      0.140100
      6 O1          3.9490   -3.0840    0.0800 os        1 0JQ     -0.297900
      7 C10         2.5920   -3.5060    0.1950 c3        1 0JQ      0.106700
      8 C3          3.1690   -0.7670    0.0290 ca        1 0JQ     -0.199000
      9 C1          3.5050    0.6070   -0.0540 ca        1 0JQ     -0.094300
     10 C2          4.8770    0.9940   -0.1420 ca        1 0JQ      0.324600
     11 N1          5.2410    2.3480   -0.1960 nb        1 0JQ     -0.285000
     12 N2          4.3800    3.2500   -0.1650 nb        1 0JQ     -0.298000
     13 C7          3.0230    2.9650   -0.0860 ca        1 0JQ      0.311200
     14 C4          2.5380    1.6630   -0.0380 cp        1 0JQ     -0.080300
     15 C8          1.1060    1.4130    0.0270 cp        1 0JQ     -0.172300
     16 C12         0.3070    2.0350    0.9920 ca        1 0JQ     -0.080000
     17 C13        -1.0710    1.7990    1.0260 ca        1 0JQ     -0.166600
     18 C16        -1.9110    2.4710    2.0420 c3        1 0JQ     -0.042800
     19 C15         0.4620    0.5650   -0.9010 ca        1 0JQ      0.418200
     20 N3         -0.8510    0.3110   -0.8960 nb        1 0JQ     -0.698000
     21 C14        -1.6310    0.9130    0.0530 ca        1 0JQ      0.594200
     22 N4         -3.0550    0.6990    0.0760 nh        1 0JQ     -0.723300
     23 C24        -3.4310   -0.4250    0.9350 c3        1 0JQ      0.172800
     24 C23        -4.9460   -0.5620    1.0680 c3        1 0JQ     -0.075400
     25 C20        -3.6770    0.6230   -1.2430 c3        1 0JQ      0.172800
     26 C21        -5.2010    0.5150   -1.1570 c3        1 0JQ     -0.075400
     27 C22        -5.5990   -0.6760   -0.3010 c3        1 0JQ     -0.053700
     28 C18        -7.1250   -0.8480   -0.1890 c3        1 0JQ      0.154800
     29 C17        -7.7960    0.2450    0.6350 c3        1 0JQ     -0.123100
     30 C19        -7.7670   -0.9150   -1.5720 c3        1 0JQ     -0.123100
     31 O3         -7.2950   -2.1100    0.4700 oh        1 0JQ     -0.603800
     32 H1          8.1250   -1.4430    0.6560 h1        1 0JQ      0.049700
     33 H2          8.3160   -3.0500   -0.2220 h1        1 0JQ      0.049700
     34 H3          8.0060   -1.5060   -1.1760 h1        1 0JQ      0.049700
     35 H4          6.9430    0.3010   -0.2470 ha        1 0JQ      0.164000
     36 H5          2.6750   -4.6220    0.2400 h1        1 0JQ      0.050033
     37 H6          2.1330   -3.1050    1.1310 h1        1 0JQ      0.050033
     38 H7          2.0040   -3.1880   -0.6990 h1        1 0JQ      0.050033
     39 H8          2.1080   -1.0450    0.1210 ha        1 0JQ      0.155000
     40 H9          2.3580    3.8440   -0.0730 h4        1 0JQ      0.036100
     41 H10         0.7650    2.7150    1.7290 ha        1 0JQ      0.146000
     42 H11        -2.7350    3.0450    1.5500 hc        1 0JQ      0.050367
     43 H12        -2.3760    1.7160    2.7260 hc        1 0JQ      0.050367
     44 H13        -1.3050    3.1790    2.6600 hc        1 0JQ      0.050367
     45 H14         1.0410    0.0640   -1.7000 h4        1 0JQ      0.029100
     46 H15        -3.0120   -1.3970    0.5440 h1        1 0JQ      0.043700
     47 H16        -2.9880   -0.2420    1.9540 h1        1 0JQ      0.043700
     48 H17        -5.1750   -1.4800    1.6690 hc        1 0JQ      0.053700
     49 H18        -5.3580    0.3240    1.6160 hc        1 0JQ      0.053700
     50 H19        -3.4060    1.5620   -1.8000 h1        1 0JQ      0.043700
     51 H20        -3.2990   -0.2570   -1.8410 h1        1 0JQ      0.043700
     52 H21        -5.6290    1.4590   -0.7320 hc        1 0JQ      0.053700
     53 H22        -5.5940    0.3950   -2.1990 hc        1 0JQ      0.053700
     54 H23        -5.2100   -1.6130   -0.7940 hc        1 0JQ      0.063700
     55 H24        -7.4850    1.2520    0.2730 hc        1 0JQ      0.043533
     56 H25        -8.9060    0.1610    0.5480 hc        1 0JQ      0.043533
     57 H26        -7.5180    0.1410    1.7110 hc        1 0JQ      0.043533
     58 H27        -7.2070   -1.6270   -2.2230 hc        1 0JQ      0.043533
     59 H28        -8.8230   -1.2690   -1.4860 hc        1 0JQ      0.043533
     60 H29        -7.7680    0.0950   -2.0460 hc        1 0JQ      0.043533
     61 H30        -8.2440   -2.2480    0.5650 ho        1 0JQ      0.398000
@<TRIPOS>BOND
     1    1    2 1   
     2    1   32 1   
     3    1   33 1   
     4    1   34 1   
     5    2    3 1   
     6    3    4 ar  
     7    3    5 ar  
     8    4   10 ar  
     9    4   35 1   
    10    5    6 1   
    11    5    8 ar  
    12    6    7 1   
    13    7   36 1   
    14    7   37 1   
    15    7   38 1   
    16    8    9 ar  
    17    8   39 1   
    18    9   10 ar  
    19    9   14 ar  
    20   10   11 ar  
    21   11   12 ar  
    22   12   13 ar  
    23   13   14 ar  
    24   13   40 1   
    25   14   15 1   
    26   15   16 ar  
    27   15   19 ar  
    28   16   17 ar  
    29   16   41 1   
    30   17   18 1   
    31   17   21 ar  
    32   18   42 1   
    33   18   43 1   
    34   18   44 1   
    35   19   20 ar  
    36   19   45 1   
    37   20   21 ar  
    38   21   22 1   
    39   22   23 1   
    40   22   25 1   
    41   23   24 1   
    42   23   46 1   
    43   23   47 1   
    44   24   27 1   
    45   24   48 1   
    46   24   49 1   
    47   25   26 1   
    48   25   50 1   
    49   25   51 1   
    50   26   27 1   
    51   26   52 1   
    52   26   53 1   
    53   27   28 1   
    54   27   54 1   
    55   28   29 1   
    56   28   30 1   
    57   28   31 1   
    58   29   55 1   
    59   29   56 1   
    60   29   57 1   
    61   30   58 1   
    62   30   59 1   
    63   30   60 1   
    64   31   61 1   
@<TRIPOS>SUBSTRUCTURE
     1 0JQ         1 TEMP              0 ****  ****    0 ROOT
