@<TRIPOS>MOLECULE
0JQ
   61    57     1     0     0
SMALL
bcc


@<TRIPOS>ATOM
      1 C11        -8.5510   -1.3120    2.5980 c3        1 0JQ     -0.077500
      2 O2         -7.2340   -0.7550    2.8420 os        1 0JQ     -0.208500
      3 C9         -6.4630   -0.6140    1.7000 c2        1 0JQ      0.064000
      4 C5         -6.8070   -0.1600    0.4140 c1        1 0JQ     -0.141000
      5 C6         -5.1360   -0.6370    2.0920 c2        1 0JQ      0.064000
      6 O1         -4.7460   -0.8180    3.4510 os        1 0JQ     -0.208500
      7 C10        -4.3540   -2.1630    3.7660 c3        1 0JQ     -0.077500
      8 C3         -4.1200   -0.2010    1.1930 c1        1 0JQ     -0.141000
      9 C1         -4.4670    0.2550   -0.0990 c1        1 0JQ     -0.055000
     10 C2         -5.7850    0.2770   -0.4880 c1        1 0JQ     -0.055000
     11 N1         -6.1180    0.6500   -1.7660 n1        1 0JQ     -0.026000
     12 N2         -5.1240    1.0090   -2.6730 n1        1 0JQ     -0.026000
     13 C7         -3.8160    0.9910   -2.2980 c1        1 0JQ     -0.162000
     14 C4         -3.4690    0.6150   -1.0100 c1        1 0JQ     -0.001000
     15 C8         -1.9330    0.7040   -0.9630 c2        1 0JQ     -0.115000
     16 C12        -1.3280    1.8430   -0.5080 c2        1 0JQ     -0.080000
     17 C13         0.0530    1.8870   -0.3770 c1        1 0JQ     -0.095000
     18 C16         0.7390    3.1850    0.1270 c3        1 0JQ     -0.169000
     19 C15        -1.1560   -0.4090   -1.2930 c1        1 0JQ     -0.042000
     20 N3          0.2160   -0.3560   -1.1590 n1        1 0JQ     -0.171000
     21 C14         0.8180    0.7770   -0.7070 c1        1 0JQ      0.076000
     22 N4          2.2980    0.8560   -0.6580 n3        1 0JQ     -0.210000
     23 C24         2.8390    0.5470   -1.9680 c3        1 0JQ     -0.063000
     24 C23         4.3600    0.4590   -1.9650 c3        1 0JQ     -0.155000
     25 C20         2.8090   -0.0640    0.4180 c3        1 0JQ     -0.063000
     26 C21         4.3330   -0.1580    0.4350 c3        1 0JQ     -0.155000
     27 C22         4.8830   -0.4760   -0.8780 c3        1 0JQ     -0.085000
     28 C18         6.4780   -0.3520   -0.8040 c3        1 0JQ      0.080000
     29 C17         7.0220   -1.2880    0.3200 c3        1 0JQ     -0.243500
     30 C19         7.0800   -0.7520   -2.1320 c3        1 0JQ     -0.243500
     31 O3          6.8400    1.0220   -0.5010 oh        1 0JQ     -0.324000
     32 H1         -8.9380   -1.6150    3.4440 h1        1 0JQ      0.088333
     33 H2         -8.4750   -2.0790    1.9760 h1        1 0JQ      0.088333
     34 H3         -9.1470   -0.6030    2.1890 h1        1 0JQ      0.088333
     35 H4         -7.7600   -0.0820    0.1540 ha        1 0JQ      0.162500
     36 H5         -4.6260   -2.3760    4.6710 h1        1 0JQ      0.088333
     37 H6         -3.3670   -2.2470    3.6900 h1        1 0JQ      0.088333
     38 H7         -4.7840   -2.7840    3.1400 h1        1 0JQ      0.088333
     39 H8         -3.2030   -0.2150    1.4640 ha        1 0JQ      0.162500
     40 H9         -3.1210    1.2440   -2.9410 ha        1 0JQ      0.175000
     41 H10        -1.8630    2.6560   -0.3440 ha        1 0JQ      0.149000
     42 H11         1.2890    2.9820    0.9350 hc        1 0JQ      0.091333
     43 H12         1.3510    3.5700   -0.6200 hc        1 0JQ      0.091333
     44 H13         0.0280    3.8670    0.3650 hc        1 0JQ      0.091333
     45 H14        -1.5730   -1.2080   -1.6130 ha        1 0JQ      0.164000
     46 H15         2.5660    1.2400   -2.5910 h1        1 0JQ      0.081000
     47 H16         2.4700   -0.3180   -2.2690 h1        1 0JQ      0.081000
     48 H17         4.6580    0.1270   -2.8410 hc        1 0JQ      0.097000
     49 H18         4.7230    1.3360   -1.8260 hc        1 0JQ      0.097000
     50 H19         2.4940    0.2750    1.3070 h1        1 0JQ      0.081000
     51 H20         2.4460   -0.9480    0.2720 h1        1 0JQ      0.081000
     52 H21         4.6120   -0.8900    1.0960 hc        1 0JQ      0.097000
     53 H22         4.6900    0.6710    0.7260 hc        1 0JQ      0.097000
     54 H23         4.6380   -1.4200   -1.1160 hc        1 0JQ      0.087000
     55 H24         7.9630   -1.1410    0.4330 hc        1 0JQ      0.082667
     56 H25         6.5450   -1.0840    1.1860 hc        1 0JQ      0.082667
     57 H26         6.8670   -2.2030    0.0780 hc        1 0JQ      0.082667
     58 H27         8.0870   -0.5710   -2.1180 hc        1 0JQ      0.082667
     59 H28         6.9220   -1.7010   -2.2910 hc        1 0JQ      0.082667
     60 H29         6.6830   -0.2520   -2.8140 hc        1 0JQ      0.082667
     61 H30         7.6630    1.2070   -0.8560 ho        1 0JQ      0.197000
@<TRIPOS>BOND
     1    1    2 1   
     2    1   32 1   
     3    1   33 1   
     4    1   34 1   
     5    2    3 1   
     6    3    4 1   
     7    3    5 1   
     8    4   35 1   
     9    5    6 1   
    10    5    8 1   
    11    6    7 1   
    12    7   36 1   
    13    7   37 1   
    14    7   38 1   
    15    8   39 1   
    16    9   10 1   
    17   11   12 1   
    18   13   14 1   
    19   13   40 1   
    20   14   15 1   
    21   15   16 1   
    22   15   19 1   
    23   16   17 1   
    24   16   41 1   
    25   17   18 1   
    26   18   42 1   
    27   18   43 1   
    28   18   44 1   
    29   19   45 1   
    30   20   21 1   
    31   21   22 1   
    32   22   23 1   
    33   22   25 1   
    34   23   24 1   
    35   23   46 1   
    36   23   47 1   
    37   24   27 1   
    38   24   48 1   
    39   24   49 1   
    40   25   26 1   
    41   25   50 1   
    42   25   51 1   
    43   26   27 1   
    44   26   52 1   
    45   26   53 1   
    46   27   28 1   
    47   27   54 1   
    48   28   29 1   
    49   28   30 1   
    50   28   31 1   
    51   29   55 1   
    52   29   56 1   
    53   29   57 1   
    54   30   58 1   
    55   30   59 1   
    56   30   60 1   
    57   31   61 1   
@<TRIPOS>SUBSTRUCTURE
     1 0JQ         1 TEMP              0 ****  ****    0 ROOT
