@<TRIPOS>MOLECULE
0JQ
   61    64     1     0     0
SMALL
bcc


@<TRIPOS>ATOM
      1 C11        -0.1380   -0.1540   -0.0720 c3        1 0JQ      0.106700
      2 O2          1.2860   -0.1820   -0.0260 os        1 0JQ     -0.299900
      3 C9          1.8510   -0.0930    1.2260 ca        1 0JQ      0.122100
      4 C5          1.1530    0.0180    2.4070 ca        1 0JQ     -0.224300
      5 C6          3.2930   -0.1210    1.2310 ca        1 0JQ      0.140100
      6 O1          3.8640   -0.2220   -0.0160 os        1 0JQ     -0.297900
      7 C10         5.2890   -0.2440   -0.0530 c3        1 0JQ      0.106700
      8 C3          3.9840   -0.0480    2.4200 ca        1 0JQ     -0.199000
      9 C1          3.2850    0.0530    3.6490 ca        1 0JQ     -0.094300
     10 C2          1.8570    0.1000    3.6450 ca        1 0JQ      0.324600
     11 N1          1.1390    0.2310    4.8450 nb        1 0JQ     -0.285000
     12 N2          1.7250    0.3140    5.9420 nb        1 0JQ     -0.298000
     13 C7          3.1090    0.2710    6.0390 ca        1 0JQ      0.311200
     14 C4          3.9290    0.1330    4.9240 cp        1 0JQ     -0.080300
     15 C8          5.3750    0.0760    5.0770 cp        1 0JQ     -0.172300
     16 C12         6.0650    1.0550    5.8010 ca        1 0JQ     -0.080000
     17 C13         7.4520    0.9720    5.9550 ca        1 0JQ     -0.166600
     18 C16         8.1720    2.0050    6.7310 c3        1 0JQ     -0.042800
     19 C15         6.1330   -0.9860    4.5340 ca        1 0JQ      0.418200
     20 N3          7.4600   -1.0940    4.6560 nb        1 0JQ     -0.698000
     21 C14         8.1350   -0.1330    5.3570 ca        1 0JQ      0.594200
     22 N4          9.5600   -0.2260    5.5450 nh        1 0JQ     -0.722300
     23 C24        10.3030    0.4670    4.4920 c3        1 0JQ      0.172800
     24 C23        11.8060    0.4860    4.7680 c3        1 0JQ     -0.075400
     25 C20        10.0520   -1.5830    5.7710 c3        1 0JQ      0.172800
     26 C21        11.5510   -1.6080    6.0830 c3        1 0JQ     -0.075400
     27 C22        12.3330   -0.9260    4.9730 c3        1 0JQ     -0.053700
     28 C18        13.8520   -0.9330    5.2200 c3        1 0JQ      0.154800
     29 C17        14.2800   -0.0320    6.3720 c3        1 0JQ     -0.123100
     30 C19        14.3550   -2.3530    5.4670 c3        1 0JQ     -0.123100
     31 O3         14.4160   -0.4410    3.9980 oh        1 0JQ     -0.603800
     32 H1         -0.5680   -1.0200    0.4870 h1        1 0JQ      0.049700
     33 H2         -0.3600   -0.2380   -1.1660 h1        1 0JQ      0.049700
     34 H3         -0.5260    0.8100    0.3380 h1        1 0JQ      0.049700
     35 H4          0.0530    0.0470    2.4200 ha        1 0JQ      0.164000
     36 H5          5.6840   -1.1310    0.5000 h1        1 0JQ      0.050033
     37 H6          5.5140   -0.3270   -1.1470 h1        1 0JQ      0.050033
     38 H7          5.7090    0.7010    0.3670 h1        1 0JQ      0.050033
     39 H8          5.0840   -0.0580    2.4400 ha        1 0JQ      0.155000
     40 H9          3.5110    0.3460    7.0620 h4        1 0JQ      0.036100
     41 H10         5.5120    1.8950    6.2520 ha        1 0JQ      0.146000
     42 H11         7.4590    2.7400    7.1810 hc        1 0JQ      0.050367
     43 H12         8.8850    2.5630    6.0740 hc        1 0JQ      0.050367
     44 H13         8.7620    1.5320    7.5560 hc        1 0JQ      0.050367
     45 H14         5.6370   -1.7990    3.9710 h4        1 0JQ      0.029100
     46 H15        10.1260   -0.0080    3.4840 h1        1 0JQ      0.043700
     47 H16         9.9250    1.5270    4.4460 h1        1 0JQ      0.043700
     48 H17        12.0140    1.1070    5.6770 hc        1 0JQ      0.053700
     49 H18        12.3280    0.9580    3.8970 hc        1 0JQ      0.053700
     50 H19         9.4880   -2.0060    6.6480 h1        1 0JQ      0.043700
     51 H20         9.8700   -2.2550    4.8830 h1        1 0JQ      0.043700
     52 H21        11.8620   -2.6800    6.1780 hc        1 0JQ      0.053700
     53 H22        11.7470   -1.1020    7.0630 hc        1 0JQ      0.053700
     54 H23        12.1650   -1.5010    4.0160 hc        1 0JQ      0.063700
     55 H24        14.1420    1.0410    6.0930 hc        1 0JQ      0.043533
     56 H25        15.3590   -0.1980    6.6080 hc        1 0JQ      0.043533
     57 H26        13.6770   -0.2510    7.2840 hc        1 0JQ      0.043533
     58 H27        15.4710   -2.3780    5.4140 hc        1 0JQ      0.043533
     59 H28        13.9480   -3.0470    4.6940 hc        1 0JQ      0.043533
     60 H29        14.0400   -2.7040    6.4780 hc        1 0JQ      0.043533
     61 H30        15.3720   -0.4230    4.1200 ho        1 0JQ      0.398000
@<TRIPOS>BOND
     1    1    2 1   
     2    1   32 1   
     3    1   33 1   
     4    1   34 1   
     5    2    3 1   
     6    3    4 ar  
     7    3    5 ar  
     8    4   10 ar  
     9    4   35 1   
    10    5    6 1   
    11    5    8 ar  
    12    6    7 1   
    13    7   36 1   
    14    7   37 1   
    15    7   38 1   
    16    8    9 ar  
    17    8   39 1   
    18    9   10 ar  
    19    9   14 ar  
    20   10   11 ar  
    21   11   12 ar  
    22   12   13 ar  
    23   13   14 ar  
    24   13   40 1   
    25   14   15 1   
    26   15   16 ar  
    27   15   19 ar  
    28   16   17 ar  
    29   16   41 1   
    30   17   18 1   
    31   17   21 ar  
    32   18   42 1   
    33   18   43 1   
    34   18   44 1   
    35   19   20 ar  
    36   19   45 1   
    37   20   21 ar  
    38   21   22 1   
    39   22   23 1   
    40   22   25 1   
    41   23   24 1   
    42   23   46 1   
    43   23   47 1   
    44   24   27 1   
    45   24   48 1   
    46   24   49 1   
    47   25   26 1   
    48   25   50 1   
    49   25   51 1   
    50   26   27 1   
    51   26   52 1   
    52   26   53 1   
    53   27   28 1   
    54   27   54 1   
    55   28   29 1   
    56   28   30 1   
    57   28   31 1   
    58   29   55 1   
    59   29   56 1   
    60   29   57 1   
    61   30   58 1   
    62   30   59 1   
    63   30   60 1   
    64   31   61 1   
@<TRIPOS>SUBSTRUCTURE
     1 0JQ         1 TEMP              0 ****  ****    0 ROOT
