@<TRIPOS>MOLECULE
0JQ
   61    64     1     0     0
SMALL
bcc


@<TRIPOS>ATOM
      1 C11        -0.1350   -0.1340   -0.0760 c3        1 0JQ      0.106700
      2 O2          1.2890   -0.1610   -0.0300 os        1 0JQ     -0.299900
      3 C9          1.8530   -0.0810    1.2240 ca        1 0JQ      0.122100
      4 C5          1.1540    0.0210    2.4050 ca        1 0JQ     -0.224300
      5 C6          3.2950   -0.1070    1.2290 ca        1 0JQ      0.140100
      6 O1          3.8670   -0.1980   -0.0180 os        1 0JQ     -0.297900
      7 C10         5.2920   -0.2190   -0.0540 c3        1 0JQ      0.106700
      8 C3          3.9850   -0.0410    2.4200 ca        1 0JQ     -0.199000
      9 C1          3.2850    0.0510    3.6480 ca        1 0JQ     -0.094300
     10 C2          1.8570    0.0960    3.6440 ca        1 0JQ      0.324600
     11 N1          1.1380    0.2180    4.8440 nb        1 0JQ     -0.285000
     12 N2          1.7230    0.2940    5.9420 nb        1 0JQ     -0.298000
     13 C7          3.1070    0.2520    6.0400 ca        1 0JQ      0.311200
     14 C4          3.9280    0.1230    4.9250 cp        1 0JQ     -0.080300
     15 C8          5.3740    0.0670    5.0790 cp        1 0JQ     -0.172300
     16 C12         6.0620    1.0420    5.8090 ca        1 0JQ     -0.080000
     17 C13         7.4490    0.9610    5.9630 ca        1 0JQ     -0.166600
     18 C16         8.1670    1.9890    6.7470 c3        1 0JQ     -0.042800
     19 C15         6.1340   -0.9900    4.5290 ca        1 0JQ      0.418200
     20 N3          7.4610   -1.0970    4.6500 nb        1 0JQ     -0.698000
     21 C14         8.1340   -0.1400    5.3580 ca        1 0JQ      0.594200
     22 N4          9.5600   -0.2320    5.5460 nh        1 0JQ     -0.722300
     23 C24        10.3020    0.4680    4.4980 c3        1 0JQ      0.172800
     24 C23        11.8040    0.4870    4.7740 c3        1 0JQ     -0.075400
     25 C20        10.0530   -1.5890    5.7650 c3        1 0JQ      0.172800
     26 C21        11.5520   -1.6140    6.0770 c3        1 0JQ     -0.075400
     27 C22        12.3330   -0.9250    4.9710 c3        1 0JQ     -0.053700
     28 C18        13.8530   -0.9310    5.2180 c3        1 0JQ      0.154800
     29 C17        14.2790   -0.0340    6.3750 c3        1 0JQ     -0.123100
     30 C19        14.3580   -2.3520    5.4590 c3        1 0JQ     -0.123100
     31 O3         14.4160   -0.4330    3.9980 oh        1 0JQ     -0.603800
     32 H1         -0.5640   -1.0050    0.4770 h1        1 0JQ      0.049700
     33 H2         -0.3560   -0.2110   -1.1710 h1        1 0JQ      0.049700
     34 H3         -0.5250    0.8270    0.3400 h1        1 0JQ      0.049700
     35 H4          0.0540    0.0490    2.4170 ha        1 0JQ      0.164000
     36 H5          5.7110    0.7240    0.3730 h1        1 0JQ      0.050033
     37 H6          5.5180   -0.2930   -1.1490 h1        1 0JQ      0.050033
     38 H7          5.6870   -1.1090    0.4930 h1        1 0JQ      0.050033
     39 H8          5.0850   -0.0500    2.4400 ha        1 0JQ      0.155000
     40 H9          3.5090    0.3200    7.0640 h4        1 0JQ      0.036100
     41 H10         5.5080    1.8780    6.2660 ha        1 0JQ      0.146000
     42 H11         7.4540    2.7210    7.2000 hc        1 0JQ      0.050367
     43 H12         8.7570    1.5110    7.5690 hc        1 0JQ      0.050367
     44 H13         8.8800    2.5520    6.0930 hc        1 0JQ      0.050367
     45 H14         5.6400   -1.8000    3.9600 h4        1 0JQ      0.029100
     46 H15         9.9220    1.5280    4.4570 h1        1 0JQ      0.043700
     47 H16        10.1250   -0.0020    3.4860 h1        1 0JQ      0.043700
     48 H17        12.3260    0.9650    3.9050 hc        1 0JQ      0.053700
     49 H18        12.0110    1.1040    5.6860 hc        1 0JQ      0.053700
     50 H19         9.4890   -2.0180    6.6390 h1        1 0JQ      0.043700
     51 H20         9.8720   -2.2570    4.8730 h1        1 0JQ      0.043700
     52 H21        11.7480   -1.1130    7.0590 hc        1 0JQ      0.053700
     53 H22        11.8640   -2.6860    6.1660 hc        1 0JQ      0.053700
     54 H23        12.1660   -1.4950    4.0110 hc        1 0JQ      0.063700
     55 H24        14.1410    1.0390    6.1000 hc        1 0JQ      0.043533
     56 H25        15.3570   -0.2010    6.6100 hc        1 0JQ      0.043533
     57 H26        13.6760   -0.2580    7.2850 hc        1 0JQ      0.043533
     58 H27        14.0430   -2.7070    6.4680 hc        1 0JQ      0.043533
     59 H28        15.4730   -2.3750    5.4050 hc        1 0JQ      0.043533
     60 H29        13.9510   -3.0420    4.6830 hc        1 0JQ      0.043533
     61 H30        15.3720   -0.4140    4.1210 ho        1 0JQ      0.398000
@<TRIPOS>BOND
     1    1    2 1   
     2    1   32 1   
     3    1   33 1   
     4    1   34 1   
     5    2    3 1   
     6    3    4 ar  
     7    3    5 ar  
     8    4   10 ar  
     9    4   35 1   
    10    5    6 1   
    11    5    8 ar  
    12    6    7 1   
    13    7   36 1   
    14    7   37 1   
    15    7   38 1   
    16    8    9 ar  
    17    8   39 1   
    18    9   10 ar  
    19    9   14 ar  
    20   10   11 ar  
    21   11   12 ar  
    22   12   13 ar  
    23   13   14 ar  
    24   13   40 1   
    25   14   15 1   
    26   15   16 ar  
    27   15   19 ar  
    28   16   17 ar  
    29   16   41 1   
    30   17   18 1   
    31   17   21 ar  
    32   18   42 1   
    33   18   43 1   
    34   18   44 1   
    35   19   20 ar  
    36   19   45 1   
    37   20   21 ar  
    38   21   22 1   
    39   22   23 1   
    40   22   25 1   
    41   23   24 1   
    42   23   46 1   
    43   23   47 1   
    44   24   27 1   
    45   24   48 1   
    46   24   49 1   
    47   25   26 1   
    48   25   50 1   
    49   25   51 1   
    50   26   27 1   
    51   26   52 1   
    52   26   53 1   
    53   27   28 1   
    54   27   54 1   
    55   28   29 1   
    56   28   30 1   
    57   28   31 1   
    58   29   55 1   
    59   29   56 1   
    60   29   57 1   
    61   30   58 1   
    62   30   59 1   
    63   30   60 1   
    64   31   61 1   
@<TRIPOS>SUBSTRUCTURE
     1 0JQ         1 TEMP              0 ****  ****    0 ROOT
