@<TRIPOS>MOLECULE
0JR
   45    45     1     0     0
SMALL
bcc


@<TRIPOS>ATOM
      1 OAE         2.1070   -0.3070    1.5790 o         1 0JR     -0.622100
      2 CAU         2.6690   -0.7180    0.5410 c         1 0JR      0.625100
      3 CAV         4.1650   -0.4360    0.3260 c3        1 0JR      0.083100
      4 OAG         4.8160   -0.4540    1.5800 oh        1 0JR     -0.581800
      5 CAW         4.3930    0.8950   -0.4220 c3        1 0JR     -0.076000
      6 CAB         5.8830    1.0330   -0.7020 c3        1 0JR     -0.089600
      7 CAC         3.6280    0.9010   -1.7340 c3        1 0JR     -0.089600
      8 CAP         3.9330    2.0650    0.4590 c3        1 0JR      0.125400
      9 OAS         3.9910    3.2500   -0.3200 oh        1 0JR     -0.598800
     10 NAR         2.0070   -1.4850   -0.3940 n         1 0JR     -0.550900
     11 CAN         0.5960   -1.7390   -0.3060 c3        1 0JR      0.090000
     12 CAO        -0.2770   -0.6960   -1.0080 c3        1 0JR     -0.188400
     13 CAT        -1.7420   -1.0800   -0.9120 c         1 0JR      0.655100
     14 OAD        -2.3770   -1.4440   -1.9210 o         1 0JR     -0.605100
     15 NAQ        -2.3290   -1.0500    0.3420 n         1 0JR     -0.558900
     16 CAM        -3.7380   -1.2730    0.5260 c3        1 0JR      0.135300
     17 CAL        -4.5870   -0.0390    0.4560 ca        1 0JR     -0.243600
     18 C2         -4.8090    0.5960   -0.7860 ca        1 0JR      0.411200
     19 N1         -5.5760    1.6910   -0.9330 nb        1 0JR     -0.664000
     20 C6         -6.1580    2.1920    0.1750 ca        1 0JR      0.398200
     21 C5         -6.0010    1.6310    1.4550 ca        1 0JR     -0.250300
     22 C4         -5.1980    0.4970    1.5920 ca        1 0JR     -0.084000
     23 H13         4.6580   -1.2700   -0.2520 h1        1 0JR      0.091700
     24 H14         4.2920    0.0820    2.1940 ho        1 0JR      0.423000
     25 H15         6.2090    0.2760   -1.4540 hc        1 0JR      0.045533
     26 H16         6.0950    2.0550   -1.0990 hc        1 0JR      0.045533
     27 H17         6.4640    0.8780    0.2390 hc        1 0JR      0.045533
     28 H18         2.5280    0.9570   -1.5520 hc        1 0JR      0.045533
     29 H19         3.9240    1.8010   -2.3290 hc        1 0JR      0.045533
     30 H20         3.8590   -0.0150   -2.3280 hc        1 0JR      0.045533
     31 H21         2.8810    1.8900    0.8140 h1        1 0JR      0.035700
     32 H22         4.6140    2.1570    1.3480 h1        1 0JR      0.035700
     33 H23         3.7460    3.9720    0.2700 ho        1 0JR      0.404000
     34 H12         2.4400   -1.6260   -1.2770 hn        1 0JR      0.313500
     35 H11         0.3970   -2.7480   -0.7680 h1        1 0JR      0.072700
     36 H10         0.3160   -1.7840    0.7870 h1        1 0JR      0.072700
     37 H8         -0.1160    0.3170   -0.5540 hc        1 0JR      0.076700
     38 H9         -0.0160   -0.6320   -2.0970 hc        1 0JR      0.076700
     39 H7         -1.8500   -0.5720    1.0690 hn        1 0JR      0.311500
     40 H5         -4.0880   -1.9940   -0.2710 h1        1 0JR      0.071700
     41 H6         -3.8740   -1.7620    1.5340 h1        1 0JR      0.071700
     42 H4         -4.3410    0.1920   -1.7070 h4        1 0JR      0.044100
     43 H3         -6.7840    3.0900    0.0240 h4        1 0JR      0.022100
     44 H2         -6.5000    2.0790    2.3240 ha        1 0JR      0.144000
     45 H1         -5.0540    0.0320    2.5780 ha        1 0JR      0.137000
@<TRIPOS>BOND
     1    1    2 2   
     2    2    3 1   
     3    2   10 1   
     4    3    4 1   
     5    3    5 1   
     6    3   23 1   
     7    4   24 1   
     8    5    6 1   
     9    5    7 1   
    10    5    8 1   
    11    6   25 1   
    12    6   26 1   
    13    6   27 1   
    14    7   28 1   
    15    7   29 1   
    16    7   30 1   
    17    8    9 1   
    18    8   31 1   
    19    8   32 1   
    20    9   33 1   
    21   10   11 1   
    22   10   34 1   
    23   11   12 1   
    24   11   35 1   
    25   11   36 1   
    26   12   13 1   
    27   12   37 1   
    28   12   38 1   
    29   13   14 2   
    30   13   15 1   
    31   15   16 1   
    32   15   39 1   
    33   16   17 1   
    34   16   40 1   
    35   16   41 1   
    36   17   18 ar  
    37   17   22 ar  
    38   18   19 ar  
    39   18   42 1   
    40   19   20 ar  
    41   20   21 ar  
    42   20   43 1   
    43   21   22 ar  
    44   21   44 1   
    45   22   45 1   
@<TRIPOS>SUBSTRUCTURE
     1 0JR         1 TEMP              0 ****  ****    0 ROOT
