@<TRIPOS>MOLECULE
0JR
   45    42     1     0     0
SMALL
bcc


@<TRIPOS>ATOM
      1 OAE        -1.9750   -0.0250    2.8590 o         1 0JR     -0.375000
      2 CAU        -0.8560    0.3950    2.6040 c1        1 0JR      0.300000
      3 CAV         0.3670   -0.3100    3.1800 c3        1 0JR      0.014000
      4 OAG         1.0890   -0.9050    2.1460 oh        1 0JR     -0.335000
      5 CAW        -0.0760   -1.3690    4.1540 c3        1 0JR     -0.076000
      6 CAB         1.1180   -2.0450    4.7280 c3        1 0JR     -0.210000
      7 CAC        -0.8870   -0.7160    5.2800 c3        1 0JR     -0.210000
      8 CAP        -0.9320   -2.3860    3.4400 c3        1 0JR     -0.020000
      9 OAS        -0.9490   -3.5950    4.1830 oh        1 0JR     -0.330000
     10 NAR        -0.6840    1.4290    1.6070 n2        1 0JR     -0.351000
     11 CAN        -1.6100    1.5270    0.4840 c3        1 0JR     -0.019000
     12 CAO        -0.9260    2.2370   -0.6680 c3        1 0JR     -0.215000
     13 CAT        -1.3120    1.5800   -1.9660 c2        1 0JR      0.298000
     14 OAD        -2.3790    1.0100   -2.0600 o         1 0JR     -0.383000
     15 NAQ        -0.4530    1.7030   -3.1300 n         1 0JR     -0.367000
     16 CAM        -0.6690    0.8160   -4.2860 c3        1 0JR      0.012000
     17 CAL         0.6300    0.7150   -5.1230 c2        1 0JR     -0.171000
     18 C2          0.8990    1.6500   -6.0860 c2        1 0JR     -0.064000
     19 N1          2.0430    1.5440   -6.8510 n1        1 0JR     -0.141000
     20 C6          2.9100    0.5050   -6.6500 c1        1 0JR     -0.125000
     21 C5          2.6400   -0.4410   -5.6770 c1        1 0JR     -0.125000
     22 C4          1.5060   -0.3380   -4.9160 c1        1 0JR     -0.075000
     23 H13         0.9310    0.3400    3.6400 h1        1 0JR      0.111000
     24 H14         1.5910   -0.3160    1.7730 ho        1 0JR      0.216000
     25 H15         0.8470   -2.6080    5.4850 hc        1 0JR      0.085667
     26 H16         1.5420   -2.6060    4.0370 hc        1 0JR      0.085667
     27 H17         1.7720   -1.3530    5.0420 hc        1 0JR      0.085667
     28 H18        -0.4860    0.1230    5.5200 hc        1 0JR      0.085667
     29 H19        -0.8950   -1.3140    6.0670 hc        1 0JR      0.085667
     30 H20        -1.8320   -0.5600    4.9660 hc        1 0JR      0.085667
     31 H21        -0.5690   -2.5530    2.5640 h1        1 0JR      0.075500
     32 H22        -1.8770   -2.0300    3.3510 h1        1 0JR      0.075500
     33 H23        -1.6410   -4.0710    3.9480 ho        1 0JR      0.201000
     34 H12        -0.0210    2.0550    1.7100 hn        1 0JR      0.252000
     35 H11        -1.8800    0.6310    0.2030 h1        1 0JR      0.111000
     36 H10        -2.3740    2.0150    0.7470 h1        1 0JR      0.111000
     37 H8          0.0160    2.1840   -0.5540 hc        1 0JR      0.116500
     38 H9         -1.2070    3.1870   -0.6830 hc        1 0JR      0.116500
     39 H7          0.2870    2.3050   -3.1170 hn        1 0JR      0.220000
     40 H5         -0.9300   -0.1140   -3.9520 h1        1 0JR      0.111500
     41 H6         -1.4140    1.1910   -4.8640 h1        1 0JR      0.111500
     42 H4          0.3270    2.3370   -6.2210 h4        1 0JR      0.157000
     43 H3          3.7070    0.4330   -7.1820 ha        1 0JR      0.152500
     44 H2          3.3020   -1.2370   -5.5230 ha        1 0JR      0.152500
     45 H1          1.3090   -1.0240   -4.2110 ha        1 0JR      0.161000
@<TRIPOS>BOND
     1    1    2 1   
     2    2    3 1   
     3    3    4 1   
     4    3    5 1   
     5    3   23 1   
     6    4   24 1   
     7    5    6 1   
     8    5    7 1   
     9    5    8 1   
    10    6   25 1   
    11    6   26 1   
    12    6   27 1   
    13    7   28 1   
    14    7   29 1   
    15    7   30 1   
    16    8    9 1   
    17    8   31 1   
    18    8   32 1   
    19    9   33 1   
    20   10   11 1   
    21   10   34 1   
    22   11   12 1   
    23   11   35 1   
    24   11   36 1   
    25   12   13 1   
    26   12   37 1   
    27   12   38 1   
    28   13   14 1   
    29   13   15 1   
    30   15   16 1   
    31   15   39 1   
    32   16   17 1   
    33   16   40 1   
    34   16   41 1   
    35   17   18 1   
    36   17   22 1   
    37   18   19 1   
    38   18   42 1   
    39   20   21 1   
    40   20   43 1   
    41   21   44 1   
    42   22   45 1   
@<TRIPOS>SUBSTRUCTURE
     1 0JR         1 TEMP              0 ****  ****    0 ROOT
