@<TRIPOS>MOLECULE
0JR
   47    47     1     0     0
SMALL
bcc


@<TRIPOS>ATOM
      1 OAE         2.4440   -1.4490    0.0720 o         1 0JR     -0.388100
      2 CAU         2.2320   -0.2640   -0.0970 c         1 0JR      0.575100
      3 CAV         1.4970    0.7010    0.8250 c3        1 0JR      0.104100
      4 OAG         1.0020    1.7530    0.0120 oh        1 0JR     -0.645800
      5 CAW         2.4170    1.2040    1.9620 c3        1 0JR     -0.111000
      6 CAB         1.6100    2.1520    2.8410 c3        1 0JR     -0.113100
      7 CAC         2.8850    0.0250    2.8000 c3        1 0JR     -0.113100
      8 CAP         3.6170    1.9750    1.3950 c3        1 0JR      0.119400
      9 OAS         4.4420    1.1320    0.6080 oh        1 0JR     -0.674800
     10 NAR         2.8000    0.3130   -1.3980 n4        1 0JR     -0.666800
     11 CAN         1.8090    0.2210   -2.4970 c3        1 0JR      0.106800
     12 CAO         2.3520    0.6850   -3.8520 c3        1 0JR     -0.181400
     13 CAT         1.2560    0.5620   -4.8790 c         1 0JR      0.536100
     14 OAD         0.1090    0.1960   -4.6690 o         1 0JR     -0.383100
     15 NAQ         1.6050    0.9230   -6.2900 n4        1 0JR     -0.683800
     16 CAM         2.0030   -0.2990   -7.1020 c3        1 0JR      0.204100
     17 CAL         2.3320    0.0900   -8.4890 ca        1 0JR     -0.345600
     18 C2          3.6370    0.5200   -8.8210 ca        1 0JR      0.438200
     19 N1          4.0130    0.8400  -10.0700 nb        1 0JR     -0.633000
     20 C6          3.0940    0.7280  -11.0500 ca        1 0JR      0.471200
     21 C5          1.7680    0.2990  -10.8220 ca        1 0JR     -0.227300
     22 C4          1.3850   -0.0220   -9.5230 ca        1 0JR     -0.046000
     23 H13         0.6350    0.1150    1.2700 h1        1 0JR      0.124700
     24 H14         0.4870    2.3450    0.5840 ho        1 0JR      0.474000
     25 H15         2.1880    2.3870    3.7700 hc        1 0JR      0.066867
     26 H16         1.4030    3.1140    2.3120 hc        1 0JR      0.066867
     27 H17         0.6440    1.6820    3.1450 hc        1 0JR      0.066867
     28 H18         3.5410    0.3880    3.6300 hc        1 0JR      0.066867
     29 H19         2.0140   -0.5080    3.2520 hc        1 0JR      0.066867
     30 H20         3.4680   -0.7000    2.1810 hc        1 0JR      0.066867
     31 H21         3.2600    2.7790    0.6950 h1        1 0JR      0.077700
     32 H22         4.1960    2.4420    2.2350 h1        1 0JR      0.077700
     33 H23         5.1170    0.7480    1.1850 ho        1 0JR      0.450000
     34 H12         3.0470    1.2970   -1.2080 hn        1 0JR      0.472800
     35 H11         1.4710   -0.8560   -2.5750 hx        1 0JR      0.137700
     36 H10         0.9130    0.8510   -2.2030 hx        1 0JR      0.137700
     37 H8          3.2320    0.0580   -4.1680 hc        1 0JR      0.117700
     38 H9          2.6880    1.7590   -3.7980 hc        1 0JR      0.117700
     39 H7          2.3710    1.6050   -6.3140 hn        1 0JR      0.471300
     40 H5          2.8910   -0.7620   -6.5860 hx        1 0JR      0.110700
     41 H6          1.1290   -1.0140   -7.0690 hx        1 0JR      0.110700
     42 H4          4.4290    0.5980   -8.0540 h4        1 0JR      0.022100
     43 H3          3.4430    0.9920  -12.0710 h4        1 0JR      0.069100
     44 H2          1.0600    0.2150  -11.6610 ha        1 0JR      0.186000
     45 H1          0.3620   -0.3750   -9.3150 ha        1 0JR      0.155000
     46 HAR2        3.6610   -0.1960   -1.6340 hn        1 0JR      0.472800
     47 HAQ2        0.7820    1.3500   -6.7450 hn        1 0JR      0.471300
@<TRIPOS>BOND
     1    1    2 2   
     2    2    3 1   
     3    2   10 1   
     4    3    4 1   
     5    3    5 1   
     6    3   23 1   
     7    4   24 1   
     8    5    6 1   
     9    5    7 1   
    10    5    8 1   
    11    6   25 1   
    12    6   26 1   
    13    6   27 1   
    14    7   28 1   
    15    7   29 1   
    16    7   30 1   
    17    8    9 1   
    18    8   31 1   
    19    8   32 1   
    20    9   33 1   
    21   10   11 1   
    22   10   34 1   
    23   10   46 1   
    24   11   12 1   
    25   11   35 1   
    26   11   36 1   
    27   12   13 1   
    28   12   37 1   
    29   12   38 1   
    30   13   14 2   
    31   13   15 1   
    32   15   16 1   
    33   15   39 1   
    34   15   47 1   
    35   16   17 1   
    36   16   40 1   
    37   16   41 1   
    38   17   18 ar  
    39   17   22 ar  
    40   18   19 ar  
    41   18   42 1   
    42   19   20 ar  
    43   20   21 ar  
    44   20   43 1   
    45   21   22 ar  
    46   21   44 1   
    47   22   45 1   
@<TRIPOS>SUBSTRUCTURE
     1 0JR         1 TEMP              0 ****  ****    0 ROOT
