@<TRIPOS>MOLECULE
0JR
   47    47     1     0     0
SMALL
bcc


@<TRIPOS>ATOM
      1 OAE         2.4680   -1.1610   -0.0740 o         1 0JR     -0.401100
      2 CAU         1.9580   -0.0570   -0.0470 c         1 0JR      0.578100
      3 CAV         1.3160    0.6370    1.1520 c3        1 0JR      0.106100
      4 OAG         0.4690    1.6540    0.6450 oh        1 0JR     -0.642800
      5 CAW         2.3910    1.1850    2.1200 c3        1 0JR     -0.109000
      6 CAB         1.6880    1.9660    3.2240 c3        1 0JR     -0.113600
      7 CAC         3.1580    0.0280    2.7380 c3        1 0JR     -0.113600
      8 CAP         3.3460    2.1360    1.3870 c3        1 0JR      0.119400
      9 OAS         4.0460    1.4610    0.3540 oh        1 0JR     -0.677800
     10 NAR         1.9630    0.7240   -1.3650 ny        1 0JR     -0.677800
     11 CAN         2.1410   -0.1430   -2.5530 c3        1 0JR      0.100800
     12 CAO         2.3210    0.6360   -3.8600 c3        1 0JR     -0.181400
     13 CAT         2.4860   -0.3500   -4.9880 c         1 0JR      0.534100
     14 OAD         2.4100   -1.5670   -4.8930 o         1 0JR     -0.380100
     15 NAQ         2.7700    0.2130   -6.3460 ny        1 0JR     -0.682800
     16 CAM         1.6650   -0.1120   -7.3400 c3        1 0JR      0.201100
     17 CAL         2.0810    0.2590   -8.7090 ca        1 0JR     -0.346600
     18 C2          2.8620   -0.6310   -9.4810 ca        1 0JR      0.443200
     19 N1          3.2290   -0.3800  -10.7480 nb        1 0JR     -0.631000
     20 C6          2.8130    0.7740  -11.3060 ca        1 0JR      0.471200
     21 C5          2.0210    1.7230  -10.6210 ca        1 0JR     -0.230300
     22 C4          1.6530    1.4590   -9.3060 ca        1 0JR     -0.051000
     23 H13         0.7050   -0.1580    1.6800 h1        1 0JR      0.124700
     24 H14        -0.0490    2.0040    1.3880 ho        1 0JR      0.478000
     25 H15         1.2580    2.9190    2.8290 hc        1 0JR      0.066867
     26 H16         2.4210    2.2220    4.0290 hc        1 0JR      0.066867
     27 H17         0.8720    1.3540    3.6790 hc        1 0JR      0.066867
     28 H18         3.9530    0.4210    3.4180 hc        1 0JR      0.066867
     29 H19         3.6420   -0.5990    1.9500 hc        1 0JR      0.066867
     30 H20         2.4740   -0.6190    3.3410 hc        1 0JR      0.066867
     31 H21         2.7620    2.9440    0.8670 h1        1 0JR      0.080700
     32 H22         4.0570    2.6000    2.1200 h1        1 0JR      0.080700
     33 H23         4.8290    1.0480    0.7420 ho        1 0JR      0.449000
     34 H12         1.0790    1.2470   -1.4250 hn        1 0JR      0.481800
     35 H11         1.2420   -0.8240   -2.6330 hx        1 0JR      0.136700
     36 H10         3.0460   -0.8030   -2.3770 hx        1 0JR      0.136700
     37 H8          1.4250    1.2850   -4.0680 hc        1 0JR      0.116700
     38 H9          3.2290    1.3000   -3.8030 hc        1 0JR      0.116700
     39 H7          2.9000    1.2290   -6.3030 hn        1 0JR      0.468300
     40 H5          1.4720   -1.2230   -7.2600 hx        1 0JR      0.115700
     41 H6          0.7470    0.4550   -7.0170 hx        1 0JR      0.115700
     42 H4          3.1990   -1.6040   -9.0730 h4        1 0JR      0.034100
     43 H3          3.1260    0.9420  -12.3580 h4        1 0JR      0.068100
     44 H2          1.6980    2.6440  -11.1300 ha        1 0JR      0.183000
     45 H1          1.0210    2.1700   -8.7520 ha        1 0JR      0.146000
     46 HAR2        2.7370    1.4050   -1.2920 hn        1 0JR      0.481800
     47 HAQ2        3.6430   -0.2050   -6.7080 hn        1 0JR      0.468300
@<TRIPOS>BOND
     1    1    2 2   
     2    2    3 1   
     3    2   10 1   
     4    3    4 1   
     5    3    5 1   
     6    3   23 1   
     7    4   24 1   
     8    5    6 1   
     9    5    7 1   
    10    5    8 1   
    11    6   25 1   
    12    6   26 1   
    13    6   27 1   
    14    7   28 1   
    15    7   29 1   
    16    7   30 1   
    17    8    9 1   
    18    8   31 1   
    19    8   32 1   
    20    9   33 1   
    21   10   11 1   
    22   10   34 1   
    23   10   46 1   
    24   11   12 1   
    25   11   35 1   
    26   11   36 1   
    27   12   13 1   
    28   12   37 1   
    29   12   38 1   
    30   13   14 2   
    31   13   15 1   
    32   15   16 1   
    33   15   39 1   
    34   15   47 1   
    35   16   17 1   
    36   16   40 1   
    37   16   41 1   
    38   17   18 ar  
    39   17   22 ar  
    40   18   19 ar  
    41   18   42 1   
    42   19   20 ar  
    43   20   21 ar  
    44   20   43 1   
    45   21   22 ar  
    46   21   44 1   
    47   22   45 1   
@<TRIPOS>SUBSTRUCTURE
     1 0JR         1 TEMP              0 ****  ****    0 ROOT
