@<TRIPOS>MOLECULE
0JR
   47    47     1     0     0
SMALL
bcc


@<TRIPOS>ATOM
      1 OAE         2.5860   -1.1310   -0.0650 o         1 0JR     -0.401100
      2 CAU         2.0190   -0.0550   -0.0400 c         1 0JR      0.578100
      3 CAV         1.3530    0.6110    1.1620 c3        1 0JR      0.106100
      4 OAG         0.4500    1.5810    0.6570 oh        1 0JR     -0.642800
      5 CAW         2.4060    1.2200    2.1170 c3        1 0JR     -0.109000
      6 CAB         1.6730    1.9700    3.2230 c3        1 0JR     -0.113600
      7 CAC         3.2370    0.1070    2.7340 c3        1 0JR     -0.113600
      8 CAP         3.3040    2.2150    1.3710 c3        1 0JR      0.119400
      9 OAS         4.0290    1.5710    0.3350 oh        1 0JR     -0.677800
     10 NAR         1.9720    0.7170   -1.3620 n4        1 0JR     -0.677800
     11 CAN         2.1870   -0.1460   -2.5470 c3        1 0JR      0.100800
     12 CAO         2.3120    0.6340   -3.8590 c3        1 0JR     -0.182400
     13 CAT         2.5230   -0.3480   -4.9830 c         1 0JR      0.534100
     14 OAD         2.5170   -1.5660   -4.8800 o         1 0JR     -0.380100
     15 NAQ         2.7640    0.2220   -6.3470 n4        1 0JR     -0.682800
     16 CAM         1.6770   -0.1800   -7.3330 c3        1 0JR      0.201100
     17 CAL         2.0610    0.2070   -8.7060 ca        1 0JR     -0.346600
     18 C2          2.8950   -0.6370   -9.4760 ca        1 0JR      0.443200
     19 N1          3.2390   -0.3730  -10.7460 nb        1 0JR     -0.631000
     20 C6          2.7460    0.7480  -11.3110 ca        1 0JR      0.471200
     21 C5          1.8980    1.6490  -10.6290 ca        1 0JR     -0.230300
     22 C4          1.5550    1.3710   -9.3090 ca        1 0JR     -0.051000
     23 H13         0.7880   -0.2110    1.6990 h1        1 0JR      0.124700
     24 H14        -0.0800    1.9070    1.4020 ho        1 0JR      0.478000
     25 H15         1.1910    2.8970    2.8270 hc        1 0JR      0.066867
     26 H16         2.3990    2.2680    4.0200 hc        1 0JR      0.066867
     27 H17         0.8940    1.3190    3.6890 hc        1 0JR      0.066867
     28 H18         4.0170    0.5460    3.4050 hc        1 0JR      0.066867
     29 H19         3.7470   -0.4980    1.9450 hc        1 0JR      0.066867
     30 H20         2.5940   -0.5710    3.3470 hc        1 0JR      0.066867
     31 H21         2.6750    2.9890    0.8510 h1        1 0JR      0.080700
     32 H22         3.9970    2.7200    2.0940 h1        1 0JR      0.080700
     33 H23         4.8360    1.2020    0.7170 ho        1 0JR      0.449000
     34 H12         2.7090    1.4390   -1.2980 hn        1 0JR      0.481800
     35 H11         1.3250   -0.8750   -2.6150 hx        1 0JR      0.136700
     36 H10         3.1270   -0.7540   -2.3750 hx        1 0JR      0.136700
     37 H8          1.3790    1.2300   -4.0640 hc        1 0JR      0.116700
     38 H9          3.1820    1.3490   -3.8140 hc        1 0JR      0.116700
     39 H7          3.6590   -0.1430   -6.7100 hn        1 0JR      0.468300
     40 H5          1.5550   -1.3010   -7.2430 hx        1 0JR      0.115700
     41 H6          0.7260    0.3300   -7.0080 hx        1 0JR      0.115700
     42 H4          3.2950   -1.5830   -9.0620 h4        1 0JR      0.034100
     43 H3          3.0430    0.9270  -12.3650 h4        1 0JR      0.068100
     44 H2          1.5130    2.5440  -11.1430 ha        1 0JR      0.183000
     45 H1          0.8800    2.0450   -8.7580 ha        1 0JR      0.146000
     46 HAR2        1.0600    1.1920   -1.4170 hn        1 0JR      0.481800
     47 HAQ2        2.8290    1.2440   -6.3120 hn        1 0JR      0.468300
@<TRIPOS>BOND
     1    1    2 2   
     2    2    3 1   
     3    2   10 1   
     4    3    4 1   
     5    3    5 1   
     6    3   23 1   
     7    4   24 1   
     8    5    6 1   
     9    5    7 1   
    10    5    8 1   
    11    6   25 1   
    12    6   26 1   
    13    6   27 1   
    14    7   28 1   
    15    7   29 1   
    16    7   30 1   
    17    8    9 1   
    18    8   31 1   
    19    8   32 1   
    20    9   33 1   
    21   10   11 1   
    22   10   34 1   
    23   10   46 1   
    24   11   12 1   
    25   11   35 1   
    26   11   36 1   
    27   12   13 1   
    28   12   37 1   
    29   12   38 1   
    30   13   14 2   
    31   13   15 1   
    32   15   16 1   
    33   15   39 1   
    34   15   47 1   
    35   16   17 1   
    36   16   40 1   
    37   16   41 1   
    38   17   18 ar  
    39   17   22 ar  
    40   18   19 ar  
    41   18   42 1   
    42   19   20 ar  
    43   20   21 ar  
    44   20   43 1   
    45   21   22 ar  
    46   21   44 1   
    47   22   45 1   
@<TRIPOS>SUBSTRUCTURE
     1 0JR         1 TEMP              0 ****  ****    0 ROOT
