@<TRIPOS>MOLECULE
0JT
   24    23     1     0     0
SMALL
bcc


@<TRIPOS>ATOM
      1 N22        -1.3030    1.8930   -0.1300 n3        1 0JT     -0.905800
      2 C18        -1.1980    0.4890    0.2510 c3        1 0JT      0.154500
      3 C19        -2.3840   -0.3360   -0.3040 c3        1 0JT     -0.058700
      4 C21        -2.2900   -1.7770    0.1520 c3        1 0JT     -0.084100
      5 C20        -3.7110    0.2530    0.1290 c3        1 0JT     -0.084100
      6 C17         0.1280   -0.1780   -0.1500 c3        1 0JT     -0.103400
      7 C16         1.3410    0.6340    0.2280 c3        1 0JT     -0.203400
      8 C14         2.6260   -0.2170    0.1660 c         1 0JT      0.910600
      9 O15         2.5970   -1.3890    0.6390 o         1 0JT     -0.849800
     10 H29        -0.5350    2.3940    0.2800 hn        1 0JT      0.337800
     11 H30        -1.2680    0.4650    1.3800 h1        1 0JT      0.048700
     12 H31        -2.3330   -0.3170   -1.4290 hc        1 0JT      0.036700
     13 H32        -3.2320   -2.3240   -0.0980 hc        1 0JT      0.028533
     14 H33        -1.4390   -2.2970   -0.3520 hc        1 0JT      0.028533
     15 H34        -2.1320   -1.8310    1.2560 hc        1 0JT      0.028533
     16 H35        -3.8650    1.2640   -0.3180 hc        1 0JT      0.028533
     17 H36        -4.5520   -0.4060   -0.1980 hc        1 0JT      0.028533
     18 H37        -3.7480    0.3500    1.2400 hc        1 0JT      0.028533
     19 H38         0.2100   -1.1730    0.3660 hc        1 0JT      0.051700
     20 H39         0.1320   -0.3700   -1.2540 hc        1 0JT      0.051700
     21 H40         1.4640    1.5140   -0.4510 hc        1 0JT      0.018700
     22 H41         1.2400    1.0150    1.2760 hc        1 0JT      0.018700
     23 H2         -1.2230    1.9760   -1.1260 hn        1 0JT      0.337800
     24 OXT         3.6540    0.3160   -0.3420 o         1 0JT     -0.849800
@<TRIPOS>BOND
     1    1    2 1   
     2    1   10 1   
     3    1   23 1   
     4    2    3 1   
     5    2    6 1   
     6    2   11 1   
     7    3    4 1   
     8    3    5 1   
     9    3   12 1   
    10    4   13 1   
    11    4   14 1   
    12    4   15 1   
    13    5   16 1   
    14    5   17 1   
    15    5   18 1   
    16    6    7 1   
    17    6   19 1   
    18    6   20 1   
    19    7    8 1   
    20    7   21 1   
    21    7   22 1   
    22    8    9 1   
    23    8   24 1   
@<TRIPOS>SUBSTRUCTURE
     1 0JT         1 TEMP              0 ****  ****    0 ROOT
