@<TRIPOS>MOLECULE
0JT
   24    23     1     0     0
SMALL
bcc


@<TRIPOS>ATOM
      1 N22        -1.7080    0.3530   -0.0440 n3        1 0JT     -0.902800
      2 C18        -0.2850    0.3530   -0.0440 c3        1 0JT      0.152500
      3 C19         0.2180    0.3530    1.3810 c3        1 0JT     -0.060700
      4 C21         0.8500    1.6920    1.6930 c3        1 0JT     -0.084600
      5 C20        -0.9380    0.1090    2.3250 c3        1 0JT     -0.084600
      6 C17         0.2180   -0.8810   -0.7560 c3        1 0JT     -0.101400
      7 C16         0.5030   -0.5460   -2.2040 c3        1 0JT     -0.202400
      8 C14         0.9960   -1.7840   -2.9200 c         1 0JT      0.909600
      9 O15         2.2270   -2.0430   -2.9550 o         1 0JT     -0.849800
     10 H29        -2.0120    1.1730   -0.3050 hn        1 0JT      0.337800
     11 H30         0.0400    1.1500   -0.5040 h1        1 0JT      0.048700
     12 H31         0.8830   -0.3530    1.4910 hc        1 0JT      0.048700
     13 H32         1.5910    1.8540    1.0780 hc        1 0JT      0.026867
     14 H33         1.1830    1.6890    2.6100 hc        1 0JT      0.026867
     15 H34         0.1830    2.3980    1.5910 hc        1 0JT      0.026867
     16 H35        -1.5870    0.8340    2.2400 hc        1 0JT      0.026867
     17 H36        -0.6080    0.0750    3.2430 hc        1 0JT      0.026867
     18 H37        -1.3670   -0.7390    2.1020 hc        1 0JT      0.026867
     19 H38        -0.4590   -1.5820   -0.7110 hc        1 0JT      0.050200
     20 H39         1.0380   -1.1920   -0.3270 hc        1 0JT      0.050200
     21 H40         1.1860    0.1490   -2.2490 hc        1 0JT      0.019200
     22 H41        -0.3150   -0.2270   -2.6310 hc        1 0JT      0.019200
     23 H2         -2.0120   -0.2830   -0.6220 hn        1 0JT      0.337800
     24 OXT         0.1740   -2.5560   -3.4810 o         1 0JT     -0.849800
@<TRIPOS>BOND
     1    1    2 1   
     2    1   10 1   
     3    1   23 1   
     4    2    3 1   
     5    2    6 1   
     6    2   11 1   
     7    3    4 1   
     8    3    5 1   
     9    3   12 1   
    10    4   13 1   
    11    4   14 1   
    12    4   15 1   
    13    5   16 1   
    14    5   17 1   
    15    5   18 1   
    16    6    7 1   
    17    6   19 1   
    18    6   20 1   
    19    7    8 1   
    20    7   21 1   
    21    7   22 1   
    22    8    9 1   
    23    8   24 1   
@<TRIPOS>SUBSTRUCTURE
     1 0JT         1 TEMP              0 ****  ****    0 ROOT
