@<TRIPOS>MOLECULE
0JU
   20    16     1     0     0
SMALL
bcc


@<TRIPOS>ATOM
      1 C           1.2550    1.7370   -1.4360 c1        1 0JU     -0.101000
      2 NF          2.4960    1.7170   -1.8780 n1        1 0JU     -0.226000
      3 CA          0.8960    1.0100   -0.1730 c2        1 0JU     -0.060000
      4 N           0.7730    1.9530    0.9010 n3        1 0JU     -0.347000
      5 CB         -0.4350    0.2710   -0.3630 c3        1 0JU     -0.142000
      6 CG         -0.4060   -1.0540    0.4390 c3        1 0JU     -0.172000
      7 CD         -1.7310   -1.7560    0.3020 c1        1 0JU      0.297000
      8 OE         -2.4820   -1.4530   -0.5880 o         1 0JU     -0.378000
      9 NE         -2.0330   -2.8640    1.1400 n2        1 0JU     -0.440000
     10 H1          0.5630    2.2290   -1.9350 ha        1 0JU      0.152000
     11 H2          3.1450    1.2550   -1.4090 DU        1 0JU      0.127000
     12 H3          1.5950    0.3650    0.0390 h4        1 0JU      0.114000
     13 H4          1.4580    1.8240    1.5020 hn        1 0JU      0.149500
     14 H5          0.8180    2.8160    0.5620 hn        1 0JU      0.149500
     15 H7         -1.1780    0.8380   -0.0350 hc        1 0JU      0.105000
     16 H8         -0.5700    0.0730   -1.3250 hc        1 0JU      0.105000
     17 H9         -0.2360   -0.8610    1.3790 hc        1 0JU      0.109500
     18 H10         0.3020   -1.6280    0.0930 hc        1 0JU      0.109500
     19 H11        -1.4140   -3.1590    1.7500 hn        1 0JU      0.224500
     20 H12        -2.8160   -3.3130    1.0340 hn        1 0JU      0.224500
@<TRIPOS>BOND
     1    1    2 1   
     2    1   10 1   
     3    3    4 1   
     4    3    5 1   
     5    3   12 1   
     6    4   13 1   
     7    4   14 1   
     8    5    6 1   
     9    5   15 1   
    10    5   16 1   
    11    6    7 1   
    12    6   17 1   
    13    6   18 1   
    14    7    8 1   
    15    9   19 1   
    16    9   20 1   
@<TRIPOS>SUBSTRUCTURE
     1 0JU         1 TEMP              0 ****  ****    0 ROOT
