@<TRIPOS>MOLECULE
0JU
   22    21     1     0     0
SMALL
bcc


@<TRIPOS>ATOM
      1 C          -0.8910   -0.4530    0.5980 c2        1 0JU      0.367200
      2 NF         -0.7050    0.1700   -0.4880 n2        1 0JU     -0.647100
      3 CA         -0.4440   -0.0940    2.0180 c3        1 0JU      0.009200
      4 N           1.0530   -0.1500    2.1310 n4        1 0JU     -0.836600
      5 CB         -0.9990    1.2720    2.4380 c3        1 0JU     -0.109400
      6 CG         -2.5210    1.2330    2.4780 c3        1 0JU     -0.149400
      7 CD         -3.0520    2.6060    2.7890 c         1 0JU      0.537100
      8 OE         -2.4180    3.6260    2.9930 o         1 0JU     -0.362100
      9 NE         -4.5540    2.7480    2.8580 n4        1 0JU     -0.757400
     10 H1         -1.4750   -1.4020    0.5560 h4        1 0JU      0.078800
     11 H2         -0.1780    1.0180   -0.5050 hn        1 0JU      0.414400
     12 H3         -0.8400   -0.8870    2.7270 hx        1 0JU      0.130700
     13 H4          1.4920    0.5560    1.5290 hn        1 0JU      0.475800
     14 H5          1.3800   -1.0820    1.8380 hn        1 0JU      0.475800
     15 H7         -0.6140    1.5570    3.4560 hc        1 0JU      0.097200
     16 H8         -0.6620    2.0700    1.7200 hc        1 0JU      0.097200
     17 H9         -2.9270    0.8890    1.4840 hc        1 0JU      0.121200
     18 H10        -2.8710    0.5080    3.2650 hc        1 0JU      0.121200
     19 H11        -4.8020    3.7280    3.0760 hn        1 0JU      0.486467
     20 H12        -4.9810    2.4950    1.9590 hn        1 0JU      0.486467
     21 HN3         1.3450    0.0170    3.1010 hn        1 0JU      0.475800
     22 HE3        -4.9400    2.1420    3.5910 hn        1 0JU      0.486467
@<TRIPOS>BOND
     1    1    2 2   
     2    1    3 1   
     3    1   10 1   
     4    2   11 1   
     5    3    4 1   
     6    3    5 1   
     7    3   12 1   
     8    4   13 1   
     9    4   14 1   
    10    4   21 1   
    11    5    6 1   
    12    5   15 1   
    13    5   16 1   
    14    6    7 1   
    15    6   17 1   
    16    6   18 1   
    17    7    8 2   
    18    7    9 1   
    19    9   19 1   
    20    9   20 1   
    21    9   22 1   
@<TRIPOS>SUBSTRUCTURE
     1 0JU         1 TEMP              0 ****  ****    0 ROOT
