@<TRIPOS>MOLECULE
0JU
   22    21     1     0     0
SMALL
bcc


@<TRIPOS>ATOM
      1 C          -0.8920   -0.5890    0.7480 c2        1 0JU      0.367200
      2 NF         -0.7670   -0.0880   -0.4080 n2        1 0JU     -0.647100
      3 CA         -0.4080   -0.0580    2.0990 c3        1 0JU      0.009200
      4 N           1.0930   -0.0530    2.1580 n4        1 0JU     -0.836600
      5 CB         -0.9950    1.3290    2.3850 c3        1 0JU     -0.109400
      6 CG         -2.5120    1.2480    2.4890 c3        1 0JU     -0.149400
      7 CD         -3.0810    2.6300    2.6630 c         1 0JU      0.537100
      8 OE         -2.4770    3.6870    2.7220 o         1 0JU     -0.362100
      9 NE         -4.5830    2.7320    2.7780 n4        1 0JU     -0.757400
     10 H1         -1.4430   -1.5550    0.8360 h4        1 0JU      0.078800
     11 H2         -0.2720    0.7680   -0.5410 hn        1 0JU      0.414400
     12 H3         -0.7500   -0.7770    2.9080 hx        1 0JU      0.130700
     13 H4          1.4140    0.2320    3.0910 hn        1 0JU      0.475800
     14 H5          1.4430   -1.0020    1.9590 hn        1 0JU      0.475800
     15 H7         -0.7140    2.0500    1.5690 hc        1 0JU      0.097200
     16 H8         -0.5840    1.7410    3.3480 hc        1 0JU      0.097200
     17 H9         -2.8080    0.6080    3.3680 hc        1 0JU      0.121200
     18 H10        -2.9420    0.7790    1.5580 hc        1 0JU      0.121200
     19 H11        -5.0350    2.3620    1.9330 hn        1 0JU      0.486467
     20 H12        -4.8580    3.7230    2.8910 hn        1 0JU      0.486467
     21 HN3         1.4850    0.5930    1.4640 hn        1 0JU      0.475800
     22 HE3        -4.9190    2.2040    3.5920 hn        1 0JU      0.486467
@<TRIPOS>BOND
     1    1    2 2   
     2    1    3 1   
     3    1   10 1   
     4    2   11 1   
     5    3    4 1   
     6    3    5 1   
     7    3   12 1   
     8    4   13 1   
     9    4   14 1   
    10    4   21 1   
    11    5    6 1   
    12    5   15 1   
    13    5   16 1   
    14    6    7 1   
    15    6   17 1   
    16    6   18 1   
    17    7    8 2   
    18    7    9 1   
    19    9   19 1   
    20    9   20 1   
    21    9   22 1   
@<TRIPOS>SUBSTRUCTURE
     1 0JU         1 TEMP              0 ****  ****    0 ROOT
