@<TRIPOS>MOLECULE
0JU
   22    21     1     0     0
SMALL
bcc


@<TRIPOS>ATOM
      1 C          -0.8870   -0.5150    0.6650 c2        1 0JU      0.367200
      2 NF         -0.7370    0.0520   -0.4560 n2        1 0JU     -0.647100
      3 CA         -0.4200   -0.0700    2.0540 c3        1 0JU      0.009200
      4 N           1.0800   -0.0870    2.1370 nz        1 0JU     -0.836600
      5 CB         -0.9980    1.3040    2.4120 c3        1 0JU     -0.109400
      6 CG         -2.5170    1.2340    2.4860 c3        1 0JU     -0.149400
      7 CD         -3.0740    2.6090    2.7330 c         1 0JU      0.537100
      8 OE         -2.4610    3.6540    2.8640 o         1 0JU     -0.362100
      9 NE         -4.5770    2.7220    2.8290 nz        1 0JU     -0.757400
     10 H1         -1.4480   -1.4790    0.6870 h4        1 0JU      0.078800
     11 H2         -0.2310    0.9090   -0.5310 hn        1 0JU      0.414400
     12 H3         -0.7830   -0.8320    2.8130 hx        1 0JU      0.130700
     13 H4          1.3880    0.1390    3.0910 hn        1 0JU      0.475800
     14 H5          1.4900    0.5950    1.4890 hn        1 0JU      0.475800
     15 H7         -0.5990    1.6530    3.4040 hc        1 0JU      0.097200
     16 H8         -0.6950    2.0690    1.6450 hc        1 0JU      0.097200
     17 H9         -2.9350    0.8260    1.5220 hc        1 0JU      0.121200
     18 H10        -2.8340    0.5460    3.3200 hc        1 0JU      0.121200
     19 H11        -4.8430    3.7070    2.9960 hn        1 0JU      0.486467
     20 H12        -5.0180    2.4070    1.9560 hn        1 0JU      0.486467
     21 HN3         1.4230   -1.0250    1.8880 hn        1 0JU      0.475800
     22 HE3        -4.9320    2.1500    3.6040 hn        1 0JU      0.486467
@<TRIPOS>BOND
     1    1    2 2   
     2    1    3 1   
     3    1   10 1   
     4    2   11 1   
     5    3    4 1   
     6    3    5 1   
     7    3   12 1   
     8    4   13 1   
     9    4   14 1   
    10    4   21 1   
    11    5    6 1   
    12    5   15 1   
    13    5   16 1   
    14    6    7 1   
    15    6   17 1   
    16    6   18 1   
    17    7    8 2   
    18    7    9 1   
    19    9   19 1   
    20    9   20 1   
    21    9   22 1   
@<TRIPOS>SUBSTRUCTURE
     1 0JU         1 TEMP              0 ****  ****    0 ROOT
