@<TRIPOS>MOLECULE
0JU
   20    19     1     0     0
SMALL
bcc


@<TRIPOS>ATOM
      1 C          -2.5700    0.7100    0.3230 c2        1 0JU      0.391200
      2 NF         -3.6110    0.5860   -0.4060 n2        1 0JU     -0.779100
      3 CA         -1.4820   -0.3600    0.4120 c3        1 0JU      0.112200
      4 N          -1.7110   -1.5890   -0.3160 n3        1 0JU     -0.896800
      5 CB         -0.1600    0.3230    0.0220 c3        1 0JU     -0.069400
      6 CG          1.0250   -0.5770    0.2910 c3        1 0JU     -0.141400
      7 CD          2.3240    0.2010    0.1860 c         1 0JU      0.653100
      8 OE          2.3790    1.4390    0.3380 o         1 0JU     -0.621100
      9 NE          3.4770   -0.5050   -0.0580 n         1 0JU     -0.679000
     10 H1         -2.3410    1.5900    0.9650 h4        1 0JU     -0.033200
     11 H2         -4.2550    1.3490   -0.3780 hn        1 0JU      0.390400
     12 H3         -1.4230   -0.6420    1.5090 h1        1 0JU      0.067700
     13 H4         -2.5930   -1.9860   -0.0550 hn        1 0JU      0.357800
     14 H5         -1.7160   -1.4200   -1.3030 hn        1 0JU      0.357800
     15 H7         -0.1790    0.6110   -1.0610 hc        1 0JU      0.063200
     16 H8         -0.0520    1.2680    0.6180 hc        1 0JU      0.063200
     17 H9          0.9620   -0.9960    1.3310 hc        1 0JU      0.070700
     18 H10         1.0190   -1.4420   -0.4230 hc        1 0JU      0.070700
     19 H11         3.4600   -1.4800   -0.1980 hn        1 0JU      0.311000
     20 H12         4.3400   -0.0250   -0.1230 hn        1 0JU      0.311000
@<TRIPOS>BOND
     1    1    2 2   
     2    1    3 1   
     3    1   10 1   
     4    2   11 1   
     5    3    4 1   
     6    3    5 1   
     7    3   12 1   
     8    4   13 1   
     9    4   14 1   
    10    5    6 1   
    11    5   15 1   
    12    5   16 1   
    13    6    7 1   
    14    6   17 1   
    15    6   18 1   
    16    7    8 2   
    17    7    9 1   
    18    9   19 1   
    19    9   20 1   
@<TRIPOS>SUBSTRUCTURE
     1 0JU         1 TEMP              0 ****  ****    0 ROOT
