@<TRIPOS>MOLECULE
0JW
   26    26     1     0     0
SMALL
bcc


@<TRIPOS>ATOM
      1 N2         -0.6770   -2.3480    1.1470 n1        1 0JW     -0.301800
      2 C12        -0.3760   -1.3650    0.6010 cg        1 0JW      0.165500
      3 C10         0.0360   -0.1680   -0.0300 ce        1 0JW     -0.160900
      4 C11         1.5260    0.0650   -0.0180 c3        1 0JW      0.420500
      5 O14         2.0230   -0.0210    1.2900 oh        1 0JW     -0.547800
      6 N12         2.2170   -1.0760   -0.7870 nz        1 0JW     -0.889600
      7 C9         -0.7760    0.7920   -0.5380 cf        1 0JW      0.099800
      8 C5         -2.2120    0.8060   -0.6260 ca        1 0JW     -0.145800
      9 C6         -2.8370    2.0670   -0.7460 ca        1 0JW     -0.094000
     10 C1         -4.2260    2.1560   -0.8220 ca        1 0JW      0.111100
     11 O7         -4.7690    3.4100   -0.9260 oh        1 0JW     -0.479100
     12 C4         -3.0010   -0.3550   -0.6160 ca        1 0JW     -0.061000
     13 C3         -4.3880   -0.2760   -0.7010 ca        1 0JW     -0.187000
     14 C2         -5.0090    0.9730   -0.7960 ca        1 0JW      0.115100
     15 O8         -6.3630    1.1520   -0.8770 oh        1 0JW     -0.492100
     16 H1          1.8110    1.0260   -0.5410 hx        1 0JW      0.102700
     17 H2          2.6570    0.7000    1.4380 ho        1 0JW      0.453000
     18 H3          3.2230   -0.9170   -0.8410 hn        1 0JW      0.461467
     19 H4          2.0510   -1.9570   -0.2840 hn        1 0JW      0.461467
     20 H6         -0.2950    1.7160   -0.9300 ha        1 0JW      0.138000
     21 H7         -2.2450    2.9950   -0.7670 ha        1 0JW      0.161000
     22 H8         -5.7370    3.3270   -0.9470 ho        1 0JW      0.453000
     23 H9         -2.5330   -1.3490   -0.5620 ha        1 0JW      0.145000
     24 H10        -4.9950   -1.1940   -0.6910 ha        1 0JW      0.160000
     25 H11        -6.7970    0.2840   -0.8260 ho        1 0JW      0.451000
     26 H123        1.8190   -1.1450   -1.7250 hn        1 0JW      0.461467
@<TRIPOS>BOND
     1    1    2 3   
     2    2    3 1   
     3    3    4 1   
     4    3    7 2   
     5    4    5 1   
     6    4    6 1   
     7    4   16 1   
     8    5   17 1   
     9    6   18 1   
    10    6   19 1   
    11    6   26 1   
    12    7    8 1   
    13    7   20 1   
    14    8    9 ar  
    15    8   12 ar  
    16    9   10 ar  
    17    9   21 1   
    18   10   11 1   
    19   10   14 ar  
    20   11   22 1   
    21   12   13 ar  
    22   12   23 1   
    23   13   14 ar  
    24   13   24 1   
    25   14   15 1   
    26   15   25 1   
@<TRIPOS>SUBSTRUCTURE
     1 0JW         1 TEMP              0 ****  ****    0 ROOT
