@<TRIPOS>MOLECULE
0JW
   25    25     1     0     0
SMALL
bcc


@<TRIPOS>ATOM
      1 N2          2.0660   -2.2230    1.0180 n1        1 0JW     -0.364800
      2 C12         2.0440   -1.1740    0.5120 cg        1 0JW      0.203500
      3 C10         2.0620    0.1110   -0.0890 ce        1 0JW     -0.051900
      4 C11         3.4470    0.7190   -0.2860 c3        1 0JW      0.426500
      5 O14         4.0310    1.0560    0.9660 oh        1 0JW     -0.593800
      6 N12         4.3170   -0.1780   -1.0320 n3        1 0JW     -0.962800
      7 C9          0.9640    0.8040   -0.4430 cf        1 0JW     -0.024200
      8 C5         -0.4190    0.3760   -0.3170 ca        1 0JW     -0.084800
      9 C6         -1.3850    1.3410    0.0110 ca        1 0JW     -0.114000
     10 C1         -2.7270    0.9690    0.1320 ca        1 0JW      0.108100
     11 O7         -3.6270    1.9540    0.4600 oh        1 0JW     -0.492100
     12 C4         -0.8080   -0.9510   -0.5410 ca        1 0JW     -0.100000
     13 C3         -2.1440   -1.3290   -0.4290 ca        1 0JW     -0.172000
     14 C2         -3.1060   -0.3740   -0.0890 ca        1 0JW      0.058100
     15 O8         -4.4480   -0.6570    0.0440 oh        1 0JW     -0.513100
     16 H1          3.3320    1.7360   -0.7860 h2        1 0JW      0.050700
     17 H2          4.1150    0.2500    1.4940 ho        1 0JW      0.419000
     18 H3          3.9640   -0.3460   -1.9480 hn        1 0JW      0.373800
     19 H4          5.2500    0.1760   -1.0640 hn        1 0JW      0.373800
     20 H6          1.0890    1.8220   -0.8620 ha        1 0JW      0.141000
     21 H7         -1.1020    2.3890    0.1850 ha        1 0JW      0.157000
     22 H8         -4.5040    1.5450    0.5360 ho        1 0JW      0.439000
     23 H9         -0.0560   -1.7060   -0.8170 ha        1 0JW      0.148000
     24 H10        -2.4410   -2.3730   -0.6050 ha        1 0JW      0.142000
     25 H11        -4.5660   -1.6090   -0.0830 ho        1 0JW      0.433000
@<TRIPOS>BOND
     1    1    2 3   
     2    2    3 1   
     3    3    4 1   
     4    3    7 2   
     5    4    5 1   
     6    4    6 1   
     7    4   16 1   
     8    5   17 1   
     9    6   18 1   
    10    6   19 1   
    11    7    8 1   
    12    7   20 1   
    13    8    9 ar  
    14    8   12 ar  
    15    9   10 ar  
    16    9   21 1   
    17   10   11 1   
    18   10   14 ar  
    19   11   22 1   
    20   12   13 ar  
    21   12   23 1   
    22   13   14 ar  
    23   13   24 1   
    24   14   15 1   
    25   15   25 1   
@<TRIPOS>SUBSTRUCTURE
     1 0JW         1 TEMP              0 ****  ****    0 ROOT
