@<TRIPOS>MOLECULE
0JW
   26    26     1     0     0
SMALL
bcc


@<TRIPOS>ATOM
      1 N2         -0.7940   -2.3910    0.9990 n1        1 0JW     -0.301800
      2 C12        -0.4500   -1.3910    0.5110 cg        1 0JW      0.165500
      3 C10         0.0120   -0.1750   -0.0450 ce        1 0JW     -0.160900
      4 C11         1.4960    0.0530    0.0940 c3        1 0JW      0.420500
      5 O14         1.8870   -0.0770    1.4330 oh        1 0JW     -0.547800
      6 N12         2.2460   -1.0650   -0.6540 n4        1 0JW     -0.889600
      7 C9         -0.7570    0.8030   -0.5860 cf        1 0JW      0.099800
      8 C5         -2.1820    0.8230   -0.7880 ca        1 0JW     -0.145800
      9 C6         -2.7940    2.0890   -0.9170 ca        1 0JW     -0.094000
     10 C1         -4.1720    2.1850   -1.1010 ca        1 0JW      0.111100
     11 O7         -4.7050    3.4430   -1.2090 oh        1 0JW     -0.479100
     12 C4         -2.9680   -0.3350   -0.8790 ca        1 0JW     -0.061000
     13 C3         -4.3440   -0.2500   -1.0730 ca        1 0JW     -0.187000
     14 C2         -4.9550    1.0030   -1.1770 ca        1 0JW      0.115100
     15 O8         -6.2990    1.1880   -1.3610 oh        1 0JW     -0.492100
     16 H1          1.8220    1.0290   -0.3740 hx        1 0JW      0.102700
     17 H2          2.5060    0.6370    1.6550 ho        1 0JW      0.453000
     18 H3          2.0400   -1.9610   -0.1960 hn        1 0JW      0.461467
     19 H4          3.2540   -0.9070   -0.6220 hn        1 0JW      0.461467
     20 H6         -0.2460    1.7380   -0.9080 ha        1 0JW      0.138000
     21 H7         -2.2030    3.0160   -0.8610 ha        1 0JW      0.161000
     22 H8         -5.6680    3.3630   -1.3100 ho        1 0JW      0.453000
     23 H9         -2.5060   -1.3320   -0.8200 ha        1 0JW      0.145000
     24 H10        -4.9500   -1.1660   -1.1420 ha        1 0JW      0.160000
     25 H11        -6.7350    0.3210   -1.3730 ho        1 0JW      0.451000
     26 H123        1.9250   -1.1020   -1.6230 hn        1 0JW      0.461467
@<TRIPOS>BOND
     1    1    2 3   
     2    2    3 1   
     3    3    4 1   
     4    3    7 2   
     5    4    5 1   
     6    4    6 1   
     7    4   16 1   
     8    5   17 1   
     9    6   18 1   
    10    6   19 1   
    11    6   26 1   
    12    7    8 1   
    13    7   20 1   
    14    8    9 ar  
    15    8   12 ar  
    16    9   10 ar  
    17    9   21 1   
    18   10   11 1   
    19   10   14 ar  
    20   11   22 1   
    21   12   13 ar  
    22   12   23 1   
    23   13   14 ar  
    24   13   24 1   
    25   14   15 1   
    26   15   25 1   
@<TRIPOS>SUBSTRUCTURE
     1 0JW         1 TEMP              0 ****  ****    0 ROOT
