@<TRIPOS>MOLECULE
0JW
   26    26     1     0     0
SMALL
bcc


@<TRIPOS>ATOM
      1 N2         -0.6460   -2.3400    1.1560 n1        1 0JW     -0.301800
      2 C12        -0.3550   -1.3590    0.6010 cg        1 0JW      0.165500
      3 C10         0.0450   -0.1630   -0.0400 ce        1 0JW     -0.160900
      4 C11         1.5340    0.0760   -0.0460 c3        1 0JW      0.420500
      5 O14         2.0460    0.0010    1.2560 oh        1 0JW     -0.547800
      6 N12         2.2210   -1.0660   -0.8160 n4        1 0JW     -0.889600
      7 C9         -0.7770    0.7910   -0.5450 cf        1 0JW      0.099800
      8 C5         -2.2150    0.7980   -0.6160 ca        1 0JW     -0.145800
      9 C6         -2.8460    2.0550   -0.7350 ca        1 0JW     -0.094000
     10 C1         -4.2360    2.1380   -0.7950 ca        1 0JW      0.111100
     11 O7         -4.7860    3.3890   -0.8990 oh        1 0JW     -0.479100
     12 C4         -2.9970   -0.3660   -0.5920 ca        1 0JW     -0.061000
     13 C3         -4.3860   -0.2940   -0.6620 ca        1 0JW     -0.187000
     14 C2         -5.0130    0.9510   -0.7560 ca        1 0JW      0.115100
     15 O8         -6.3700    1.1230   -0.8230 oh        1 0JW     -0.492100
     16 H1          1.8090    1.0350   -0.5780 hx        1 0JW      0.102700
     17 H2          2.6780    0.7240    1.3930 ho        1 0JW      0.453000
     18 H3          2.0640   -1.9450   -0.3070 hn        1 0JW      0.461467
     19 H4          1.8130   -1.1420   -1.7500 hn        1 0JW      0.461467
     20 H6         -0.3050    1.7150   -0.9470 ha        1 0JW      0.138000
     21 H7         -2.2590    2.9860   -0.7670 ha        1 0JW      0.161000
     22 H8         -5.7540    3.3010   -0.9090 ho        1 0JW      0.453000
     23 H9         -2.5240   -1.3580   -0.5390 ha        1 0JW      0.145000
     24 H10        -4.9880   -1.2160   -0.6420 ha        1 0JW      0.160000
     25 H11        -6.7980    0.2550   -0.7630 ho        1 0JW      0.451000
     26 H123        3.2260   -0.9030   -0.8830 hn        1 0JW      0.461467
@<TRIPOS>BOND
     1    1    2 3   
     2    2    3 1   
     3    3    4 1   
     4    3    7 2   
     5    4    5 1   
     6    4    6 1   
     7    4   16 1   
     8    5   17 1   
     9    6   18 1   
    10    6   19 1   
    11    6   26 1   
    12    7    8 1   
    13    7   20 1   
    14    8    9 ar  
    15    8   12 ar  
    16    9   10 ar  
    17    9   21 1   
    18   10   11 1   
    19   10   14 ar  
    20   11   22 1   
    21   12   13 ar  
    22   12   23 1   
    23   13   14 ar  
    24   13   24 1   
    25   14   15 1   
    26   15   25 1   
@<TRIPOS>SUBSTRUCTURE
     1 0JW         1 TEMP              0 ****  ****    0 ROOT
