@<TRIPOS>MOLECULE
0JW
   25    19     1     0     0
SMALL
bcc


@<TRIPOS>ATOM
      1 N2          0.4110   -2.2460   -1.7960 n1        1 0JW     -0.041000
      2 C12         0.9620   -1.4950   -1.1320 c1        1 0JW     -0.087000
      3 C10         1.6850   -0.5090   -0.2600 c1        1 0JW     -0.038000
      4 C11         3.1640   -0.4870   -0.2390 c3        1 0JW      0.136000
      5 O14         3.6500   -1.6320    0.4730 oh        1 0JW     -0.353000
      6 N12         3.6580   -0.5090   -1.5660 n3        1 0JW     -0.362000
      7 C9          0.9950    0.3460    0.4960 c1        1 0JW     -0.035000
      8 C5         -0.5130    0.3230    0.4760 c1        1 0JW     -0.029500
      9 C6         -1.2060    1.1320   -0.4240 c1        1 0JW     -0.114000
     10 C1         -2.5790    1.2310   -0.3470 c1        1 0JW      0.062000
     11 O7         -3.3000    1.9380   -1.3620 oh        1 0JW     -0.247000
     12 C4         -1.1960   -0.3750    1.4360 c1        1 0JW     -0.135500
     13 C3         -2.5690   -0.2780    1.5140 c1        1 0JW     -0.135500
     14 C2         -3.2640    0.5320    0.6140 c1        1 0JW     -0.029500
     15 O8         -4.6550    0.6450    0.7020 o         1 0JW     -0.268000
     16 H1          3.4740    0.3440    0.2150 h2        1 0JW      0.098000
     17 H2          4.4090   -1.4040    0.9400 ho        1 0JW      0.203000
     18 H3          4.2790    0.1430   -1.6670 hn        1 0JW      0.159000
     19 H4          4.0400   -1.3230   -1.7370 hn        1 0JW      0.159000
     20 H6          1.4780    1.0050    1.0790 ha        1 0JW      0.142000
     21 H7         -0.7120    1.6990   -1.0500 ha        1 0JW      0.156000
     22 H8         -3.4470    2.7680   -1.0950 ho        1 0JW      0.238000
     23 H9         -0.6820   -0.9740    2.1020 ha        1 0JW      0.146000
     24 H10        -3.0570   -0.7760    2.2010 ha        1 0JW      0.146000
     25 H11        -5.0240   -0.0980    0.4250 ho        1 0JW      0.232000
@<TRIPOS>BOND
     1    1    2 1   
     2    3    4 1   
     3    3    7 1   
     4    4    5 1   
     5    4    6 1   
     6    4   16 1   
     7    5   17 1   
     8    6   18 1   
     9    6   19 1   
    10    7   20 1   
    11    8   12 1   
    12    9   10 1   
    13    9   21 1   
    14   10   11 1   
    15   11   22 1   
    16   12   23 1   
    17   13   14 1   
    18   13   24 1   
    19   15   25 1   
@<TRIPOS>SUBSTRUCTURE
     1 0JW         1 TEMP              0 ****  ****    0 ROOT
