@<TRIPOS>MOLECULE
0JX
   21    17     1     0     0
SMALL
bcc


@<TRIPOS>ATOM
      1 O20        -4.2820   -3.7010    1.3070 o         1 0JX     -1.245000
      2 P17        -2.7830   -3.5950    1.4570 p3        1 0JX      2.573000
      3 O19        -2.4290   -3.5100    2.9230 o         1 0JX     -1.245000
      4 O18        -2.1290   -4.8140    0.8520 o         1 0JX     -1.245000
      5 O16        -2.2690   -2.2980    0.7150 o         1 0JX     -1.229500
      6 P13        -0.9780   -1.4960    1.1470 p3        1 0JX      2.706000
      7 O15        -1.2590   -0.7390    2.4230 os        1 0JX     -1.257000
      8 O14         0.1620   -2.4600    1.3740 o         1 0JX     -1.229500
      9 O29        -0.5850   -0.4760    0.0050 os        1 0JX     -0.706000
     10 C28         0.3800    0.5100    0.2880 c3        1 0JX      0.161000
     11 C27         0.7100    1.2710   -0.9770 c3        1 0JX     -0.252000
     12 C30         1.7530    2.3250   -0.6740 c2        1 0JX     -0.123000
     13 C13         2.2870    3.0520   -1.6750 c1        1 0JX     -0.189000
     14 O33         1.8740    2.8310   -3.0020 o         1 0JX     -0.329000
     15 H4          0.0270    1.1300    0.9590 h1        1 0JX     -0.017500
     16 H5          1.1920    0.0830    0.6330 h1        1 0JX     -0.017500
     17 H6         -0.0990    1.7020   -1.3180 hc        1 0JX      0.107000
     18 H7          1.0580    0.6520   -1.6490 hc        1 0JX      0.107000
     19 H9          2.0400    2.4780    0.2460 ha        1 0JX      0.116000
     20 H11         2.9600    3.7310   -1.4800 ha        1 0JX      0.100000
     21 H12         2.3680    3.3260   -3.5520 ho        1 0JX      0.216000
@<TRIPOS>BOND
     1    1    2 1   
     2    2    3 1   
     3    2    4 1   
     4    5    6 1   
     5    6    8 1   
     6    6    9 1   
     7    9   10 1   
     8   10   11 1   
     9   10   15 1   
    10   10   16 1   
    11   11   12 1   
    12   11   17 1   
    13   11   18 1   
    14   12   13 1   
    15   12   19 1   
    16   13   20 1   
    17   14   21 1   
@<TRIPOS>SUBSTRUCTURE
     1 0JX         1 TEMP              0 ****  ****    0 ROOT
