@<TRIPOS>MOLECULE
0JX
   21    20     1     0     0
SMALL
bcc


@<TRIPOS>ATOM
      1 O20         0.7900   -0.1160   -0.0270 o         1 0JX     -0.956167
      2 P17         2.0930    0.6030    0.1800 p5        1 0JX      1.457900
      3 O19         2.4630    0.8370    1.6180 o         1 0JX     -0.956167
      4 O18         3.2180    0.1180   -0.6900 o         1 0JX     -0.956167
      5 O16         1.7690    2.2710   -0.4140 os        1 0JX     -0.798800
      6 P13         1.4990    3.7260   -0.8570 p5        1 0JX      1.599800
      7 O15         2.7060    4.6140   -0.9950 o         1 0JX     -0.936000
      8 O14         0.2930    4.3970   -0.2980 o         1 0JX     -0.936000
      9 O29         1.0950    3.5820   -2.5210 os        1 0JX     -0.568200
     10 C28         1.0560    4.7820   -3.1870 c3        1 0JX      0.246400
     11 C27         2.2600    4.9460   -4.1370 c3        1 0JX     -0.079200
     12 C30         2.5560    6.3640   -4.4290 c2        1 0JX     -0.311200
     13 C13         3.1550    7.2090   -3.5710 c2        1 0JX      0.043100
     14 O33         3.6070    6.9540   -2.3200 oh        1 0JX     -0.575100
     15 H4          0.1170    4.8300   -3.8160 h1        1 0JX     -0.019800
     16 H5          1.0410    5.6460   -2.4620 h1        1 0JX     -0.019800
     17 H6          2.0570    4.3940   -5.0910 hc        1 0JX      0.040200
     18 H7          3.1520    4.4620   -3.6520 hc        1 0JX      0.040200
     19 H9          2.2450    6.7420   -5.4130 ha        1 0JX      0.069000
     20 H11         3.3700    8.2590   -3.8390 h4        1 0JX      0.074000
     21 H12         3.2810    6.0640   -1.9860 ho        1 0JX      0.541000
@<TRIPOS>BOND
     1    1    2 1   
     2    2    3 1   
     3    2    4 1   
     4    2    5 1   
     5    5    6 1   
     6    6    7 1   
     7    6    8 1   
     8    6    9 1   
     9    9   10 1   
    10   10   11 1   
    11   10   15 1   
    12   10   16 1   
    13   11   12 1   
    14   11   17 1   
    15   11   18 1   
    16   12   13 2   
    17   12   19 1   
    18   13   14 1   
    19   13   20 1   
    20   14   21 1   
@<TRIPOS>SUBSTRUCTURE
     1 0JX         1 TEMP              0 ****  ****    0 ROOT
