@<TRIPOS>MOLECULE
0JX
   21    20     1     0     0
SMALL
bcc


@<TRIPOS>ATOM
      1 O20        -3.5430    0.9480    1.2860 o         1 0JX     -0.958500
      2 P17        -3.2320    0.4830   -0.1090 p5        1 0JX      1.459900
      3 O19        -4.0360   -0.7020   -0.5710 o         1 0JX     -0.958500
      4 O18        -3.1080    1.5890   -1.1200 o         1 0JX     -0.958500
      5 O16        -1.5750   -0.1930    0.0100 os        1 0JX     -0.799800
      6 P13        -0.1760   -0.8520    0.0860 p5        1 0JX      1.576800
      7 O15         0.4850   -1.1860   -1.2120 o         1 0JX     -0.933000
      8 O14         0.0430   -1.8380    1.1850 o         1 0JX     -0.933000
      9 O29         0.8500    0.4450    0.5960 os        1 0JX     -0.555200
     10 C28         2.1550    0.0750    0.7650 c3        1 0JX      0.258400
     11 C27         3.0510    0.6400   -0.3620 c3        1 0JX     -0.118200
     12 C30         4.4290    0.1240   -0.2680 c2        1 0JX     -0.155200
     13 C13         5.5310    0.8830   -0.3360 c2        1 0JX     -0.106900
     14 O33         6.8280    0.3880   -0.2600 oh        1 0JX     -0.563100
     15 H4          2.5470    0.4950    1.7410 h1        1 0JX     -0.018800
     16 H5          2.2630   -1.0470    0.7890 h1        1 0JX     -0.018800
     17 H6          2.5950    0.3050   -1.3380 hc        1 0JX      0.068700
     18 H7          3.0240    1.7580   -0.3350 hc        1 0JX      0.068700
     19 H9          4.5070   -0.9690   -0.1360 ha        1 0JX      0.115000
     20 H11         5.5650    1.9730   -0.4580 h4        1 0JX      0.142000
     21 H12         6.7670   -0.5660   -0.1260 ho        1 0JX      0.389000
@<TRIPOS>BOND
     1    1    2 1   
     2    2    3 1   
     3    2    4 1   
     4    2    5 1   
     5    5    6 1   
     6    6    7 1   
     7    6    8 1   
     8    6    9 1   
     9    9   10 1   
    10   10   11 1   
    11   10   15 1   
    12   10   16 1   
    13   11   12 1   
    14   11   17 1   
    15   11   18 1   
    16   12   13 2   
    17   12   19 1   
    18   13   14 1   
    19   13   20 1   
    20   14   21 1   
@<TRIPOS>SUBSTRUCTURE
     1 0JX         1 TEMP              0 ****  ****    0 ROOT
