@<TRIPOS>MOLECULE
0JX
   21    20     1     0     0
SMALL
bcc


@<TRIPOS>ATOM
      1 O20         2.1370   -0.6860   -1.4220 o         1 0JX     -0.924167
      2 P17         1.9580    0.1050   -0.1690 p5        1 0JX      1.415900
      3 O19         0.7520   -0.2260    0.6480 o         1 0JX     -0.924167
      4 O18         3.1930    0.4830    0.5900 o         1 0JX     -0.924167
      5 O16         1.5890    1.8540   -0.7530 os        1 0JX     -0.770800
      6 P13         1.5460    3.3680   -0.8650 p5        1 0JX      1.715500
      7 O15         2.7990    3.8100    0.0580 oh        1 0JX     -0.808400
      8 O14         0.3420    4.1510   -0.5380 o         1 0JX     -0.909300
      9 O29         2.0950    3.7990   -2.3370 os        1 0JX     -0.601200
     10 C28         1.5540    4.9430   -2.9500 c3        1 0JX      0.186400
     11 C27         2.6500    5.8460   -3.5160 c3        1 0JX      0.032800
     12 C30         2.0850    7.0910   -4.0660 c2        1 0JX     -0.566200
     13 C13         2.5850    7.8030   -5.1260 c2        1 0JX      0.537100
     14 O33         3.5940    7.5920   -5.8790 o         1 0JX     -0.879300
     15 H4          0.9230    5.5070   -2.2100 h1        1 0JX      0.014200
     16 H5          0.8950    4.6010   -3.8000 h1        1 0JX      0.014200
     17 H6          3.2210    5.2880   -4.3040 hc        1 0JX      0.005700
     18 H7          3.3820    6.0700   -2.6910 hc        1 0JX      0.005700
     19 H9          1.1950    7.4750   -3.5530 ha        1 0JX      0.062000
     20 H11         1.9920    8.7390   -5.3660 h4        1 0JX     -0.155800
     21 H12         3.3360    3.0700    0.3410 ho        1 0JX      0.473000
@<TRIPOS>BOND
     1    1    2 1   
     2    2    3 1   
     3    2    4 1   
     4    2    5 1   
     5    5    6 1   
     6    6    7 1   
     7    6    8 2   
     8    6    9 1   
     9    7   21 1   
    10    9   10 1   
    11   10   11 1   
    12   10   15 1   
    13   10   16 1   
    14   11   12 1   
    15   11   17 1   
    16   11   18 1   
    17   12   13 2   
    18   12   19 1   
    19   13   14 1   
    20   13   20 1   
@<TRIPOS>SUBSTRUCTURE
     1 0JX         1 TEMP              0 ****  ****    0 ROOT
