@<TRIPOS>MOLECULE
0JX
   21    20     1     0     0
SMALL
bcc


@<TRIPOS>ATOM
      1 O20         0.8520   -0.1150    0.0100 o         1 0JX     -0.956167
      2 P17         2.1010    0.6750    0.2850 p5        1 0JX      1.457900
      3 O19         2.3560    0.9660    1.7380 o         1 0JX     -0.956167
      4 O18         3.3070    0.2250   -0.4890 o         1 0JX     -0.956167
      5 O16         1.7380    2.3080   -0.3800 os        1 0JX     -0.798800
      6 P13         1.4290    3.7350   -0.8850 p5        1 0JX      1.599800
      7 O15         2.5980    4.6790   -0.9650 o         1 0JX     -0.936000
      8 O14         0.1540    4.3580   -0.4320 o         1 0JX     -0.936000
      9 O29         1.1520    3.5260   -2.5670 os        1 0JX     -0.568200
     10 C28         1.1020    4.7040   -3.2710 c3        1 0JX      0.246400
     11 C27         2.3610    4.9040   -4.1380 c3        1 0JX     -0.079200
     12 C30         2.6070    6.3270   -4.4520 c2        1 0JX     -0.311200
     13 C13         3.1000    7.2240   -3.5790 c2        1 0JX      0.043100
     14 O33         3.4740    7.0260   -2.2930 oh        1 0JX     -0.575100
     15 H4          0.2080    4.6870   -3.9650 h1        1 0JX     -0.019800
     16 H5          0.9920    5.5850   -2.5750 h1        1 0JX     -0.019800
     17 H6          2.2540    4.3170   -5.0870 hc        1 0JX      0.040200
     18 H7          3.2390    4.4810   -3.5780 hc        1 0JX      0.040200
     19 H9          2.3480    6.6630   -5.4660 ha        1 0JX      0.069000
     20 H11         3.2820    8.2770   -3.8630 h4        1 0JX      0.074000
     21 H12         3.1700    6.1300   -1.9560 ho        1 0JX      0.541000
@<TRIPOS>BOND
     1    1    2 1   
     2    2    3 1   
     3    2    4 1   
     4    2    5 1   
     5    5    6 1   
     6    6    7 1   
     7    6    8 1   
     8    6    9 1   
     9    9   10 1   
    10   10   11 1   
    11   10   15 1   
    12   10   16 1   
    13   11   12 1   
    14   11   17 1   
    15   11   18 1   
    16   12   13 2   
    17   12   19 1   
    18   13   14 1   
    19   13   20 1   
    20   14   21 1   
@<TRIPOS>SUBSTRUCTURE
     1 0JX         1 TEMP              0 ****  ****    0 ROOT
