@<TRIPOS>MOLECULE
0JY
   25    24     1     0     0
SMALL
bcc


@<TRIPOS>ATOM
      1 O           0.4080    0.7090   -0.4300 o         1 0JY     -0.499000
      2 C           1.4320    0.4290    0.1930 c         1 0JY      0.574100
      3 CA          1.5520    0.1770    1.6970 c3        1 0JY      0.090500
      4 N           0.3440    0.4650    2.4370 n8        1 0JY     -0.886800
      5 CB          2.0680   -1.2580    1.9100 c3        1 0JY     -0.076400
      6 CAI         3.2800   -1.3550    2.8390 c3        1 0JY     -0.056000
      7 CAB         3.5910   -2.8360    3.0430 c3        1 0JY     -0.090433
      8 CAC         4.4960   -0.6880    2.2130 c3        1 0JY     -0.090433
      9 CAA         2.9810   -0.7260    4.1900 c3        1 0JY     -0.090433
     10 H2          3.3190    0.1470   -0.0270 ho        1 0JY      0.428000
     11 H3          2.3310    0.9150    2.0670 h1        1 0JY      0.083700
     12 H4         -0.3650   -0.2170    2.2460 hn        1 0JY      0.364300
     13 H6          1.2520   -1.9030    2.3320 hc        1 0JY      0.057200
     14 H7          2.3500   -1.7000    0.9170 hc        1 0JY      0.057200
     15 H8          2.7300   -3.3490    3.5340 hc        1 0JY      0.038478
     16 H9          3.7920   -3.3300    2.0620 hc        1 0JY      0.038478
     17 H10         4.4910   -2.9520    3.6920 hc        1 0JY      0.038478
     18 H11         5.3870   -0.8270    2.8720 hc        1 0JY      0.038478
     19 H12         4.7200   -1.1410    1.2170 hc        1 0JY      0.038478
     20 H13         4.3320    0.4080    2.0810 hc        1 0JY      0.038478
     21 H14         3.8330   -0.9010    4.8900 hc        1 0JY      0.038478
     22 H15         2.8240    0.3750    4.0920 hc        1 0JY      0.038478
     23 H16         2.0580   -1.1750    4.6280 hc        1 0JY      0.038478
     24 O1          2.5570    0.3770   -0.5800 oh        1 0JY     -0.579100
     25 HN3        -0.0050    1.3720    2.1900 hn        1 0JY      0.364300
@<TRIPOS>BOND
     1    1    2 2   
     2    2    3 1   
     3    2   24 1   
     4    3    4 1   
     5    3    5 1   
     6    3   11 1   
     7    4   12 1   
     8    4   25 1   
     9    5    6 1   
    10    5   13 1   
    11    5   14 1   
    12    6    7 1   
    13    6    8 1   
    14    6    9 1   
    15    7   15 1   
    16    7   16 1   
    17    7   17 1   
    18    8   18 1   
    19    8   19 1   
    20    8   20 1   
    21    9   21 1   
    22    9   22 1   
    23    9   23 1   
    24   10   24 1   
@<TRIPOS>SUBSTRUCTURE
     1 0JY         1 TEMP              0 ****  ****    0 ROOT
