@<TRIPOS>MOLECULE
0JY
   25    23     1     0     0
SMALL
bcc


@<TRIPOS>ATOM
      1 O          -1.4340    1.2090    0.2300 o         1 0JY     -0.453000
      2 C          -0.5670    2.0250    0.2790 c1        1 0JY      0.902000
      3 CA          2.1680   -0.4140    1.1340 c3        1 0JY      0.151800
      4 N           0.9030    0.0910    1.6070 n3        1 0JY     -0.927800
      5 CB          2.6630   -1.7350    1.7260 c3        1 0JY     -0.110400
      6 CAI         3.5460   -1.6060    2.9670 c3        1 0JY     -0.055000
      7 CAB         3.7590   -3.0030    3.5430 c3        1 0JY     -0.088100
      8 CAC         4.9020   -1.0220    2.5970 c3        1 0JY     -0.088100
      9 CAA         2.8930   -0.7340    4.0270 c3        1 0JY     -0.088100
     10 H2          2.0710   -0.5510    0.0180 h1        1 0JY      0.053200
     11 H3          2.9410    0.3870    1.3080 h1        1 0JY      0.053200
     12 H4          0.1670   -0.5680    1.4390 hn        1 0JY      0.350800
     13 H6          1.7870   -2.3910    1.9770 hc        1 0JY      0.043200
     14 H7          3.2560   -2.2680    0.9360 hc        1 0JY      0.043200
     15 H8          4.2010   -3.6760    2.7700 hc        1 0JY      0.035144
     16 H9          2.7870   -3.4360    3.8810 hc        1 0JY      0.035144
     17 H10         4.4520   -2.9590    4.4160 hc        1 0JY      0.035144
     18 H11         5.4040   -1.6620    1.8330 hc        1 0JY      0.035144
     19 H12         5.5550   -0.9690    3.5010 hc        1 0JY      0.035144
     20 H13         4.7920    0.0090    2.1830 hc        1 0JY      0.035144
     21 H14         2.8620    0.3330    3.6970 hc        1 0JY      0.035144
     22 H15         1.8520   -1.0830    4.2320 hc        1 0JY      0.035144
     23 H16         3.4760   -0.7860    4.9780 hc        1 0JY      0.035144
     24 O1          0.2710    2.8690    0.3100 o         1 0JY     -0.453000
     25 HN3         0.9390    0.2840    2.5900 hn        1 0JY      0.350800
@<TRIPOS>BOND
     1    1    2 2   
     2    2   24 2   
     3    3    4 1   
     4    3    5 1   
     5    3   10 1   
     6    3   11 1   
     7    4   12 1   
     8    4   25 1   
     9    5    6 1   
    10    5   13 1   
    11    5   14 1   
    12    6    7 1   
    13    6    8 1   
    14    6    9 1   
    15    7   15 1   
    16    7   16 1   
    17    7   17 1   
    18    8   18 1   
    19    8   19 1   
    20    8   20 1   
    21    9   21 1   
    22    9   22 1   
    23    9   23 1   
@<TRIPOS>SUBSTRUCTURE
     1 0JY         1 TEMP              0 ****  ****    0 ROOT
