@<TRIPOS>MOLECULE
0JY
   25    23     1     0     0
SMALL
bcc


@<TRIPOS>ATOM
      1 O          -1.3260    0.5300   -0.5220 o         1 0JY     -0.453000
      2 C          -0.6530    1.4890   -0.3050 c1        1 0JY      0.902000
      3 CA          2.2660   -0.4400    1.0760 c3        1 0JY      0.151800
      4 N           0.8640   -0.1840    1.2950 n3        1 0JY     -0.927800
      5 CB          2.8720   -1.6640    1.7640 c3        1 0JY     -0.110400
      6 CAI         3.4670   -1.4090    3.1490 c3        1 0JY     -0.055000
      7 CAB         3.8180   -2.7590    3.7680 c3        1 0JY     -0.088100
      8 CAC         4.7390   -0.5810    3.0380 c3        1 0JY     -0.088100
      9 CAA         2.4780   -0.6970    4.0570 c3        1 0JY     -0.088100
     10 H2          2.4080   -0.5640   -0.0360 h1        1 0JY      0.053200
     11 H3          2.8330    0.4830    1.3870 h1        1 0JY      0.053200
     12 H4          0.6780   -0.0140    2.2650 hn        1 0JY      0.350800
     13 H6          2.1000   -2.4740    1.8500 hc        1 0JY      0.043200
     14 H7          3.6910   -2.0620    1.1070 hc        1 0JY      0.043200
     15 H8          4.5130   -3.3220    3.1000 hc        1 0JY      0.035144
     16 H9          2.8950   -3.3690    3.9200 hc        1 0JY      0.035144
     17 H10         4.3140   -2.6130    4.7570 hc        1 0JY      0.035144
     18 H11         5.4850   -1.1000    2.3900 hc        1 0JY      0.035144
     19 H12         5.1890   -0.4340    4.0500 hc        1 0JY      0.035144
     20 H13         4.5240    0.4230    2.6000 hc        1 0JY      0.035144
     21 H14         2.3170    0.3550    3.7170 hc        1 0JY      0.035144
     22 H15         2.8710   -0.6670    5.1020 hc        1 0JY      0.035144
     23 H16         1.4980   -1.2330    4.0640 hc        1 0JY      0.035144
     24 O1         -0.0100    2.4700   -0.1130 o         1 0JY     -0.453000
     25 HN3         0.3050   -0.9610    0.9940 hn        1 0JY      0.350800
@<TRIPOS>BOND
     1    1    2 2   
     2    2   24 2   
     3    3    4 1   
     4    3    5 1   
     5    3   10 1   
     6    3   11 1   
     7    4   12 1   
     8    4   25 1   
     9    5    6 1   
    10    5   13 1   
    11    5   14 1   
    12    6    7 1   
    13    6    8 1   
    14    6    9 1   
    15    7   15 1   
    16    7   16 1   
    17    7   17 1   
    18    8   18 1   
    19    8   19 1   
    20    8   20 1   
    21    9   21 1   
    22    9   22 1   
    23    9   23 1   
@<TRIPOS>SUBSTRUCTURE
     1 0JY         1 TEMP              0 ****  ****    0 ROOT
