@<TRIPOS>MOLECULE
0JY
   24    22     1     0     0
SMALL
bcc


@<TRIPOS>ATOM
      1 O          -2.6540   -1.1230   -2.0130 o         1 0JY     -0.813500
      2 C          -1.3990   -1.1230   -2.0130 c1        1 0JY      0.773000
      3 CA         -0.6440   -1.1230   -0.7030 c2        1 0JY      0.131200
      4 N          -0.0640   -2.4070   -0.4900 nh        1 0JY     -0.480100
      5 CB          0.4490   -0.0770   -0.7500 c3        1 0JY     -0.131700
      6 CAI         0.4120    0.7580    0.5300 c3        1 0JY     -0.053000
      7 CAB         0.6180   -0.1430    1.7260 c3        1 0JY     -0.078100
      8 CAC         1.5140    1.8000    0.4870 c3        1 0JY     -0.078100
      9 CAA        -0.9280    1.4490    0.6430 c3        1 0JY     -0.078100
     10 H2         -1.2590   -0.9180    0.0270 h4        1 0JY     -0.047200
     11 H3         -0.6750   -2.9540   -0.0900 hn        1 0JY      0.174700
     12 H4          0.1860   -2.7650   -1.2910 hn        1 0JY      0.174700
     13 H6          1.3170   -0.5160   -0.8260 hc        1 0JY      0.046700
     14 H7          0.3090    0.5050   -1.5210 hc        1 0JY      0.046700
     15 H8          0.8160    0.4000    2.5120 hc        1 0JY      0.025033
     16 H9         -0.1930   -0.6620    1.8860 hc        1 0JY      0.025033
     17 H10         1.3640   -0.7490    1.5520 hc        1 0JY      0.025033
     18 H11         2.3790    1.3550    0.4050 hc        1 0JY      0.025033
     19 H12         1.3760    2.3870   -0.2810 hc        1 0JY      0.025033
     20 H13         1.4950    2.3270    1.3080 hc        1 0JY      0.025033
     21 H14        -1.5770    0.8370    1.0400 hc        1 0JY      0.025033
     22 H15        -1.2330    1.7140   -0.2460 hc        1 0JY      0.025033
     23 H16        -0.8390    2.2410    1.2060 hc        1 0JY      0.025033
     24 O1         -0.7710   -1.2150   -3.1000 o         1 0JY     -0.813500
@<TRIPOS>BOND
     1    1    2 2   
     2    2   24 2   
     3    3    4 2   
     4    3    5 1   
     5    3   10 1   
     6    4   11 1   
     7    4   12 1   
     8    5    6 1   
     9    5   13 1   
    10    5   14 1   
    11    6    7 1   
    12    6    8 1   
    13    6    9 1   
    14    7   15 1   
    15    7   16 1   
    16    7   17 1   
    17    8   18 1   
    18    8   19 1   
    19    8   20 1   
    20    9   21 1   
    21    9   22 1   
    22    9   23 1   
@<TRIPOS>SUBSTRUCTURE
     1 0JY         1 TEMP              0 ****  ****    0 ROOT
