@<TRIPOS>MOLECULE
0JY
   24    23     1     0     0
SMALL
bcc


@<TRIPOS>ATOM
      1 O          -2.9910   -0.5020   -0.2890 o         1 0JY     -0.845300
      2 C          -2.0080    0.2170    0.0540 c         1 0JY      0.886600
      3 CA         -0.6200   -0.4840    0.2680 c3        1 0JY      0.019500
      4 N          -0.6370   -1.9160   -0.0140 n3        1 0JY     -0.893800
      5 CB          0.4350    0.2920   -0.5210 c3        1 0JY     -0.056400
      6 CAI         1.8670    0.2290    0.0150 c3        1 0JY     -0.053000
      7 CAB         2.3500   -1.2040    0.1610 c3        1 0JY     -0.078100
      8 CAC         2.7710    0.9530   -0.9790 c3        1 0JY     -0.078100
      9 CAA         1.9650    0.9370    1.3590 c3        1 0JY     -0.078100
     10 H2         -0.3940   -0.3850    1.3700 h1        1 0JY      0.042700
     11 H3         -1.5260   -2.2690    0.3030 hn        1 0JY      0.329800
     12 H4         -0.6220   -2.0470   -1.0100 hn        1 0JY      0.329800
     13 H6          0.4430   -0.0550   -1.5890 hc        1 0JY      0.046700
     14 H7          0.1130    1.3710   -0.5200 hc        1 0JY      0.046700
     15 H8          2.1630   -1.7720   -0.7810 hc        1 0JY      0.025033
     16 H9          3.4460   -1.2230    0.3820 hc        1 0JY      0.025033
     17 H10         1.8100   -1.7130    0.9950 hc        1 0JY      0.025033
     18 H11         2.4190    2.0010   -1.1290 hc        1 0JY      0.025033
     19 H12         3.8230    0.9790   -0.6040 hc        1 0JY      0.025033
     20 H13         2.7590    0.4290   -1.9650 hc        1 0JY      0.025033
     21 H14         1.3640    0.3990    2.1300 hc        1 0JY      0.025033
     22 H15         3.0280    0.9740    1.7000 hc        1 0JY      0.025033
     23 H16         1.5770    1.9800    1.2740 hc        1 0JY      0.025033
     24 O1         -2.0750    1.4600    0.2610 o         1 0JY     -0.845300
@<TRIPOS>BOND
     1    1    2 1   
     2    2    3 1   
     3    2   24 1   
     4    3    4 1   
     5    3    5 1   
     6    3   10 1   
     7    4   11 1   
     8    4   12 1   
     9    5    6 1   
    10    5   13 1   
    11    5   14 1   
    12    6    7 1   
    13    6    8 1   
    14    6    9 1   
    15    7   15 1   
    16    7   16 1   
    17    7   17 1   
    18    8   18 1   
    19    8   19 1   
    20    8   20 1   
    21    9   21 1   
    22    9   22 1   
    23    9   23 1   
@<TRIPOS>SUBSTRUCTURE
     1 0JY         1 TEMP              0 ****  ****    0 ROOT
