@<TRIPOS>MOLECULE
0JZ
   66    69     1     0     0
SMALL
bcc


@<TRIPOS>ATOM
      1 SE1        -3.4680   -3.1300   -1.6090 ss        1 0JZ     -0.037300
      2 SE2         4.4740   -1.4440   -1.4880 ss        1 0JZ     -0.037300
      3 SE3        -0.9570    4.5920   -1.5700 ss        1 0JZ     -0.037300
      4 C01        -2.1540    2.4730   -0.9300 cc        1 0JZ      0.277800
      5 C02        -3.1690    1.3830   -0.9210 c         1 0JZ      0.594600
      6 N03        -3.1180    0.4520    0.1050 n         1 0JZ     -0.527900
      7 C04        -3.8050   -0.8160   -0.0170 c3        1 0JZ      0.072400
      8 C05        -2.8960   -1.9160   -0.5230 cc        1 0JZ      0.359700
      9 C07        -1.9550   -3.8070   -1.7040 cc        1 0JZ     -0.196400
     10 C08        -1.0500   -3.0980   -0.9140 cd        1 0JZ      0.277800
     11 C09         0.4010   -3.4320   -0.8680 c         1 0JZ      0.594600
     12 N10         1.1580   -2.9100    0.1700 n         1 0JZ     -0.527900
     13 C11         2.6020   -2.8720    0.0800 c3        1 0JZ      0.072400
     14 C12         3.1120   -1.5410   -0.4320 cc        1 0JZ      0.359700
     15 C14         4.3060    0.2040   -1.6080 cc        1 0JZ     -0.196400
     16 C15         3.2230    0.6430   -0.8480 cd        1 0JZ      0.277800
     17 C16         2.7860    2.0670   -0.8310 c         1 0JZ      0.594600
     18 N17         1.9310    2.4750    0.1820 n         1 0JZ     -0.527900
     19 C18         1.1790    3.7060    0.0590 c3        1 0JZ      0.072400
     20 C19        -0.2160    3.4750   -0.4820 cd        1 0JZ      0.359700
     21 C21        -2.2970    3.6210   -1.7080 cd        1 0JZ     -0.196400
     22 N22        -0.9590    2.3990   -0.2200 nc        1 0JZ     -0.619000
     23 N23         2.5460   -0.3640   -0.1670 nd        1 0JZ     -0.619000
     24 N24        -1.5990   -2.0180   -0.2310 nd        1 0JZ     -0.619000
     25 O26         0.8930   -4.2040   -1.7160 o         1 0JZ     -0.607100
     26 O27         3.2280    2.8680   -1.6790 o         1 0JZ     -0.607100
     27 C28        -4.4870   -1.2330    1.3110 c3        1 0JZ     -0.067700
     28 C29        -5.5420   -2.2830    1.0340 c3        1 0JZ     -0.095100
     29 C30        -3.5050   -1.7170    2.3530 c3        1 0JZ     -0.095100
     30 C31         3.2740   -3.2370    1.4290 c3        1 0JZ     -0.067700
     31 C32         4.7170   -3.6290    1.1900 c3        1 0JZ     -0.095100
     32 C33         3.1780   -2.1310    2.4550 c3        1 0JZ     -0.095100
     33 C34         1.1290    4.4870    1.3970 c3        1 0JZ     -0.067700
     34 C35         0.7520    5.9290    1.1310 c3        1 0JZ     -0.095100
     35 C36         0.1950    3.8640    2.4100 c3        1 0JZ     -0.095100
     36 HN03       -2.3250    0.4530    0.7080 hn        1 0JZ      0.331500
     37 H04        -4.6280   -0.6840   -0.7900 h1        1 0JZ      0.097700
     38 H07        -1.6820   -4.6750   -2.3070 h4        1 0JZ      0.205000
     39 HN10        0.7470   -2.2150    0.7540 hn        1 0JZ      0.331500
     40 H11         2.9170   -3.6610   -0.6750 h1        1 0JZ      0.097700
     41 H14         4.9360    0.8660   -2.2050 h4        1 0JZ      0.205000
     42 HN17        1.5210    1.7800    0.7660 hn        1 0JZ      0.331500
     43 H18         1.7220    4.3620   -0.6930 h1        1 0JZ      0.097700
     44 H21        -3.1720    3.8270   -2.3280 h4        1 0JZ      0.205000
     45 H28        -5.0100   -0.3190    1.7180 hc        1 0JZ      0.068700
     46 H29        -5.0990   -3.1620    0.5010 hc        1 0JZ      0.039700
     47 H29A       -5.9850   -2.6410    1.9950 hc        1 0JZ      0.039700
     48 H29B       -6.3600   -1.8610    0.4010 hc        1 0JZ      0.039700
     49 H30        -3.0710   -2.7040    2.0650 hc        1 0JZ      0.039700
     50 H30A       -2.6700   -0.9880    2.4850 hc        1 0JZ      0.039700
     51 H30B       -4.0250   -1.8380    3.3350 hc        1 0JZ      0.039700
     52 H31         2.7340   -4.1410    1.8350 hc        1 0JZ      0.068700
     53 H32         5.2680   -2.8130    0.6590 hc        1 0JZ      0.039700
     54 H32A        5.2250   -3.8210    2.1650 hc        1 0JZ      0.039700
     55 H32B        4.7740   -4.5560    0.5710 hc        1 0JZ      0.039700
     56 H33         2.1270   -1.7710    2.5580 hc        1 0JZ      0.039700
     57 H33A        3.5200   -2.5080    3.4500 hc        1 0JZ      0.039700
     58 H33B        3.8220   -1.2650    2.1710 hc        1 0JZ      0.039700
     59 H34         2.1720    4.4770    1.8280 hc        1 0JZ      0.068700
     60 H35        -0.2180    5.9920    0.5770 hc        1 0JZ      0.039700
     61 H35A        0.6420    6.4790    2.0970 hc        1 0JZ      0.039700
     62 H35B        1.5410    6.4350    0.5230 hc        1 0JZ      0.039700
     63 H36         0.4060    2.7750    2.5320 hc        1 0JZ      0.039700
     64 H36A        0.3280    4.3620    3.4020 hc        1 0JZ      0.039700
     65 H36B       -0.8700    3.9860    2.1000 hc        1 0JZ      0.039700
     66 O25        -4.0640    1.3540   -1.7910 o         1 0JZ     -0.607100
@<TRIPOS>BOND
     1    1    8 1   
     2    1    9 1   
     3    2   14 1   
     4    2   15 1   
     5    3   20 1   
     6    3   21 1   
     7    4    5 1   
     8    4   21 2   
     9    4   22 1   
    10    5    6 1   
    11    5   66 2   
    12    6    7 1   
    13    6   36 1   
    14    7    8 1   
    15    7   27 1   
    16    7   37 1   
    17    8   24 2   
    18    9   10 2   
    19    9   38 1   
    20   10   11 1   
    21   10   24 1   
    22   11   12 1   
    23   11   25 2   
    24   12   13 1   
    25   12   39 1   
    26   13   14 1   
    27   13   30 1   
    28   13   40 1   
    29   14   23 2   
    30   15   16 2   
    31   15   41 1   
    32   16   17 1   
    33   16   23 1   
    34   17   18 1   
    35   17   26 2   
    36   18   19 1   
    37   18   42 1   
    38   19   20 1   
    39   19   33 1   
    40   19   43 1   
    41   20   22 2   
    42   21   44 1   
    43   27   28 1   
    44   27   29 1   
    45   27   45 1   
    46   28   46 1   
    47   28   47 1   
    48   28   48 1   
    49   29   49 1   
    50   29   50 1   
    51   29   51 1   
    52   30   31 1   
    53   30   32 1   
    54   30   52 1   
    55   31   53 1   
    56   31   54 1   
    57   31   55 1   
    58   32   56 1   
    59   32   57 1   
    60   32   58 1   
    61   33   34 1   
    62   33   35 1   
    63   33   59 1   
    64   34   60 1   
    65   34   61 1   
    66   34   62 1   
    67   35   63 1   
    68   35   64 1   
    69   35   65 1   
@<TRIPOS>SUBSTRUCTURE
     1 0JZ         1 TEMP              0 ****  ****    0 ROOT
