@<TRIPOS>MOLECULE
0JZ
   66    63     1     0     0
SMALL
bcc


@<TRIPOS>ATOM
      1 SE1        -3.7140   -1.1580   -2.7160 ss        1 0JZ      0.111367
      2 SE2        -1.3150    0.8380    3.7820 ss        1 0JZ      0.111367
      3 SE3         4.4020    0.8270   -1.7990 ss        1 0JZ      0.111367
      4 C01         2.0760   -0.1090   -2.3600 cg        1 0JZ     -0.087000
      5 C02         0.8840   -0.8900   -2.9420 c1        1 0JZ      0.613167
      6 N03        -0.1490   -0.1850   -3.6830 n3        1 0JZ     -0.366067
      7 C04        -1.2170   -1.0740   -3.9680 c3        1 0JZ      0.040700
      8 C05        -2.0970   -1.2170   -2.7400 c2        1 0JZ      0.261533
      9 C07        -4.1590   -1.0660   -1.1810 c1        1 0JZ     -0.187900
     10 C08        -2.9320   -0.9890   -0.3660 cg        1 0JZ     -0.087000
     11 C09        -2.8650   -0.6490    1.1470 c1        1 0JZ      0.613167
     12 N10        -3.1150   -1.8490    1.9280 n3        1 0JZ     -0.366067
     13 C11        -2.3240   -1.8220    3.1170 c3        1 0JZ      0.040700
     14 C12        -1.2690   -0.7420    3.0000 c2        1 0JZ      0.261533
     15 C14         0.2520    1.5780    3.5710 c1        1 0JZ     -0.187900
     16 C15         1.0720    0.6620    2.8680 cg        1 0JZ     -0.087000
     17 C16         2.5950    0.8100    2.6190 c1        1 0JZ      0.613167
     18 N17         2.8450    1.9960    1.8050 n3        1 0JZ     -0.366067
     19 C18         3.9420    1.7510    0.9290 c3        1 0JZ      0.040700
     20 C19         3.4290    1.1920   -0.3780 c2        1 0JZ      0.261533
     21 C21         3.3650    0.0070   -2.9490 c1        1 0JZ     -0.187900
     22 N22         2.1400    0.7260   -0.6180 ne        1 0JZ     -0.431700
     23 N23        -0.0230   -0.8740    2.3730 ne        1 0JZ     -0.431700
     24 N24        -1.6360   -1.2620   -1.3550 ne        1 0JZ     -0.431700
     25 O25         0.7370   -2.0680   -2.6680 o         1 0JZ     -0.589833
     26 O26        -2.0760    0.1850    1.5480 o         1 0JZ     -0.589833
     27 O27         3.2890   -0.1820    2.4800 o         1 0JZ     -0.589833
     28 C28        -2.0440   -0.5220   -5.1250 c3        1 0JZ     -0.071700
     29 C29        -1.1080    0.1000   -6.1720 c3        1 0JZ     -0.092767
     30 C30        -2.8480   -1.6620   -5.7690 c3        1 0JZ     -0.092767
     31 C31        -3.2170   -1.5330    4.3150 c3        1 0JZ     -0.071700
     32 C32        -4.5170   -2.3410    4.1910 c3        1 0JZ     -0.092767
     33 C33        -2.4870   -1.9320    5.6060 c3        1 0JZ     -0.092767
     34 C34         4.6850    3.0560    0.6680 c3        1 0JZ     -0.071700
     35 C35         6.1800    2.7620    0.4560 c3        1 0JZ     -0.092767
     36 C36         4.5130    3.9950    1.8740 c3        1 0JZ     -0.092767
     37 HN03       -0.3220    0.6970   -3.5020 hn        1 0JZ      0.288367
     38 H04        -0.8540   -1.9530   -4.2150 h1        1 0JZ      0.095700
     39 H07        -5.0770   -0.9610   -0.8520 DU        1 0JZ      0.200000
     40 HN10       -3.2800   -2.6470    1.5040 hn        1 0JZ      0.288367
     41 H11        -1.8860   -2.6950    3.2380 h1        1 0JZ      0.095700
     42 H14         0.5390    2.4370    3.9460 DU        1 0JZ      0.200000
     43 HN17        2.1430    2.5170    1.5270 hn        1 0JZ      0.288367
     44 H18         4.5540    1.1040    1.3440 h1        1 0JZ      0.095700
     45 H21         3.6490   -0.3910   -3.7990 DU        1 0JZ      0.200000
     46 H28        -2.6620    0.1650   -4.7890 hc        1 0JZ      0.062700
     47 H29        -0.7860    0.9700   -5.8490 hc        1 0JZ      0.040756
     48 H29A       -0.3420   -0.4970   -6.3230 hc        1 0JZ      0.040756
     49 H29B       -1.5980    0.2250   -7.0170 hc        1 0JZ      0.040756
     50 H30        -2.2570   -2.1920   -6.3510 hc        1 0JZ      0.040756
     51 H30A       -3.5820   -1.2830   -6.3050 hc        1 0JZ      0.040756
     52 H30B       -3.2190   -2.2390   -5.0670 hc        1 0JZ      0.040756
     53 H31        -3.4280   -0.5730    4.3410 hc        1 0JZ      0.062700
     54 H32        -4.9950   -2.3260    5.0520 hc        1 0JZ      0.040756
     55 H32A       -4.3040   -3.2690    3.9500 hc        1 0JZ      0.040756
     56 H32B       -5.0850   -1.9430    3.4950 hc        1 0JZ      0.040756
     57 H33        -2.2320   -2.8800    5.5590 hc        1 0JZ      0.040756
     58 H33A       -1.6800   -1.3810    5.7100 hc        1 0JZ      0.040756
     59 H33B       -3.0820   -1.7900    6.3770 hc        1 0JZ      0.040756
     60 H34         4.3190    3.4860   -0.1370 hc        1 0JZ      0.062700
     61 H35         6.5080    2.1910    1.1870 hc        1 0JZ      0.040756
     62 H35A        6.6830    3.6080    0.4500 hc        1 0JZ      0.040756
     63 H35B        6.3050    2.3000   -0.4020 hc        1 0JZ      0.040756
     64 H36         5.3550    3.5570    2.1260 hc        1 0JZ      0.040756
     65 H36A        5.0280    4.7830    2.1700 hc        1 0JZ      0.040756
     66 H36B        4.2940    4.6200    1.1460 hc        1 0JZ      0.040756
@<TRIPOS>BOND
     1    1    8 1   
     2    1    9 1   
     3    2   14 1   
     4    2   15 1   
     5    3   20 1   
     6    3   21 1   
     7    4   21 3   
     8    4   22 1   
     9    5    6 2   
    10    5   25 2   
    11    6    7 1   
    12    6   37 1   
    13    7    8 1   
    14    7   28 1   
    15    7   38 1   
    16    8   24 2   
    17    9   10 3   
    18   10   24 1   
    19   11   12 2   
    20   11   26 2   
    21   12   13 1   
    22   12   40 1   
    23   13   14 1   
    24   13   31 1   
    25   13   41 1   
    26   14   23 2   
    27   15   16 3   
    28   16   23 1   
    29   17   18 2   
    30   17   27 2   
    31   18   19 1   
    32   18   43 1   
    33   19   20 1   
    34   19   34 1   
    35   19   44 1   
    36   20   22 2   
    37   28   29 1   
    38   28   30 1   
    39   28   46 1   
    40   29   47 1   
    41   29   48 1   
    42   29   49 1   
    43   30   50 1   
    44   30   51 1   
    45   30   52 1   
    46   31   32 1   
    47   31   33 1   
    48   31   53 1   
    49   32   54 1   
    50   32   55 1   
    51   32   56 1   
    52   33   57 1   
    53   33   58 1   
    54   33   59 1   
    55   34   35 1   
    56   34   36 1   
    57   34   60 1   
    58   35   61 1   
    59   35   62 1   
    60   35   63 1   
    61   36   64 1   
    62   36   65 1   
    63   36   66 1   
@<TRIPOS>SUBSTRUCTURE
     1 0JZ         1 TEMP              0 ****  ****    0 ROOT
