@<TRIPOS>MOLECULE
0JZ
   66    67     1     0     0
SMALL
bcc


@<TRIPOS>ATOM
      1 SE1        -1.6600   -1.7100    2.5490 sh        1 0JZ      1.182000
      2 SE2         5.7570    0.4060    6.8130 s4        1 0JZ      0.785000
      3 SE3         9.8100    2.3430    0.3170 s4        1 0JZ      1.327000
      4 C01         8.3320    0.8880   -1.0590 c2        1 0JZ     -0.034000
      5 C02         7.6750    0.3480   -2.2820 c2        1 0JZ      0.378000
      6 N03         6.3550   -0.0310   -2.1860 n         1 0JZ     -0.439000
      7 C04         0.9520    0.5580   -0.3500 c1        1 0JZ     -0.162000
      8 C05         1.2130    0.2530    0.7850 c1        1 0JZ     -0.107000
      9 C07        -0.3710   -1.2350    2.7220 c1        1 0JZ     -0.897000
     10 C08         0.9080   -0.6950    2.8880 c2        1 0JZ      0.127000
     11 C09         1.5070   -0.9250    4.2850 c3        1 0JZ      0.135000
     12 N10         2.9250   -1.3340    4.3440 n3        1 0JZ     -0.219000
     13 C11         3.5830   -0.2490    5.0320 c2        1 0JZ     -0.128000
     14 C12         5.0050   -0.2520    5.2250 c2        1 0JZ     -0.196000
     15 C14         7.3060   -0.0220    6.2630 c1        1 0JZ     -0.397000
     16 C15         7.2480   -0.5250    5.0120 c2        1 0JZ     -0.204000
     17 C16         8.4270   -0.9200    4.2260 c2        1 0JZ      0.356000
     18 N17         8.4260   -0.5470    2.7850 n4        1 0JZ     -0.063000
     19 C18         8.8840    0.8550    2.4740 c2        1 0JZ      0.090000
     20 C19         8.8820    1.1380    1.0880 c2        1 0JZ     -0.691000
     21 C21         9.3000    1.9390   -1.1550 c2        1 0JZ     -0.835000
     22 N22         8.1030    0.4070    0.1690 n2        1 0JZ     -0.209000
     23 N23         5.9340   -0.6670    4.4250 n2        1 0JZ     -0.058000
     24 N24         1.6320   -0.0190    2.0340 n2        1 0JZ     -0.101000
     25 O26         1.3850    0.3370    5.0350 os        1 0JZ     -0.197000
     26 O27         9.4000   -1.5350    4.6510 o         1 0JZ     -0.208000
     27 C28         0.6830    0.9250   -1.7120 c3        1 0JZ      0.012000
     28 C29        -0.8120    1.0020   -1.9800 c3        1 0JZ     -0.206000
     29 C30         1.3520    2.2440   -2.0670 c3        1 0JZ     -0.206000
     30 C31         2.6700    0.6960    5.4320 c2        1 0JZ      0.060000
     31 C32         2.7860    1.9610    6.1640 c3        1 0JZ     -0.177000
     32 C33         2.5480    4.9130    3.9400 c3        1 0JZ     -0.273000
     33 C34         9.2270    1.6680    3.5060 c2        1 0JZ     -0.289000
     34 C35        11.5320    2.1470    0.4630 c3        1 0JZ     -0.695000
     35 C36         9.5160    3.1010    3.3390 c3        1 0JZ     -0.156000
     36 HN03        5.8920   -0.3910   -2.9810 hn        1 0JZ      0.219500
     37 H04         5.8730    0.0130   -1.3270 hn        1 0JZ      0.219500
     38 H07        -1.6240   -2.9320    2.0890 hs        1 0JZ     -0.278000
     39 HN10        0.8940   -1.6770    4.8570 h2        1 0JZ      0.134000
     40 H11         3.3290   -1.4970    3.4390 hn        1 0JZ      0.205000
     41 H14         5.4800   -0.6130    7.6130 hs        1 0JZ      0.023000
     42 HN17        7.4790   -0.6450    2.3920 hn        1 0JZ      0.263000
     43 H18         9.0540   -1.1770    2.2670 hn        1 0JZ      0.263000
     44 H21         9.6540    2.2870   -2.1190 h4        1 0JZ      0.174000
     45 H28         1.1200    0.1180   -2.3770 hc        1 0JZ      0.103000
     46 H29        -0.9880    1.2510   -3.0540 hc        1 0JZ      0.079167
     47 H29A       -1.2840    1.7920   -1.3490 hc        1 0JZ      0.079167
     48 H29B       -1.3010    0.0250   -1.7540 hc        1 0JZ      0.079167
     49 H30         1.1760    2.4760   -3.1450 hc        1 0JZ      0.079167
     50 H30A        2.4520    2.1840   -1.8870 hc        1 0JZ      0.079167
     51 H30B        0.9350    3.0750   -1.4500 hc        1 0JZ      0.079167
     52 H31         1.6500    4.8530    4.5920 hc        1 0JZ      0.068750
     53 H32         3.7830    2.0280    6.6670 hc        1 0JZ      0.110667
     54 H32A        2.6820    2.8200    5.4470 hc        1 0JZ      0.110667
     55 H32B        1.9750    2.0480    6.9310 hc        1 0JZ      0.110667
     56 H33         3.4630    4.9730    4.5690 hc        1 0JZ      0.068750
     57 H33A        2.6000    4.0110    3.2920 hc        1 0JZ      0.068750
     58 H33B        2.4800    5.8220    3.3020 hc        1 0JZ      0.068750
     59 H34         9.3160    1.2960    4.5390 ha        1 0JZ      0.131000
     60 H35        11.8440    2.4150    1.4980 h1        1 0JZ      0.100333
     61 H35A       12.0430    2.8330   -0.2490 h1        1 0JZ      0.100333
     62 H35B       11.8890    1.1160    0.2520 h1        1 0JZ      0.100333
     63 H36         9.0590    3.5110    2.4010 hc        1 0JZ      0.080000
     64 H36A       10.6230    3.2710    3.2910 hc        1 0JZ      0.080000
     65 H36B        9.1160    3.6770    4.2110 hc        1 0JZ      0.080000
     66 O25         8.2640    0.2520   -3.3790 o         1 0JZ     -0.387000
@<TRIPOS>BOND
     1    1    9 1   
     2    1   38 1   
     3    2   14 1   
     4    2   15 1   
     5    2   41 1   
     6    3   20 1   
     7    3   21 1   
     8    3   34 1   
     9    4    5 1   
    10    4   21 1   
    11    4   22 1   
    12    5    6 1   
    13    5   66 1   
    14    6   36 1   
    15    6   37 1   
    16    7    8 1   
    17    7   27 1   
    18    8   24 1   
    19    9   10 1   
    20   10   11 1   
    21   10   24 1   
    22   11   12 1   
    23   11   25 1   
    24   11   39 1   
    25   12   13 1   
    26   12   40 1   
    27   13   14 1   
    28   13   30 1   
    29   14   23 1   
    30   15   16 1   
    31   16   17 1   
    32   16   23 1   
    33   17   18 1   
    34   17   26 1   
    35   18   19 1   
    36   18   42 1   
    37   18   43 1   
    38   19   20 1   
    39   19   33 1   
    40   20   22 1   
    41   21   44 1   
    42   25   30 1   
    43   27   28 1   
    44   27   29 1   
    45   27   45 1   
    46   28   46 1   
    47   28   47 1   
    48   28   48 1   
    49   29   49 1   
    50   29   50 1   
    51   29   51 1   
    52   30   31 1   
    53   31   53 1   
    54   31   54 1   
    55   31   55 1   
    56   32   52 1   
    57   32   56 1   
    58   32   57 1   
    59   32   58 1   
    60   33   35 1   
    61   33   59 1   
    62   34   60 1   
    63   34   61 1   
    64   34   62 1   
    65   35   63 1   
    66   35   64 1   
    67   35   65 1   
@<TRIPOS>SUBSTRUCTURE
     1 0JZ         1 TEMP              0 ****  ****    0 ROOT
