@<TRIPOS>MOLECULE
0JZ
   69    69     1     0     0
SMALL
bcc


@<TRIPOS>ATOM
      1 SE1       -79.1570   17.1100 -154.1600 s4        1 0JZ      1.415000
      2 SE2       130.7790  -22.6490  244.4310 s4        1 0JZ      0.942000
      3 SE3       -71.1910   17.1550 -150.9120 sh        1 0JZ      1.321000
      4 C01       -73.8450   16.7090 -151.5860 c2        1 0JZ      0.150000
      5 C02       -74.8030   17.7400 -151.0490 c2        1 0JZ      0.307000
      6 N03       -76.2880   17.3830 -151.0720 n4        1 0JZ     -0.100000
      7 C04       -76.9290   17.7320 -152.3870 c3        1 0JZ     -0.008000
      8 C05       -78.2940   17.1230 -152.5680 c2        1 0JZ     -0.389000
      9 C07       -80.5190   16.2600 -153.4560 c2        1 0JZ     -0.357000
     10 C08       -80.2770   16.1510 -152.1070 c2        1 0JZ     -0.130000
     11 C09       -81.1810   15.6010 -151.1810 c1        1 0JZ      0.497000
     12 N10       128.2720  -21.2750  241.2420 n3        1 0JZ     -0.333000
     13 C11       129.1570  -21.1740  242.3670 c3        1 0JZ      0.058000
     14 C12       129.8630  -22.4670  242.7310 c2        1 0JZ     -0.272000
     15 C14       131.1290  -24.2100  244.0230 c1        1 0JZ     -0.657000
     16 C15       130.7310  -24.5500  242.7820 c2        1 0JZ     -0.147000
     17 C16       131.0170  -25.8460  242.1790 c2        1 0JZ      0.354000
     18 N17       131.8350  -26.7300  243.1060 n4        1 0JZ     -0.147000
     19 C18       -73.0400   13.8930 -153.4410 c1        1 0JZ     -0.029000
     20 C19       -73.6220   14.7980 -152.8970 c1        1 0JZ     -0.180000
     21 C21       -72.5300   16.9400 -151.2040 c1        1 0JZ     -0.951000
     22 N22       -74.3640   15.7620 -152.3370 n2        1 0JZ     -0.129000
     23 N23       129.9910  -23.5490  242.0490 n2        1 0JZ     -0.039000
     24 N24       -79.0230   16.6340 -151.5940 n2        1 0JZ     -0.075000
     25 O26       -81.9280   15.1390 -150.4330 o         1 0JZ      0.145000
     26 O27       130.7200  -26.3220  241.0970 o         1 0JZ     -0.159000
     27 C28       -77.0060   19.2560 -152.6010 c3        1 0JZ     -0.180000
     28 C29       -78.4500   16.5310 -155.3290 c2        1 0JZ     -0.876000
     29 C30       -77.6900   20.0040 -151.4880 c3        1 0JZ     -0.245000
     30 C31       130.1980  -20.0390  242.1930 c3        1 0JZ     -0.115000
     31 C32       130.7100  -19.5690  243.5360 c3        1 0JZ     -0.216000
     32 C33       131.3350  -20.4370  241.2820 c3        1 0JZ     -0.216000
     33 C34       -72.3640   12.8150 -154.1110 c3        1 0JZ     -0.016000
     34 C35       -71.0700   12.4490 -153.4000 c3        1 0JZ     -0.210000
     35 C36       -73.2640   11.5950 -154.2380 c3        1 0JZ     -0.210000
     36 H04       -76.2660   17.2860 -153.1980 hx        1 0JZ      0.182000
     37 H07       -81.4310   15.9410 -153.9750 h4        1 0JZ      0.216000
     38 HN10      128.7560  -21.3530  240.3710 hn        1 0JZ      0.178500
     39 H11       128.5110  -20.9210  243.2670 h1        1 0JZ      0.116000
     40 H14       129.7220  -22.8460  245.2060 hs        1 0JZ      0.019000
     41 HN17      131.9940  -26.2180  243.9980 hn        1 0JZ      0.271333
     42 H18       132.7330  -26.9510  242.6690 hn        1 0JZ      0.271333
     43 H21       -70.9380   16.5920 -149.7650 hs        1 0JZ     -0.227000
     44 H28       -75.9610   19.6510 -152.7310 hc        1 0JZ      0.129000
     45 H29       -77.5460   19.4270 -153.5710 hc        1 0JZ      0.129000
     46 H29A      -78.9310   16.0090 -156.1810 h4        1 0JZ      0.229500
     47 H29B      -77.3610   16.5180 -155.5130 h4        1 0JZ      0.229500
     48 H30       -77.9340   21.0420 -151.8330 hc        1 0JZ      0.105667
     49 H30A      -78.6410   19.5080 -151.1800 hc        1 0JZ      0.105667
     50 H30B      -77.0240   20.1040 -150.5940 hc        1 0JZ      0.105667
     51 H31       129.6540  -19.1680  241.7180 hc        1 0JZ      0.143000
     52 H32       131.4180  -18.7150  243.3920 hc        1 0JZ      0.083000
     53 H32A      129.8700  -19.2210  244.1850 hc        1 0JZ      0.083000
     54 H32B      131.2660  -20.3820  244.0710 hc        1 0JZ      0.083000
     55 H33       132.0110  -19.5620  241.1140 hc        1 0JZ      0.083000
     56 H33A      131.9410  -21.2620  241.7310 hc        1 0JZ      0.083000
     57 H33B      130.9530  -20.7770  240.2900 hc        1 0JZ      0.083000
     58 H34       -72.1060   13.1770 -155.1550 hc        1 0JZ      0.127000
     59 H35       -70.5490   11.6440 -153.9730 hc        1 0JZ      0.090500
     60 H35A      -71.2770   12.0740 -152.3700 hc        1 0JZ      0.090500
     61 H35B      -70.3940   13.3340 -153.3340 hc        1 0JZ      0.090500
     62 H36       -72.7300   10.8000 -154.8130 hc        1 0JZ      0.090500
     63 H36A      -73.5240   11.1900 -153.2310 hc        1 0JZ      0.090500
     64 H36B      -74.2060   11.8550 -154.7770 hc        1 0JZ      0.090500
     65 O25       -74.5480   18.8280 -150.5630 o         1 0JZ     -0.156000
     66 H031      -76.7670   17.9040 -150.3240 hn        1 0JZ      0.265000
     67 H102      127.6020  -22.0090  241.3450 hn        1 0JZ      0.178500
     68 H172      131.3340  -27.6020  243.2880 hn        1 0JZ      0.271333
     69 HN03      -76.3920   16.3760 -150.8980 hn        1 0JZ      0.265000
@<TRIPOS>BOND
     1    1    8 1   
     2    1    9 1   
     3    1   28 1   
     4    2   14 1   
     5    2   15 1   
     6    2   40 1   
     7    3   21 1   
     8    3   43 1   
     9    4    5 1   
    10    4   21 1   
    11    4   22 1   
    12    5    6 1   
    13    5   65 1   
    14    6    7 1   
    15    6   66 1   
    16    6   69 1   
    17    7    8 1   
    18    7   27 1   
    19    7   36 1   
    20    8   24 1   
    21    9   10 1   
    22    9   37 1   
    23   10   11 1   
    24   10   24 1   
    25   11   25 1   
    26   12   13 1   
    27   12   38 1   
    28   12   67 1   
    29   13   14 1   
    30   13   30 1   
    31   13   39 1   
    32   14   23 1   
    33   15   16 1   
    34   16   17 1   
    35   16   23 1   
    36   17   18 1   
    37   17   26 1   
    38   18   41 1   
    39   18   42 1   
    40   18   68 1   
    41   19   20 1   
    42   19   33 1   
    43   20   22 1   
    44   27   29 1   
    45   27   44 1   
    46   27   45 1   
    47   28   46 1   
    48   28   47 1   
    49   29   48 1   
    50   29   49 1   
    51   29   50 1   
    52   30   31 1   
    53   30   32 1   
    54   30   51 1   
    55   31   52 1   
    56   31   53 1   
    57   31   54 1   
    58   32   55 1   
    59   32   56 1   
    60   32   57 1   
    61   33   34 1   
    62   33   35 1   
    63   33   58 1   
    64   34   59 1   
    65   34   60 1   
    66   34   61 1   
    67   35   62 1   
    68   35   63 1   
    69   35   64 1   
@<TRIPOS>SUBSTRUCTURE
     1 0JZ         1 TEMP              0 ****  ****    0 ROOT
