@<TRIPOS>MOLECULE
0K0
   53    55     1     0     0
SMALL
bcc


@<TRIPOS>ATOM
      1 C1         -0.1030   -0.9770   -0.4660 cp        1 0K0     -0.140500
      2 C2          1.1200   -0.3190   -0.3090 ca        1 0K0     -0.170000
      3 C3         -0.5340   -1.9140    0.4770 ca        1 0K0     -0.130000
      4 C4          1.9360   -0.5860    0.8150 ca        1 0K0      0.197600
      5 C5          0.2710   -2.1850    1.5830 ca        1 0K0     -0.088000
      6 C6          1.4840   -1.5350    1.7650 ca        1 0K0     -0.163000
      7 C7         -0.9290   -0.6700   -1.6430 cp        1 0K0      0.341500
      8 C8         -0.2860   -0.6640   -2.9570 ca        1 0K0      0.421900
      9 N10        -0.9310   -0.4130   -4.0710 nb        1 0K0     -0.687000
     10 C11        -2.9400   -0.1270   -2.6810 ca        1 0K0      0.050500
     11 C12        -2.3110   -0.1320   -3.9860 ca        1 0K0      0.679900
     12 O14        -5.1760    0.4310   -3.4170 o         1 0K0     -0.497100
     13 C16        -6.3450    0.5380   -1.0400 c3        1 0K0      0.105800
     14 C17        -6.8620    0.6030    0.4000 c3        1 0K0     -0.088700
     15 C18        -8.3100    1.0790    0.3480 c3        1 0K0     -0.083400
     16 C19        -6.7670   -0.7480    1.0920 c3        1 0K0     -0.083400
     17 C21        -7.4450   -0.7030    2.4640 c3        1 0K0      0.167800
     18 N22        -8.8080   -0.2240    2.3920 n7        1 0K0     -0.825200
     19 O26         5.1230    1.0540    2.0470 o         1 0K0     -0.635800
     20 C27         5.2110   -1.4170    1.5290 c3        1 0K0     -0.380300
     21 O28         3.7640   -0.4520    3.3460 o         1 0K0     -0.635800
     22 S25         4.3240   -0.0990    2.1090 s6        1 0K0      1.469900
     23 N24         3.1520    0.0850    0.9630 nu        1 0K0     -0.770500
     24 N9         -2.2200   -0.4060   -1.5360 nb        1 0K0     -0.622000
     25 N23        -2.9700    0.1200   -5.1400 nv        1 0K0     -0.900500
     26 C13        -4.3540    0.1810   -2.5360 c         1 0K0      0.486600
     27 N15        -4.8940    0.2070   -1.1180 ny        1 0K0     -0.652800
     28 C20        -8.9320    1.0660    1.7450 c3        1 0K0      0.167800
     29 H1          1.4350    0.4230   -1.0590 ha        1 0K0      0.137000
     30 H2         -1.4910   -2.4380    0.3490 ha        1 0K0      0.138000
     31 H3         -0.0620   -2.9220    2.3320 ha        1 0K0      0.153000
     32 H4          2.0740   -1.7520    2.6750 ha        1 0K0      0.180000
     33 H5          0.7980   -0.8870   -3.0380 h4        1 0K0      0.070100
     34 H6         -6.9090   -0.2460   -1.6220 hx        1 0K0      0.111200
     35 H7         -6.5000    1.5320   -1.5500 hx        1 0K0      0.111200
     36 H8         -6.2620    1.3560    0.9850 hc        1 0K0      0.065700
     37 H9         -8.3560    2.1230   -0.0550 hc        1 0K0      0.054450
     38 H10        -8.9020    0.4140   -0.3340 hc        1 0K0      0.054450
     39 H11        -7.2560   -1.5340    0.4590 hc        1 0K0      0.054450
     40 H12        -5.6970   -1.0400    1.2500 hc        1 0K0      0.054450
     41 H13        -6.8030   -0.0730    3.1490 h1        1 0K0      0.044450
     42 H14        -7.4740   -1.7480    2.8860 h1        1 0K0      0.044450
     43 H15        -9.2280   -0.2080    3.3020 hn        1 0K0      0.388800
     44 H17         5.7110   -1.2280    0.5460 h1        1 0K0      0.125700
     45 H18         4.6150   -2.3540    1.4080 h1        1 0K0      0.125700
     46 H19         6.0380   -1.6740    2.2430 h1        1 0K0      0.125700
     47 H20         3.2850    0.8050    0.2830 hn        1 0K0      0.454800
     48 H21        -3.9450    0.3200   -5.1390 hn        1 0K0      0.476300
     49 H22        -2.4880    0.1040   -6.0130 hn        1 0K0      0.476300
     50 H23        -4.7340   -0.7150   -0.6920 hn        1 0K0      0.465800
     51 H24       -10.0310    1.2940    1.6510 h1        1 0K0      0.044450
     52 H25        -8.4580    1.8960    2.3490 h1        1 0K0      0.044450
     53 H152       -4.3540    0.8940   -0.5780 hn        1 0K0      0.465800
@<TRIPOS>BOND
     1    1    2 ar  
     2    1    3 ar  
     3    1    7 1   
     4    2    4 ar  
     5    2   29 1   
     6    3    5 ar  
     7    3   30 1   
     8    4    6 ar  
     9    4   23 1   
    10    5    6 ar  
    11    5   31 1   
    12    6   32 1   
    13    7    8 ar  
    14    7   24 ar  
    15    8    9 ar  
    16    8   33 1   
    17    9   11 ar  
    18   10   11 ar  
    19   10   24 ar  
    20   10   26 1   
    21   11   25 1   
    22   12   26 2   
    23   13   14 1   
    24   13   27 1   
    25   13   34 1   
    26   13   35 1   
    27   14   15 1   
    28   14   16 1   
    29   14   36 1   
    30   15   28 1   
    31   15   37 1   
    32   15   38 1   
    33   16   17 1   
    34   16   39 1   
    35   16   40 1   
    36   17   18 1   
    37   17   41 1   
    38   17   42 1   
    39   18   28 1   
    40   18   43 1   
    41   19   22 2   
    42   20   22 1   
    43   20   44 1   
    44   20   45 1   
    45   20   46 1   
    46   21   22 2   
    47   22   23 1   
    48   23   47 1   
    49   25   48 1   
    50   25   49 1   
    51   26   27 1   
    52   27   50 1   
    53   27   53 1   
    54   28   51 1   
    55   28   52 1   
@<TRIPOS>SUBSTRUCTURE
     1 0K0         1 TEMP              0 ****  ****    0 ROOT
