@<TRIPOS>MOLECULE
0K0
   55    56     1     0     0
SMALL
bcc


@<TRIPOS>ATOM
      1 C1         -0.0870   -0.7750   -0.3210 cp        1 0K0     -0.199500
      2 C2          1.2330   -0.2990   -0.2670 ca        1 0K0     -0.103000
      3 C3         -0.6210   -1.4850    0.7650 ca        1 0K0     -0.052000
      4 C4          2.0220   -0.5250    0.8770 ca        1 0K0      0.033600
      5 C5          0.1640   -1.7180    1.8920 ca        1 0K0     -0.098000
      6 C6          1.4700   -1.2400    1.9630 ca        1 0K0     -0.060000
      7 C7         -0.9050   -0.5260   -1.5130 cp        1 0K0      0.465500
      8 C8         -0.2890   -0.5820   -2.8250 ca        1 0K0      0.384900
      9 N10        -0.9780   -0.3850   -3.9450 nb        1 0K0     -0.587000
     10 C11        -2.9440   -0.0530   -2.5480 ca        1 0K0      0.267500
     11 C12        -2.3200   -0.1190   -3.8290 ca        1 0K0      0.408900
     12 O14        -5.1300    0.4620   -3.3810 o         1 0K0     -0.434100
     13 C16        -6.4700    0.6210   -1.0520 c3        1 0K0      0.107800
     14 C17        -7.0530    0.6580    0.3640 c3        1 0K0     -0.089700
     15 C18        -8.5220    1.0600    0.2230 c3        1 0K0     -0.085900
     16 C19        -6.9190   -0.6850    1.0640 c3        1 0K0     -0.085900
     17 C21        -7.6940   -0.6860    2.3890 c3        1 0K0      0.172800
     18 N22        -9.0750   -0.3070    2.2010 n3        1 0K0     -0.831200
     19 O26         5.4200    0.1630    2.8120 o         1 0K0     -0.394900
     20 C27         6.0350   -1.6410    1.1710 c3        1 0K0     -0.583800
     21 O28         4.2680   -1.9190    2.9420 o         1 0K0     -0.394900
     22 S25         5.1390   -1.0740    2.3580 s4        1 0K0      1.654500
     23 N24         3.3670   -0.0220    0.9650 nh        1 0K0     -0.884200
     24 N9         -2.2250   -0.2620   -1.4100 nb        1 0K0     -0.638000
     25 N23        -3.0500    0.0770   -5.0930 n4        1 0K0     -0.818300
     26 C13        -4.4030    0.2560   -2.4130 c         1 0K0      0.457600
     27 N15        -4.9920    0.3170   -1.0500 n4        1 0K0     -0.644800
     28 C20        -9.2310    0.9890    1.5780 c3        1 0K0      0.172800
     29 H1          1.6410    0.2730   -1.1160 ha        1 0K0      0.146000
     30 H2         -1.6510   -1.8760    0.7340 ha        1 0K0      0.158000
     31 H3         -0.2520   -2.2850    2.7440 ha        1 0K0      0.190000
     32 H4          2.0560   -1.4340    2.8810 ha        1 0K0      0.186000
     33 H5          0.7920   -0.8110   -2.9460 h4        1 0K0      0.099100
     34 H6         -6.6140    1.6180   -1.5600 hx        1 0K0      0.120700
     35 H7         -6.9810   -0.1780   -1.6620 hx        1 0K0      0.120700
     36 H8         -6.5290    1.4480    0.9740 hc        1 0K0      0.072700
     37 H9         -8.5960    2.1080   -0.1660 hc        1 0K0      0.053700
     38 H10        -9.0360    0.3770   -0.5030 hc        1 0K0      0.053700
     39 H11        -5.8450   -0.9060    1.2980 hc        1 0K0      0.053700
     40 H12        -7.3150   -1.5020    0.4050 hc        1 0K0      0.053700
     41 H13        -7.1480   -0.0080    3.1100 h1        1 0K0      0.054700
     42 H14        -7.6770   -1.7300    2.8140 h1        1 0K0      0.054700
     43 H15        -9.5940   -0.3710    3.0560 hn        1 0K0      0.409800
     44 H17         6.9800   -2.1940    1.4990 h1        1 0K0      0.214700
     45 H18         6.4670   -0.8740    0.4560 h1        1 0K0      0.214700
     46 H19         5.5500   -2.4110    0.4960 h1        1 0K0      0.214700
     47 H20         3.7310    0.1340    0.0380 hn        1 0K0      0.406800
     48 H21        -3.7370   -0.6830   -5.2130 hn        1 0K0      0.498467
     49 H22        -3.5550    0.9770   -5.0650 hn        1 0K0      0.498467
     50 H23        -4.5000    1.0390   -0.5000 hn        1 0K0      0.485300
     51 H24       -10.3330    1.1610    1.4140 h1        1 0K0      0.054700
     52 H25        -8.8410    1.8310    2.2250 h1        1 0K0      0.054700
     53 H242        3.3430    0.8720    1.4450 hn        1 0K0      0.406800
     54 H233       -2.4010    0.0750   -5.9020 hn        1 0K0      0.498467
     55 H152       -4.8460   -0.5900   -0.5750 hn        1 0K0      0.485300
@<TRIPOS>BOND
     1    1    2 ar  
     2    1    3 ar  
     3    1    7 1   
     4    2    4 ar  
     5    2   29 1   
     6    3    5 ar  
     7    3   30 1   
     8    4    6 ar  
     9    4   23 1   
    10    5    6 ar  
    11    5   31 1   
    12    6   32 1   
    13    7    8 ar  
    14    7   24 ar  
    15    8    9 ar  
    16    8   33 1   
    17    9   11 ar  
    18   10   11 ar  
    19   10   24 ar  
    20   10   26 1   
    21   11   25 1   
    22   12   26 2   
    23   13   14 1   
    24   13   27 1   
    25   13   34 1   
    26   13   35 1   
    27   14   15 1   
    28   14   16 1   
    29   14   36 1   
    30   15   28 1   
    31   15   37 1   
    32   15   38 1   
    33   16   17 1   
    34   16   39 1   
    35   16   40 1   
    36   17   18 1   
    37   17   41 1   
    38   17   42 1   
    39   18   28 1   
    40   18   43 1   
    41   19   22 1   
    42   20   22 1   
    43   20   44 1   
    44   20   45 1   
    45   20   46 1   
    46   21   22 1   
    47   23   47 1   
    48   23   53 1   
    49   25   48 1   
    50   25   49 1   
    51   25   54 1   
    52   26   27 1   
    53   27   50 1   
    54   27   55 1   
    55   28   51 1   
    56   28   52 1   
@<TRIPOS>SUBSTRUCTURE
     1 0K0         1 TEMP              0 ****  ****    0 ROOT
