@<TRIPOS>MOLECULE
0K0
   52    54     1     0     0
SMALL
bcc


@<TRIPOS>ATOM
      1 C1         -1.4960   -0.5990    0.9220 cp        1 0K0     -0.099500
      2 C2         -2.7210   -0.7330    0.2600 ca        1 0K0     -0.162000
      3 C3         -1.2590    0.5100    1.7410 ca        1 0K0     -0.121000
      4 C4         -3.7300    0.2410    0.4200 ca        1 0K0      0.159600
      5 C5         -2.2560    1.4680    1.9070 ca        1 0K0     -0.102000
      6 C6         -3.4860    1.3450    1.2680 ca        1 0K0     -0.175000
      7 C7         -0.4730   -1.6390    0.7520 cp        1 0K0      0.266500
      8 C8         -0.8610   -3.0160    0.7630 ca        1 0K0      0.372900
      9 N10         0.0000   -4.0210    0.6170 nb        1 0K0     -0.714000
     10 C11         1.7240   -2.2920    0.4270 ca        1 0K0      0.166500
     11 C12         1.3370   -3.6910    0.4500 ca        1 0K0      0.609900
     12 O14         3.8600   -2.5780   -0.6240 o         1 0K0     -0.637100
     13 C16         4.9990   -0.3450    0.6420 c3        1 0K0      0.081000
     14 C17         5.0320    1.1190    0.1770 c3        1 0K0     -0.085700
     15 C18         6.4750    1.6030    0.1830 c3        1 0K0     -0.113400
     16 C19         4.4200    1.2780   -1.2050 c3        1 0K0     -0.113400
     17 C21         4.5900    2.7110   -1.7110 c3        1 0K0      0.150800
     18 N22         5.9440    3.2290   -1.6640 n3        1 0K0     -0.797200
     19 O26        -7.1140    0.6190   -1.2820 o         1 0K0     -0.648800
     20 C27        -5.1500    2.0570   -1.9640 c3        1 0K0     -0.372300
     21 O28        -6.2330    2.1920    0.3010 o         1 0K0     -0.648800
     22 S25        -5.9900    1.2610   -0.7220 s6        1 0K0      1.470900
     23 N24        -4.9540    0.0930   -0.2550 nh        1 0K0     -0.782500
     24 N9          0.8240   -1.3000    0.5850 nb        1 0K0     -0.581000
     25 N23         2.2660   -4.7000    0.3840 nh        1 0K0     -0.933500
     26 C13         3.1600   -1.9160    0.1760 c         1 0K0      0.586600
     27 N15         3.6820   -0.8670    0.8970 n         1 0K0     -0.534900
     28 C20         6.5690    3.0250   -0.3720 c3        1 0K0      0.150800
     29 H1         -2.8880   -1.6030   -0.3940 ha        1 0K0      0.136000
     30 H2         -0.2930    0.6240    2.2540 ha        1 0K0      0.146000
     31 H3         -2.0760    2.3370    2.5590 ha        1 0K0      0.142000
     32 H4         -4.2640    2.1090    1.4410 ha        1 0K0      0.171000
     33 H5         -1.9210   -3.3010    0.9010 h4        1 0K0      0.037100
     34 H6          5.5110   -0.9890   -0.1300 h1        1 0K0      0.064200
     35 H7          5.5840   -0.4200    1.6050 h1        1 0K0      0.064200
     36 H8          4.4460    1.7540    0.9000 hc        1 0K0      0.050700
     37 H9          6.8760    1.5910    1.2290 hc        1 0K0      0.049450
     38 H10         7.1070    0.9100   -0.4310 hc        1 0K0      0.049450
     39 H11         4.9060    0.5600   -1.9170 hc        1 0K0      0.049450
     40 H12         3.3280    1.0330   -1.1720 hc        1 0K0      0.049450
     41 H13         4.2250    2.7730   -2.7740 h1        1 0K0      0.052700
     42 H14         3.9490    3.3940   -1.0850 h1        1 0K0      0.052700
     43 H15         6.4980    2.7910   -2.3790 hn        1 0K0      0.349800
     44 H17        -5.7110    2.9690   -2.2920 h1        1 0K0      0.119367
     45 H18        -4.1320    2.4120   -1.6700 h1        1 0K0      0.119367
     46 H19        -5.0160    1.4290   -2.8790 h1        1 0K0      0.119367
     47 H20        -5.1560   -0.8550   -0.4900 hn        1 0K0      0.457800
     48 H21         3.1660   -4.4760    0.0200 hn        1 0K0      0.448800
     49 H22         1.9490   -5.6360    0.2830 hn        1 0K0      0.448800
     50 H23         3.0650   -0.2800    1.4090 hn        1 0K0      0.321500
     51 H24         6.0730    3.7290    0.3550 h1        1 0K0      0.052700
     52 H25         7.6530    3.3180   -0.4510 h1        1 0K0      0.052700
@<TRIPOS>BOND
     1    1    2 ar  
     2    1    3 ar  
     3    1    7 1   
     4    2    4 ar  
     5    2   29 1   
     6    3    5 ar  
     7    3   30 1   
     8    4    6 ar  
     9    4   23 1   
    10    5    6 ar  
    11    5   31 1   
    12    6   32 1   
    13    7    8 ar  
    14    7   24 ar  
    15    8    9 ar  
    16    8   33 1   
    17    9   11 ar  
    18   10   11 ar  
    19   10   24 ar  
    20   10   26 1   
    21   11   25 1   
    22   12   26 2   
    23   13   14 1   
    24   13   27 1   
    25   13   34 1   
    26   13   35 1   
    27   14   15 1   
    28   14   16 1   
    29   14   36 1   
    30   15   28 1   
    31   15   37 1   
    32   15   38 1   
    33   16   17 1   
    34   16   39 1   
    35   16   40 1   
    36   17   18 1   
    37   17   41 1   
    38   17   42 1   
    39   18   28 1   
    40   18   43 1   
    41   19   22 2   
    42   20   22 1   
    43   20   44 1   
    44   20   45 1   
    45   20   46 1   
    46   21   22 2   
    47   22   23 1   
    48   23   47 1   
    49   25   48 1   
    50   25   49 1   
    51   26   27 1   
    52   27   50 1   
    53   28   51 1   
    54   28   52 1   
@<TRIPOS>SUBSTRUCTURE
     1 0K0         1 TEMP              0 ****  ****    0 ROOT
