@<TRIPOS>MOLECULE
0K0
   52    46     1     0     0
SMALL
bcc


@<TRIPOS>ATOM
      1 C1          2.6630   -1.7170   -0.0190 c1        1 0K0     -0.043500
      2 C2          3.1480   -0.5530    0.5690 c1        1 0K0     -0.165000
      3 C3          2.8610   -2.9450    0.6030 c1        1 0K0     -0.088500
      4 C4          3.8310   -0.6170    1.7790 c1        1 0K0      0.087000
      5 C5          3.5440   -3.0090    1.8120 c1        1 0K0     -0.098000
      6 C6          4.0290   -1.8440    2.4010 c2        1 0K0     -0.169000
      7 C7          1.9150   -1.6470   -1.3540 c1        1 0K0     -0.043500
      8 C8          2.6220   -1.6600   -2.5440 c1        1 0K0     -0.088500
      9 N10         1.9650   -1.6900   -3.7160 n1        1 0K0     -0.191000
     10 C11        -0.0910   -1.6930   -2.5400 c1        1 0K0     -0.184000
     11 C12         0.6180   -1.7060   -3.7330 c2        1 0K0      0.155000
     12 O14        -2.2310   -1.7310   -3.6190 o         1 0K0     -0.403000
     13 C16        -3.6120   -0.9170   -1.2290 c3        1 0K0     -0.037000
     14 C17        -3.3750    0.5210   -0.2110 c3        1 0K0     -0.127000
     15 C18        -3.6570    1.6270   -1.0440 c3        1 0K0     -0.187500
     16 C19        -4.0070    0.2510    0.9590 c3        1 0K0     -0.187500
     17 C21        -4.2860    1.5270    1.7550 c3        1 0K0     -0.083500
     18 N22        -3.3650    2.7890    1.2970 n3        1 0K0     -0.279000
     19 O26         2.5330    2.2170    1.6900 o         1 0K0     -0.535400
     20 C27         4.3760    3.2480    3.3280 c3        1 0K0     -0.951000
     21 O28         2.4460    1.4570    3.7740 o         1 0K0     -0.535400
     22 S25         3.4000    1.8510    2.7770 s4        1 0K0      2.041800
     23 N24         4.3940    0.5860    2.3560 n1        1 0K0     -0.828000
     24 N9          0.5640   -1.6640   -1.3710 n1        1 0K0     -0.050000
     25 N23         0.4060   -1.6250   -5.1300 n3        1 0K0     -0.330000
     26 C13        -1.6360   -1.6640   -2.5600 c1        1 0K0      0.368000
     27 N15        -2.3680   -1.6500   -1.3250 n2        1 0K0     -0.336000
     28 C20        -3.9330    2.8700   -0.2380 c3        1 0K0     -0.083500
     29 H1          3.0080    0.3080    0.1330 ha        1 0K0      0.171000
     30 H2          2.5210   -3.7640    0.1900 ha        1 0K0      0.156000
     31 H3          3.6830   -3.8720    2.2490 ha        1 0K0      0.138000
     32 H4          4.5070   -1.8880    3.2490 ha        1 0K0      0.137000
     33 H5          3.5990   -1.6480   -2.5320 ha        1 0K0      0.156000
     34 H6         -4.3000   -1.4910   -0.8290 h1        1 0K0      0.102000
     35 H7         -3.8980   -0.6400   -2.1240 h1        1 0K0      0.102000
     36 H8         -2.4210    0.5700   -0.0030 hc        1 0K0      0.095000
     37 H9         -2.8890    1.7900   -1.6300 hc        1 0K0      0.091000
     38 H10        -4.4440    1.4210   -1.5960 hc        1 0K0      0.091000
     39 H11        -4.8560   -0.1990    0.7680 hc        1 0K0      0.091000
     40 H12        -3.4450   -0.3430    1.4960 hc        1 0K0      0.091000
     41 H13        -4.1230    1.3480    2.7020 h1        1 0K0      0.086250
     42 H14        -5.2290    1.7690    1.6390 h1        1 0K0      0.086250
     43 H15        -3.6210    3.5350    1.7550 hn        1 0K0      0.149000
     44 H17         4.9280    2.9810    4.0940 h1        1 0K0      0.159333
     45 H18         4.9560    3.5500    2.5970 h1        1 0K0      0.159333
     46 H19         3.7770    3.9820    3.5950 h1        1 0K0      0.159333
     47 H20         5.3000    0.6680    2.4470 hn        1 0K0      0.254000
     48 H21        -0.4420   -1.6280   -5.4630 hn        1 0K0      0.244500
     49 H22         1.1200   -1.5760   -5.6980 hn        1 0K0      0.244500
     50 H23        -2.0680   -2.1330   -0.6130 hn        1 0K0      0.238000
     51 H24        -4.8990    3.0150   -0.2070 h1        1 0K0      0.086250
     52 H25        -3.5160    3.6320   -0.6860 h1        1 0K0      0.086250
@<TRIPOS>BOND
     1    1    3 1   
     2    1    7 1   
     3    2    4 1   
     4    2   29 1   
     5    3   30 1   
     6    4    6 1   
     7    5    6 1   
     8    5   31 1   
     9    6   32 1   
    10    7    8 1   
    11    8   33 1   
    12    9   11 1   
    13   10   11 1   
    14   10   24 1   
    15   11   25 1   
    16   12   26 1   
    17   13   14 1   
    18   13   27 1   
    19   13   34 1   
    20   13   35 1   
    21   14   15 1   
    22   14   16 1   
    23   14   36 1   
    24   15   28 1   
    25   15   37 1   
    26   15   38 1   
    27   16   17 1   
    28   16   39 1   
    29   16   40 1   
    30   17   18 1   
    31   17   41 1   
    32   17   42 1   
    33   18   28 1   
    34   18   43 1   
    35   19   22 1   
    36   20   22 1   
    37   20   44 1   
    38   20   45 1   
    39   20   46 1   
    40   21   22 1   
    41   23   47 1   
    42   25   48 1   
    43   25   49 1   
    44   27   50 1   
    45   28   51 1   
    46   28   52 1   
@<TRIPOS>SUBSTRUCTURE
     1 0K0         1 TEMP              0 ****  ****    0 ROOT
