@<TRIPOS>MOLECULE
0K0
   53    55     1     0     0
SMALL
bcc


@<TRIPOS>ATOM
      1 C1         -0.0980   -0.9540   -0.4720 cp        1 0K0     -0.140500
      2 C2          1.1210   -0.2920   -0.2960 ca        1 0K0     -0.170000
      3 C3         -0.5260   -1.9130    0.4490 ca        1 0K0     -0.130000
      4 C4          1.9350   -0.5780    0.8240 ca        1 0K0      0.197600
      5 C5          0.2760   -2.2030    1.5520 ca        1 0K0     -0.088000
      6 C6          1.4850   -1.5490    1.7530 ca        1 0K0     -0.163000
      7 C7         -0.9210   -0.6270   -1.6460 cp        1 0K0      0.341500
      8 C8         -0.2750   -0.5900   -2.9570 ca        1 0K0      0.421900
      9 N10        -0.9170   -0.3200   -4.0670 nb        1 0K0     -0.687000
     10 C11        -2.9320   -0.0740   -2.6780 ca        1 0K0      0.050500
     11 C12        -2.2990   -0.0480   -3.9810 ca        1 0K0      0.679900
     12 O14        -5.1690    0.4870   -3.4100 o         1 0K0     -0.497100
     13 C16        -6.3460    0.5370   -1.0350 c3        1 0K0      0.105800
     14 C17        -6.8680    0.5690    0.4040 c3        1 0K0     -0.088700
     15 C18        -8.3190    1.0380    0.3570 c3        1 0K0     -0.083400
     16 C19        -6.7680   -0.7960    1.0680 c3        1 0K0     -0.083400
     17 C21        -7.4500   -0.7830    2.4390 c3        1 0K0      0.167800
     18 N22        -8.8160   -0.3100    2.3720 n3        1 0K0     -0.825200
     19 O26         5.1060    1.0560    2.1030 o         1 0K0     -0.635800
     20 C27         5.2120   -1.4030    1.5340 c3        1 0K0     -0.380300
     21 O28         3.7510   -0.4860    3.3640 o         1 0K0     -0.635800
     22 S25         4.3140   -0.1030    2.1380 s6        1 0K0      1.469900
     23 N24         3.1460    0.0980    0.9910 nh        1 0K0     -0.770500
     24 N9         -2.2150   -0.3730   -1.5360 nb        1 0K0     -0.622000
     25 N23        -2.9550    0.2250   -5.1310 nh        1 0K0     -0.900500
     26 C13        -4.3480    0.2230   -2.5310 c         1 0K0      0.486600
     27 N15        -4.8930    0.2150   -1.1150 n4        1 0K0     -0.652800
     28 C20        -8.9450    0.9920    1.7520 c3        1 0K0      0.167800
     29 H1          1.4340    0.4680   -1.0290 ha        1 0K0      0.137000
     30 H2         -1.4800   -2.4410    0.3070 ha        1 0K0      0.138000
     31 H3         -0.0540   -2.9580    2.2840 ha        1 0K0      0.153000
     32 H4          2.0730   -1.7820    2.6590 ha        1 0K0      0.180000
     33 H5          0.8110   -0.8040   -3.0390 h4        1 0K0      0.070100
     34 H6         -6.9050   -0.2380   -1.6350 hx        1 0K0      0.111200
     35 H7         -6.5050    1.5410   -1.5250 hx        1 0K0      0.111200
     36 H8         -6.2750    1.3130    1.0070 hc        1 0K0      0.065700
     37 H9         -8.3690    2.0900   -0.0240 hc        1 0K0      0.054450
     38 H10        -8.9050    0.3840   -0.3410 hc        1 0K0      0.054450
     39 H11        -7.2510   -1.5710    0.4170 hc        1 0K0      0.054450
     40 H12        -5.6970   -1.0850    1.2240 hc        1 0K0      0.054450
     41 H13        -7.4740   -1.8360    2.8390 h1        1 0K0      0.044450
     42 H14        -6.8140   -0.1630    3.1390 h1        1 0K0      0.044450
     43 H15        -9.2390   -0.3150    3.2810 hn        1 0K0      0.388800
     44 H17         6.0380   -1.6700    2.2450 h1        1 0K0      0.125700
     45 H18         4.6220   -2.3410    1.3910 h1        1 0K0      0.125700
     46 H19         5.7140   -1.1900    0.5570 h1        1 0K0      0.125700
     47 H20         3.2760    0.8320    0.3260 hn        1 0K0      0.454800
     48 H21        -2.4710    0.2300   -6.0030 hn        1 0K0      0.476300
     49 H22        -3.9320    0.4180   -5.1290 hn        1 0K0      0.476300
     50 H23        -4.3590    0.8940   -0.5590 hn        1 0K0      0.465800
     51 H24       -10.0450    1.2160    1.6590 h1        1 0K0      0.044450
     52 H25        -8.4780    1.8120    2.3740 h1        1 0K0      0.044450
     53 H152       -4.7290   -0.7150   -0.7090 hn        1 0K0      0.465800
@<TRIPOS>BOND
     1    1    2 ar  
     2    1    3 ar  
     3    1    7 1   
     4    2    4 ar  
     5    2   29 1   
     6    3    5 ar  
     7    3   30 1   
     8    4    6 ar  
     9    4   23 1   
    10    5    6 ar  
    11    5   31 1   
    12    6   32 1   
    13    7    8 ar  
    14    7   24 ar  
    15    8    9 ar  
    16    8   33 1   
    17    9   11 ar  
    18   10   11 ar  
    19   10   24 ar  
    20   10   26 1   
    21   11   25 1   
    22   12   26 2   
    23   13   14 1   
    24   13   27 1   
    25   13   34 1   
    26   13   35 1   
    27   14   15 1   
    28   14   16 1   
    29   14   36 1   
    30   15   28 1   
    31   15   37 1   
    32   15   38 1   
    33   16   17 1   
    34   16   39 1   
    35   16   40 1   
    36   17   18 1   
    37   17   41 1   
    38   17   42 1   
    39   18   28 1   
    40   18   43 1   
    41   19   22 2   
    42   20   22 1   
    43   20   44 1   
    44   20   45 1   
    45   20   46 1   
    46   21   22 2   
    47   22   23 1   
    48   23   47 1   
    49   25   48 1   
    50   25   49 1   
    51   26   27 1   
    52   27   50 1   
    53   27   53 1   
    54   28   51 1   
    55   28   52 1   
@<TRIPOS>SUBSTRUCTURE
     1 0K0         1 TEMP              0 ****  ****    0 ROOT
