@<TRIPOS>MOLECULE
0K1
   61    61     1     0     0
SMALL
bcc


@<TRIPOS>ATOM
      1 C1         -0.0620    1.7730   -0.1780 c2        1 0K1     -0.046000
      2 C2          1.0600    0.8960    0.3440 c3        1 0K1     -0.100000
      3 C3         -0.3440    2.9980    0.3400 c2        1 0K1     -0.113000
      4 C4          2.1170    1.7700    0.9710 c2        1 0K1     -0.058000
      5 C5          0.3800    3.3890    1.5590 c2        1 0K1     -0.081000
      6 C6          1.5670    2.7960    1.6130 c1        1 0K1     -0.167000
      7 C7         -2.2750    0.0930   -3.3530 c2        1 0K1      0.158000
      8 C8         -2.9200    0.6020   -2.1560 c2        1 0K1     -0.196000
      9 N10        -2.2120    1.1460   -1.1430 n2        1 0K1     -0.056000
     10 C11        -0.2270    0.6860   -2.4340 c2        1 0K1     -0.021000
     11 C12        -0.8680    1.1920   -1.2580 c2        1 0K1     -0.107000
     12 C17         3.5590    1.5210    0.7720 c3        1 0K1     -0.046000
     13 C18         4.7280   -1.2580    2.4400 c1        1 0K1      0.085000
     14 C19         3.9050    1.2880   -0.6140 c1        1 0K1     -0.129000
     15 C23        -6.4880    1.5090   -1.1500 c3        1 0K1     -0.030000
     16 C24        -6.8860    1.0990    0.2830 c3        1 0K1     -0.088000
     17 C27        -5.7960   -4.5700   -1.1180 c1        1 0K1     -0.075000
     18 C30        -7.3720   -1.0760    1.4720 c2        1 0K1      0.070000
     19 C31        -9.1400    0.5380    1.1770 c2        1 0K1     -0.090000
     20 C32        -8.6360   -0.6840    1.7560 c2        1 0K1     -0.266000
     21 O15        -5.0300   -0.5010   -2.4460 o         1 0K1     -0.410000
     22 C14        -4.4110    0.4940   -2.0030 c2        1 0K1      0.374000
     23 N16        -5.0740    1.5440   -1.4080 n         1 0K1     -0.346000
     24 C29        -6.9870   -4.8940   -0.3620 c3        1 0K1     -0.280500
     25 O33        -6.7940   -2.2250    1.9540 oh        1 0K1     -0.256000
     26 C28        -4.9970   -3.4160   -0.7820 c3        1 0K1     -0.280500
     27 C25        -6.4560   -0.3380    0.5560 c3        1 0K1     -0.130000
     28 C26        -8.3420    1.3540    0.4690 c2        1 0K1     -0.192000
     29 N9         -0.8920    0.1510   -3.4540 n2        1 0K1     -0.185000
     30 N21         4.2000    1.1010   -1.7240 n1        1 0K1     -0.064000
     31 N20         5.1940   -2.2360    2.9060 n2        1 0K1     -0.324000
     32 C22         5.7470   -3.3940    3.4560 c3        1 0K1     -0.044000
     33 H1          1.5320    0.3200   -0.4950 hc        1 0K1      0.119500
     34 H2          0.6220    0.1530    1.0630 hc        1 0K1      0.119500
     35 H3         -1.1450    3.6420   -0.0410 ha        1 0K1      0.147000
     36 H4         -0.1060    3.9950    2.3270 ha        1 0K1      0.160000
     37 H5          0.8740    0.7290   -2.5440 h4        1 0K1      0.183000
     38 H6         -2.5140   -0.8230   -5.1670 hn        1 0K1      0.245000
     39 H7         -3.9430   -0.6460   -4.2600 hn        1 0K1      0.245000
     40 H8          3.8670    0.6140    1.3810 hc        1 0K1      0.146500
     41 H9          4.1560    2.4000    1.1500 hc        1 0K1      0.146500
     42 H10        -4.5470    2.2310   -0.9190 hn        1 0K1      0.238000
     43 H11        -6.8860    2.5470   -1.3440 h1        1 0K1      0.107000
     44 H12        -6.9740    0.7990   -1.8780 h1        1 0K1      0.107000
     45 H13        -7.2280   -4.2150    0.4990 hc        1 0K1      0.105667
     46 H14       -10.2040    0.7680    1.3380 ha        1 0K1      0.130000
     47 H15        -9.2970   -1.2640    2.4120 ha        1 0K1      0.133000
     48 H16        -5.1170   -2.6720   -1.6230 hc        1 0K1      0.105667
     49 H17        -7.8570   -4.8970   -1.0730 hc        1 0K1      0.105667
     50 H18        -6.8740   -5.9420    0.0270 hc        1 0K1      0.105667
     51 H19        -7.4460   -2.6900    2.4990 ho        1 0K1      0.218000
     52 H20        -5.2550   -2.8980    0.1810 hc        1 0K1      0.105667
     53 H21        -3.9160   -3.7120   -0.7600 hc        1 0K1      0.105667
     54 H22        -6.3990   -0.9200   -0.4100 hc        1 0K1      0.118500
     55 H23        -5.4210   -0.3410    0.9930 hc        1 0K1      0.118500
     56 H24        -6.3460    1.7720    1.0140 hc        1 0K1      0.096000
     57 H25        -8.7260    2.2840    0.0240 ha        1 0K1      0.126000
     58 H26         4.9460   -4.0020    3.9580 h1        1 0K1      0.096333
     59 H27         6.5300   -3.1230    4.2160 h1        1 0K1      0.096333
     60 H28         6.2230   -4.0140    2.6470 h1        1 0K1      0.096333
     61 N13        -2.9970   -0.3790   -4.4210 nh        1 0K1     -0.330000
@<TRIPOS>BOND
     1    1    2 1   
     2    1    3 1   
     3    1   11 1   
     4    2    4 1   
     5    2   33 1   
     6    2   34 1   
     7    3    5 1   
     8    3   35 1   
     9    4    6 1   
    10    4   12 1   
    11    5    6 1   
    12    5   36 1   
    13    7    8 1   
    14    7   29 1   
    15    7   61 1   
    16    8    9 1   
    17    8   22 1   
    18    9   11 1   
    19   10   11 1   
    20   10   29 1   
    21   10   37 1   
    22   12   14 1   
    23   12   40 1   
    24   12   41 1   
    25   13   31 1   
    26   14   30 1   
    27   15   16 1   
    28   15   23 1   
    29   15   43 1   
    30   15   44 1   
    31   16   27 1   
    32   16   28 1   
    33   16   56 1   
    34   17   24 1   
    35   17   26 1   
    36   18   20 1   
    37   18   25 1   
    38   18   27 1   
    39   19   20 1   
    40   19   28 1   
    41   19   46 1   
    42   20   47 1   
    43   21   22 1   
    44   22   23 1   
    45   23   42 1   
    46   24   45 1   
    47   24   49 1   
    48   24   50 1   
    49   25   51 1   
    50   26   48 1   
    51   26   52 1   
    52   26   53 1   
    53   27   54 1   
    54   27   55 1   
    55   28   57 1   
    56   31   32 1   
    57   32   58 1   
    58   32   59 1   
    59   32   60 1   
    60   38   61 1   
    61   39   61 1   
@<TRIPOS>SUBSTRUCTURE
     1 0K1         1 TEMP              0 ****  ****    0 ROOT
