@<TRIPOS>MOLECULE
0K1
   62    60     1     0     0
SMALL
bcc


@<TRIPOS>ATOM
      1 C1          0.6160   -0.3430    0.1830 c2        1 0K1      0.011000
      2 C2          1.6890   -1.1680    0.1750 c2        1 0K1     -0.124000
      3 C3          0.3670    0.5720    1.2780 c2        1 0K1     -0.448000
      4 C4          2.6410   -1.2040    1.2780 c2        1 0K1     -0.061000
      5 C5          0.8940    0.4710    2.4940 c1        1 0K1      0.214000
      6 C6          2.2600   -1.4290    2.5500 c2        1 0K1     -0.151000
      7 C7         -1.9710   -0.2620   -3.1800 c2        1 0K1      0.228000
      8 C8         -2.4980   -0.3370   -1.8290 c2        1 0K1     -0.259000
      9 N10        -1.6440   -0.3390   -0.7360 n2        1 0K1     -0.069000
     10 C11         0.1920   -0.3460   -2.3010 c2        1 0K1      0.026000
     11 C12        -0.3390   -0.3420   -0.9380 c2        1 0K1     -0.043000
     12 C17         4.0660   -1.0180    0.9110 c3        1 0K1     -0.178000
     13 C18         4.9840   -0.7490    2.1280 c1        1 0K1     -0.020000
     14 C19         4.3530    0.2340    0.0670 c2        1 0K1     -0.161000
     15 C23        -7.5840    2.3490   -1.5260 c1        1 0K1     -0.225500
     16 C24        -6.7620    3.2060   -1.6620 c1        1 0K1     -0.225500
     17 C27        -5.8090   -1.4840   -2.6550 c1        1 0K1      0.120000
     18 C30        -7.2010   -0.4070    2.1030 c2        1 0K1      0.001000
     19 C31        -9.9120   -1.2220   -1.7010 c1        1 0K1     -0.165000
     20 C32        -7.7750   -0.8360    3.2320 c2        1 0K1     -0.274000
     21 O15        -4.7990   -0.7150   -2.5880 os        1 0K1     -0.074000
     22 N16        -4.4240   -0.2160   -0.3010 n8        1 0K1     -0.248000
     23 C29       -10.1710   -2.0380   -2.6760 c2        1 0K1     -0.193000
     24 O33        -6.8540   -1.2600    1.0590 oh        1 0K1     -0.343000
     25 C28        -6.4400   -2.3400   -1.6700 c3        1 0K1     -0.337000
     26 C25        -6.8460    0.9980    1.7830 c3        1 0K1     -0.187000
     27 C26        -9.6850   -0.3900   -0.7300 c2        1 0K1     -0.193000
     28 N9         -0.5720   -0.3050   -3.3650 n2        1 0K1     -0.171000
     29 N21         5.2400    1.0120    0.6380 n2        1 0K1     -0.044000
     30 N20         5.6010    0.4200    1.8490 n3        1 0K1     -0.171000
     31 C22         6.5810    1.0530    2.7070 c3        1 0K1     -0.061000
     32 H1          1.8980   -1.8410   -0.6720 ha        1 0K1      0.144000
     33 H2         -0.2980    1.4340    1.0720 ha        1 0K1      0.185000
     34 H3          1.2340   -1.7280    2.8230 ha        1 0K1      0.153000
     35 H4          2.9860   -1.4240    3.3800 ha        1 0K1      0.153000
     36 H5          1.2880   -0.3810   -2.4670 h4        1 0K1      0.203000
     37 H6         -3.7150   -0.0800   -4.2470 hn        1 0K1      0.270500
     38 H7         -2.2910   -0.0660   -5.1910 hn        1 0K1      0.270500
     39 H8          4.4460   -1.9330    0.3760 hc        1 0K1      0.161000
     40 H9          3.8870    0.4500   -0.8960 h4        1 0K1      0.180000
     41 H10        -5.4080   -0.3190   -0.1260 hn        1 0K1      0.286000
     42 H11        -6.0460    3.9810   -1.7840 ha        1 0K1      0.225500
     43 H12        -8.3400    1.6080   -1.4170 ha        1 0K1      0.225500
     44 H13        -8.8290   -0.4930   -0.0440 ha        1 0K1      0.138500
     45 H14        -8.0150   -1.8910    3.4150 ha        1 0K1      0.141500
     46 H15        -8.0410   -0.1420    4.0390 ha        1 0K1      0.141500
     47 H16        -5.8310   -2.5420   -0.7520 hc        1 0K1      0.151333
     48 H17       -10.8000   -2.9320   -2.5410 ha        1 0K1      0.138500
     49 H18        -9.7930   -1.8790   -3.6970 ha        1 0K1      0.138500
     50 H19        -7.1230   -2.1590    1.2960 ho        1 0K1      0.234000
     51 H20        -7.4180   -1.8650   -1.3560 hc        1 0K1      0.151333
     52 H21        -6.6970   -3.3200   -2.1600 hc        1 0K1      0.151333
     53 H22        -7.1560    1.2560    0.7380 hc        1 0K1      0.097667
     54 H23        -5.7420    1.1470    1.8790 hc        1 0K1      0.097667
     55 H24       -10.3570    0.4560   -0.5190 ha        1 0K1      0.138500
     56 H25        -7.3610    1.6930    2.4910 hc        1 0K1      0.097667
     57 H26         6.7150    0.4060    3.6130 h1        1 0K1      0.106333
     58 H27         6.2230    2.0710    3.0140 h1        1 0K1      0.106333
     59 H28         7.5590    1.1550    2.1650 h1        1 0K1      0.106333
     60 N13        -2.7220   -0.1160   -4.2930 nv        1 0K1     -0.290000
     61 H162       -3.8450    0.0210    0.4820 hn        1 0K1      0.286000
     62 C14        -3.9070   -0.4250   -1.5050 c2        1 0K1      0.237000
@<TRIPOS>BOND
     1    1    2 1   
     2    1    3 1   
     3    1   11 1   
     4    2    4 1   
     5    2   32 1   
     6    3    5 1   
     7    3   33 1   
     8    4    6 1   
     9    4   12 1   
    10    6   34 1   
    11    6   35 1   
    12    7    8 1   
    13    7   28 1   
    14    7   60 1   
    15    8    9 1   
    16    8   62 1   
    17    9   11 1   
    18   10   11 1   
    19   10   28 1   
    20   10   36 1   
    21   12   13 1   
    22   12   14 1   
    23   12   39 1   
    24   13   30 1   
    25   14   29 1   
    26   14   40 1   
    27   15   16 1   
    28   15   43 1   
    29   16   42 1   
    30   17   21 1   
    31   17   25 1   
    32   18   20 1   
    33   18   24 1   
    34   18   26 1   
    35   19   23 1   
    36   19   27 1   
    37   20   45 1   
    38   20   46 1   
    39   21   62 1   
    40   22   41 1   
    41   22   61 1   
    42   22   62 1   
    43   23   48 1   
    44   23   49 1   
    45   24   50 1   
    46   25   47 1   
    47   25   51 1   
    48   25   52 1   
    49   26   53 1   
    50   26   54 1   
    51   26   56 1   
    52   27   44 1   
    53   27   55 1   
    54   29   30 1   
    55   30   31 1   
    56   31   57 1   
    57   31   58 1   
    58   31   59 1   
    59   37   60 1   
    60   38   60 1   
@<TRIPOS>SUBSTRUCTURE
     1 0K1         1 TEMP              0 ****  ****    0 ROOT
