@<TRIPOS>MOLECULE
0K1
   61    66     1     0     0
SMALL
bcc


@<TRIPOS>ATOM
      1 C1         -2.2940    0.0470    0.6330 cp        1 0K1     -0.125500
      2 C2         -3.5900   -0.1880    0.1600 ca        1 0K1     -0.117000
      3 C3         -1.8910    1.3520    0.9410 ca        1 0K1     -0.104000
      4 C4         -4.4940    0.8720    0.0010 ca        1 0K1      0.014000
      5 C5         -2.7870    2.4080    0.7840 ca        1 0K1     -0.129000
      6 C6         -4.0780    2.1750    0.3190 ca        1 0K1     -0.124000
      7 C7          0.2320   -3.2830    1.2140 ca        1 0K1      0.601900
      8 C8          0.7280   -2.0410    0.6510 ca        1 0K1      0.168500
      9 N10        -0.0730   -0.9710    0.4690 nb        1 0K1     -0.584000
     10 C11        -1.8700   -2.3130    1.3530 ca        1 0K1      0.367900
     11 C12        -1.3740   -1.0850    0.8120 cp        1 0K1      0.278500
     12 C17        -5.8250    0.6260   -0.4840 cc        1 0K1     -0.214300
     13 C18        -6.9500    1.4700   -0.4100 cd        1 0K1     -0.129300
     14 C19        -6.3140   -0.5600   -1.1650 cc        1 0K1      0.311200
     15 C23         4.1590   -0.5090   -0.0380 c3        1 0K1      0.099700
     16 C24         5.0690    0.1400    1.0360 c3        1 0K1     -0.072700
     17 C27         4.2010    0.3850   -1.3050 c3        1 0K1     -0.072700
     18 C30         4.6820    2.4070    0.0760 c3        1 0K1      0.148800
     19 C31         6.5600    1.0050   -0.7720 c3        1 0K1     -0.061700
     20 C32         6.1200    2.4290   -0.4600 c3        1 0K1     -0.099400
     21 O15         2.7380   -2.9180   -0.3190 o         1 0K1     -0.641100
     22 C14         2.1640   -1.9390    0.2090 c         1 0K1      0.591600
     23 N16         2.8210   -0.7560    0.4510 n         1 0K1     -0.533900
     24 C29         5.6350    0.4040   -1.8260 c3        1 0K1     -0.072400
     25 O33         4.2530    3.7130    0.4390 oh        1 0K1     -0.593800
     26 C28         3.7550    1.8040   -0.9880 c3        1 0K1     -0.082400
     27 C25         4.6230    1.5590    1.3530 c3        1 0K1     -0.082400
     28 C26         6.4960    0.1610    0.4960 c3        1 0K1     -0.072400
     29 N9         -1.1080   -3.3860    1.5520 nb        1 0K1     -0.713000
     30 N21        -7.6270   -0.4220   -1.4680 nd        1 0K1     -0.507800
     31 N20        -8.0080    0.7870   -1.0170 na        1 0K1      0.087400
     32 C22        -9.3450    1.3080   -1.1540 c3        1 0K1      0.040600
     33 H1         -3.9040   -1.2110   -0.0960 ha        1 0K1      0.135000
     34 H2         -0.8710    1.5460    1.3050 ha        1 0K1      0.143000
     35 H3         -2.4700    3.4330    1.0260 ha        1 0K1      0.134000
     36 H4         -4.7770    3.0160    0.1940 ha        1 0K1      0.129000
     37 H5         -2.9350   -2.4130    1.6350 h4        1 0K1      0.039100
     38 H6          0.6660   -5.2080    1.7480 hn        1 0K1      0.444300
     39 H7          1.9420   -4.3670    1.0090 hn        1 0K1      0.444300
     40 H8         -7.0670    2.4650    0.0190 h4        1 0K1      0.176000
     41 H9         -5.7520   -1.4550   -1.4290 h4        1 0K1      0.045100
     42 H10         4.6070   -1.5130   -0.3130 h1        1 0K1      0.089700
     43 H11         5.0370   -0.4760    1.9750 hc        1 0K1      0.064700
     44 H12         3.5270   -0.0510   -2.0910 hc        1 0K1      0.064700
     45 H13         7.6130    1.0160   -1.1610 hc        1 0K1      0.053700
     46 H14         6.1690    3.0590   -1.3840 hc        1 0K1      0.048200
     47 H15         6.7950    2.8870    0.3070 hc        1 0K1      0.048200
     48 H16         2.3060    0.0360    0.7580 hn        1 0K1      0.325500
     49 H17         5.9650   -0.6370   -2.0730 hc        1 0K1      0.047200
     50 H18         5.6830    1.0130   -2.7650 hc        1 0K1      0.047200
     51 H19         4.2930    4.2500   -0.3610 ho        1 0K1      0.399000
     52 H20         3.7960    2.4290   -1.9170 hc        1 0K1      0.052200
     53 H21         2.6990    1.8210   -0.6180 hc        1 0K1      0.052200
     54 H22         3.5840    1.5770    1.7670 hc        1 0K1      0.052200
     55 H23         5.2990    2.0100    2.1250 hc        1 0K1      0.052200
     56 H24         7.1810    0.5910    1.2720 hc        1 0K1      0.047200
     57 H25         6.8370   -0.8830    0.2760 hc        1 0K1      0.047200
     58 H26       -10.0820    0.6160   -0.6650 h1        1 0K1      0.058700
     59 H27        -9.3920    2.3140   -0.6620 h1        1 0K1      0.058700
     60 H28        -9.6090    1.4090   -2.2410 h1        1 0K1      0.058700
     61 N13         1.0720   -4.3370    1.4940 nh        1 0K1     -0.932500
@<TRIPOS>BOND
     1    1    2 ar  
     2    1    3 ar  
     3    1   11 1   
     4    2    4 ar  
     5    2   33 1   
     6    3    5 ar  
     7    3   34 1   
     8    4    6 ar  
     9    4   12 1   
    10    5    6 ar  
    11    5   35 1   
    12    6   36 1   
    13    7    8 ar  
    14    7   29 ar  
    15    7   61 1   
    16    8    9 ar  
    17    8   22 1   
    18    9   11 ar  
    19   10   11 ar  
    20   10   29 ar  
    21   10   37 1   
    22   12   13 2   
    23   12   14 1   
    24   13   31 1   
    25   13   40 1   
    26   14   30 2   
    27   14   41 1   
    28   15   16 1   
    29   15   17 1   
    30   15   23 1   
    31   15   42 1   
    32   16   27 1   
    33   16   28 1   
    34   16   43 1   
    35   17   24 1   
    36   17   26 1   
    37   17   44 1   
    38   18   20 1   
    39   18   25 1   
    40   18   26 1   
    41   18   27 1   
    42   19   20 1   
    43   19   24 1   
    44   19   28 1   
    45   19   45 1   
    46   20   46 1   
    47   20   47 1   
    48   21   22 2   
    49   22   23 1   
    50   23   48 1   
    51   24   49 1   
    52   24   50 1   
    53   25   51 1   
    54   26   52 1   
    55   26   53 1   
    56   27   54 1   
    57   27   55 1   
    58   28   56 1   
    59   28   57 1   
    60   30   31 1   
    61   31   32 1   
    62   32   58 1   
    63   32   59 1   
    64   32   60 1   
    65   38   61 1   
    66   39   61 1   
@<TRIPOS>SUBSTRUCTURE
     1 0K1         1 TEMP              0 ****  ****    0 ROOT
