@<TRIPOS>MOLECULE
0K1
   62    61     1     0     0
SMALL
bcc


@<TRIPOS>ATOM
      1 C1          0.1340    0.5670    0.0020 c2        1 0K1     -0.132000
      2 C2          1.3630    0.0410    0.2270 c2        1 0K1      0.003000
      3 C3         -0.4000    1.5770    0.9160 c2        1 0K1     -0.132000
      4 C4          2.1490    0.4490    1.3770 c2        1 0K1     -0.282000
      5 C5         -0.7340    1.3290    2.1890 c2        1 0K1     -0.153000
      6 C6          1.6160    1.1860    2.3700 c1        1 0K1      0.199000
      7 C7         -2.0290   -0.4800   -3.4800 c2        1 0K1      0.202000
      8 C8         -2.6950   -0.2200   -2.2270 c2        1 0K1     -0.277000
      9 N10        -1.9980    0.1390   -1.0940 n2        1 0K1     -0.069000
     10 C11         0.0080   -0.1210   -2.4130 c2        1 0K1      0.012000
     11 C12        -0.6710    0.1910   -1.1600 c2        1 0K1     -0.017000
     12 C17         3.5290    0.0400    1.4290 c2        1 0K1     -0.160000
     13 C18         4.3360   -0.1750    2.5720 c2        1 0K1     -0.123000
     14 C19         4.4090   -0.2360    0.3160 c2        1 0K1     -0.178000
     15 C23        -6.2930    0.4050   -1.1020 c3        1 0K1     -0.062000
     16 C24        -6.7610    1.0000    0.2210 c3        1 0K1     -0.180000
     17 C27        -4.4800   -2.5230   -2.8470 c2        1 0K1     -0.060000
     18 C30        -6.6360   -1.1610    1.4940 c2        1 0K1      0.011000
     19 C31       -10.7530    0.7460   -0.4790 c1        1 0K1     -0.153000
     20 C32        -7.6270   -1.6520    2.2480 c2        1 0K1     -0.288000
     21 O15        -4.8920   -1.1750   -2.8410 os        1 0K1     -0.199000
     22 N16        -4.8540    0.5090   -1.2980 n3        1 0K1     -0.162000
     23 C29       -11.3600   -0.4170   -1.0410 c3        1 0K1     -0.121000
     24 O33        -5.8420   -1.9470    0.6730 oh        1 0K1     -0.304000
     25 C28        -4.1160   -3.1850   -1.7500 c2        1 0K1     -0.207000
     26 C25        -6.2290    0.2740    1.4390 c3        1 0K1     -0.124000
     27 C26       -10.2540    1.7260   -0.0050 c1        1 0K1     -0.245000
     28 N9         -0.6270   -0.4360   -3.5220 n2        1 0K1     -0.160000
     29 N21         5.6390   -0.5870    0.7810 n2        1 0K1     -0.091000
     30 N20         5.5880   -0.5500    2.1070 na        1 0K1     -0.172000
     31 C22         7.9170   -1.1300    3.4470 c1        1 0K1     -0.025000
     32 H1          1.8160   -0.7140   -0.4360 ha        1 0K1      0.143000
     33 H2         -0.4790    2.5920    0.4890 ha        1 0K1      0.141000
     34 H3         -0.7130    0.3230    2.6340 ha        1 0K1      0.134500
     35 H4         -1.0750    2.1290    2.8620 ha        1 0K1      0.134500
     36 H5          1.1150   -0.0890   -2.4670 h4        1 0K1      0.204000
     37 H6         -3.6860   -0.7280   -4.6570 hn        1 0K1      0.260000
     38 H7         -2.1970   -0.8750   -5.4880 hn        1 0K1      0.260000
     39 H8          4.0990   -0.0890    3.6310 h4        1 0K1      0.177000
     40 H9          4.1860   -0.1770   -0.7480 h4        1 0K1      0.166000
     41 H10        -4.6270   -2.9160   -3.8660 h4        1 0K1      0.190000
     42 H11        -6.4730    2.0830    0.2870 hc        1 0K1      0.119500
     43 H12        -6.7930    0.9450   -1.9570 h1        1 0K1      0.136500
     44 H13       -10.9130   -1.3480   -0.6050 hc        1 0K1      0.099667
     45 H14        -7.8760   -2.7200    2.2760 ha        1 0K1      0.138000
     46 H15        -8.2410   -1.0050    2.8860 ha        1 0K1      0.138000
     47 H16        -6.5810   -0.6880   -1.1490 h1        1 0K1      0.136500
     48 H17       -12.4610   -0.4210   -0.8270 hc        1 0K1      0.099667
     49 H18       -11.2180   -0.4390   -2.1520 hc        1 0K1      0.099667
     50 H19        -6.0620   -2.8750    0.8400 ho        1 0K1      0.225000
     51 H20        -3.8830   -4.2590   -1.7950 ha        1 0K1      0.160000
     52 H21        -4.0250   -2.7140   -0.7600 ha        1 0K1      0.160000
     53 H22        -6.6180    0.7890    2.3590 hc        1 0K1      0.110000
     54 H23        -5.1070    0.3340    1.4700 hc        1 0K1      0.110000
     55 H24        -7.8880    0.9540    0.2110 hc        1 0K1      0.119500
     56 H25        -9.8470    2.6070    0.4200 ha        1 0K1      0.222000
     57 H26         8.6660   -0.3610    3.6730 ha        1 0K1      0.060500
     58 H27         6.4440   -0.7730    2.6820 hn        1 0K1      0.334000
     59 H28         8.2550   -2.1560    3.6370 ha        1 0K1      0.060500
     60 N13        -2.6950   -0.7440   -4.6360 nh        1 0K1     -0.329000
     61 H162       -4.3700    1.2090   -0.7600 hn        1 0K1      0.287000
     62 C14        -4.1480   -0.2990   -2.0790 c2        1 0K1      0.351000
@<TRIPOS>BOND
     1    1    2 1   
     2    1    3 1   
     3    1   11 1   
     4    2    4 1   
     5    2   32 1   
     6    3    5 1   
     7    3   33 1   
     8    4    6 1   
     9    4   12 1   
    10    5   34 1   
    11    5   35 1   
    12    7    8 1   
    13    7   28 1   
    14    7   60 1   
    15    8    9 1   
    16    8   62 1   
    17    9   11 1   
    18   10   11 1   
    19   10   28 1   
    20   10   36 1   
    21   12   13 1   
    22   12   14 1   
    23   13   30 1   
    24   13   39 1   
    25   14   29 1   
    26   14   40 1   
    27   15   16 1   
    28   15   22 1   
    29   15   43 1   
    30   15   47 1   
    31   16   26 1   
    32   16   42 1   
    33   16   55 1   
    34   17   21 1   
    35   17   25 1   
    36   17   41 1   
    37   18   20 1   
    38   18   24 1   
    39   18   26 1   
    40   19   23 1   
    41   19   27 1   
    42   20   45 1   
    43   20   46 1   
    44   21   62 1   
    45   22   61 1   
    46   22   62 1   
    47   23   44 1   
    48   23   48 1   
    49   23   49 1   
    50   24   50 1   
    51   25   51 1   
    52   25   52 1   
    53   26   53 1   
    54   26   54 1   
    55   27   56 1   
    56   29   30 1   
    57   30   58 1   
    58   31   57 1   
    59   31   59 1   
    60   37   60 1   
    61   38   60 1   
@<TRIPOS>SUBSTRUCTURE
     1 0K1         1 TEMP              0 ****  ****    0 ROOT
