@<TRIPOS>MOLECULE
0K2
   21    20     1     0     0
SMALL
bcc


@<TRIPOS>ATOM
      1 O20         0.1600    0.0970    0.4960 o         1 0K2     -0.958167
      2 P17         1.6230    0.1530    0.1540 p5        1 0K2      1.459900
      3 O18         2.4800    0.8110    1.1990 o         1 0K2     -0.958167
      4 O19         2.1870   -1.1230   -0.4090 o         1 0K2     -0.958167
      5 O16         1.7060    1.2680   -1.2480 os        1 0K2     -0.799800
      6 P13         1.8180    2.1720   -2.5000 p5        1 0K2      1.576800
      7 O15         0.8840    1.8810   -3.6270 o         1 0K2     -0.933500
      8 O14         3.1930    2.5980   -2.9040 o         1 0K2     -0.933500
      9 O29         1.2090    3.6960   -1.9490 os        1 0K2     -0.555200
     10 C28         1.2410    4.6730   -2.9060 c3        1 0K2      0.255400
     11 C27         2.3690    5.6880   -2.6410 c3        1 0K2     -0.137400
     12 C30         2.4760    6.6850   -3.7750 c3        1 0K2     -0.188400
     13 C13         3.7200    7.4980   -3.6790 c         1 0K2      0.579900
     14 O33         3.8100    8.6830   -4.0340 o         1 0K2     -0.632100
     15 H4          1.3830    4.2300   -3.9340 h1        1 0K2     -0.022300
     16 H5          0.2640    5.2470   -2.8980 h1        1 0K2     -0.022300
     17 H6          3.3250    5.1070   -2.5360 hc        1 0K2      0.058700
     18 H7          2.1750    6.2200   -1.6770 hc        1 0K2      0.058700
     19 H8          2.5180    6.1180   -4.7480 hc        1 0K2      0.056700
     20 H9          1.5730    7.3480   -3.8110 hc        1 0K2      0.056700
     21 H10         4.6080    6.9650   -3.2650 h4        1 0K2     -0.002800
@<TRIPOS>BOND
     1    1    2 1   
     2    2    3 1   
     3    2    4 1   
     4    2    5 1   
     5    5    6 1   
     6    6    7 1   
     7    6    8 1   
     8    6    9 1   
     9    9   10 1   
    10   10   11 1   
    11   10   15 1   
    12   10   16 1   
    13   11   12 1   
    14   11   17 1   
    15   11   18 1   
    16   12   13 1   
    17   12   19 1   
    18   12   20 1   
    19   13   14 2   
    20   13   21 1   
@<TRIPOS>SUBSTRUCTURE
     1 0K2         1 TEMP              0 ****  ****    0 ROOT
