@<TRIPOS>MOLECULE
0K2
   21    20     1     0     0
SMALL
bcc


@<TRIPOS>ATOM
      1 O20         0.2060   -0.2280    0.5610 o         1 0K2     -0.958167
      2 P17         1.6030    0.1640    0.1650 p5        1 0K2      1.459900
      3 O18         2.3920    0.8540    1.2430 o         1 0K2     -0.958167
      4 O19         2.3650   -0.8960   -0.5810 o         1 0K2     -0.958167
      5 O16         1.3160    1.4440   -1.0580 os        1 0K2     -0.799800
      6 P13         0.9880    2.5460   -2.0950 p5        1 0K2      1.576800
      7 O15         0.4490    3.8350   -1.5630 o         1 0K2     -0.933500
      8 O14         0.4030    2.0970   -3.3930 o         1 0K2     -0.933500
      9 O29         2.5500    3.0910   -2.6070 os        1 0K2     -0.555200
     10 C28         2.4980    4.1050   -3.5230 c3        1 0K2      0.255400
     11 C27         2.8790    5.4580   -2.8910 c3        1 0K2     -0.137400
     12 C30         2.6910    6.5880   -3.8800 c3        1 0K2     -0.188400
     13 C13         2.7850    7.9200   -3.2200 c         1 0K2      0.579900
     14 O33         3.2510    8.9360   -3.7580 o         1 0K2     -0.632100
     15 H4          3.2390    3.9050   -4.3570 h1        1 0K2     -0.022300
     16 H5          1.4690    4.1920   -3.9770 h1        1 0K2     -0.022300
     17 H6          2.2180    5.6050   -1.9930 hc        1 0K2      0.058700
     18 H7          3.9400    5.4230   -2.5420 hc        1 0K2      0.058700
     19 H8          1.6600    6.5060   -4.3260 hc        1 0K2      0.056700
     20 H9          3.4290    6.5110   -4.7190 hc        1 0K2      0.056700
     21 H10         2.3920    7.9650   -2.1770 h4        1 0K2     -0.002800
@<TRIPOS>BOND
     1    1    2 1   
     2    2    3 1   
     3    2    4 1   
     4    2    5 1   
     5    5    6 1   
     6    6    7 1   
     7    6    8 1   
     8    6    9 1   
     9    9   10 1   
    10   10   11 1   
    11   10   15 1   
    12   10   16 1   
    13   11   12 1   
    14   11   17 1   
    15   11   18 1   
    16   12   13 1   
    17   12   19 1   
    18   12   20 1   
    19   13   14 2   
    20   13   21 1   
@<TRIPOS>SUBSTRUCTURE
     1 0K2         1 TEMP              0 ****  ****    0 ROOT
