@<TRIPOS>MOLECULE
0K2
   21    20     1     0     0
SMALL
bcc


@<TRIPOS>ATOM
      1 O20        -3.6160   -0.3330    1.3020 o         1 0K2     -0.958167
      2 P17        -3.1190   -0.6690   -0.0770 p5        1 0K2      1.459900
      3 O18        -2.8370   -2.1290   -0.2970 o         1 0K2     -0.958167
      4 O19        -3.8670    0.0030   -1.1960 o         1 0K2     -0.958167
      5 O16        -1.5060    0.1090   -0.1650 os        1 0K2     -0.799800
      6 P13        -0.1370    0.8180   -0.3110 p5        1 0K2      1.576800
      7 O15        -0.0770    2.2560    0.0840 o         1 0K2     -0.933500
      8 O14         0.6920    0.4470   -1.4990 o         1 0K2     -0.933500
      9 O29         0.8240    0.0920    0.9320 os        1 0K2     -0.555200
     10 C28         2.1090    0.5600    0.9700 c3        1 0K2      0.255400
     11 C27         3.1040   -0.4730    0.4080 c3        1 0K2     -0.137400
     12 C30         4.5000    0.1080    0.3340 c3        1 0K2     -0.188400
     13 C13         5.4180   -0.7610   -0.4530 c         1 0K2      0.579900
     14 O33         6.6280   -0.8970   -0.2160 o         1 0K2     -0.632100
     15 H4          2.2090    1.5200    0.3850 h1        1 0K2     -0.022300
     16 H5          2.4100    0.7650    2.0430 h1        1 0K2     -0.022300
     17 H6          3.0990   -1.3870    1.0510 hc        1 0K2      0.058700
     18 H7          2.7430   -0.7620   -0.6170 hc        1 0K2      0.058700
     19 H8          4.4480    1.1030   -0.1900 hc        1 0K2      0.056700
     20 H9          4.9120    0.2890    1.3600 hc        1 0K2      0.056700
     21 H10         4.9490   -1.3010   -1.3090 h4        1 0K2     -0.002800
@<TRIPOS>BOND
     1    1    2 1   
     2    2    3 1   
     3    2    4 1   
     4    2    5 1   
     5    5    6 1   
     6    6    7 1   
     7    6    8 1   
     8    6    9 1   
     9    9   10 1   
    10   10   11 1   
    11   10   15 1   
    12   10   16 1   
    13   11   12 1   
    14   11   17 1   
    15   11   18 1   
    16   12   13 1   
    17   12   19 1   
    18   12   20 1   
    19   13   14 2   
    20   13   21 1   
@<TRIPOS>SUBSTRUCTURE
     1 0K2         1 TEMP              0 ****  ****    0 ROOT
