@<TRIPOS>MOLECULE
0K2
   21    20     1     0     0
SMALL
bcc


@<TRIPOS>ATOM
      1 O20         0.3090   -0.2210    0.6370 o         1 0K2     -0.958167
      2 P17         1.6860    0.1440    0.1520 p5        1 0K2      1.459900
      3 O18         2.5620    0.8020    1.1810 o         1 0K2     -0.958167
      4 O19         2.3710   -0.9230   -0.6560 o         1 0K2     -0.958167
      5 O16         1.3480    1.4460   -1.0350 os        1 0K2     -0.799800
      6 P13         0.9770    2.5680   -2.0350 p5        1 0K2      1.576800
      7 O15         0.5050    3.8620   -1.4540 o         1 0K2     -0.933500
      8 O14         0.2950    2.1490   -3.2950 o         1 0K2     -0.933500
      9 O29         2.5130    3.0840   -2.6450 os        1 0K2     -0.555200
     10 C28         2.4240    4.1110   -3.5450 c3        1 0K2      0.255400
     11 C27         2.8770    5.4470   -2.9250 c3        1 0K2     -0.137400
     12 C30         2.6490    6.5920   -3.8880 c3        1 0K2     -0.188400
     13 C13         2.8180    7.9140   -3.2220 c         1 0K2      0.579900
     14 O33         3.2700    8.9250   -3.7790 o         1 0K2     -0.632100
     15 H4          3.1020    3.9040   -4.4280 h1        1 0K2     -0.022300
     16 H5          1.3690    4.2260   -3.9280 h1        1 0K2     -0.022300
     17 H6          3.9580    5.3840   -2.6490 hc        1 0K2      0.058700
     18 H7          2.2810    5.5980   -1.9840 hc        1 0K2      0.058700
     19 H8          3.3270    6.5090   -4.7760 hc        1 0K2      0.056700
     20 H9          1.5890    6.5390   -4.2650 hc        1 0K2      0.056700
     21 H10         2.4960    7.9560   -2.1550 h4        1 0K2     -0.002800
@<TRIPOS>BOND
     1    1    2 1   
     2    2    3 1   
     3    2    4 1   
     4    2    5 1   
     5    5    6 1   
     6    6    7 1   
     7    6    8 1   
     8    6    9 1   
     9    9   10 1   
    10   10   11 1   
    11   10   15 1   
    12   10   16 1   
    13   11   12 1   
    14   11   17 1   
    15   11   18 1   
    16   12   13 1   
    17   12   19 1   
    18   12   20 1   
    19   13   14 2   
    20   13   21 1   
@<TRIPOS>SUBSTRUCTURE
     1 0K2         1 TEMP              0 ****  ****    0 ROOT
