@<TRIPOS>MOLECULE
0K2
   21    18     1     0     0
SMALL
bcc


@<TRIPOS>ATOM
      1 O20        -2.3890    4.4680    1.1130 o         1 0K2     -1.265000
      2 P17        -0.8790    4.4680    1.1130 p3        1 0K2      2.667500
      3 O18        -0.3760    4.4680    2.5370 os        1 0K2     -1.279000
      4 O19        -0.3760    5.7010    0.4020 o         1 0K2     -1.265000
      5 O16        -0.3520    3.1770    0.3680 os        1 0K2     -1.267000
      6 P13        -0.5880    1.7050    0.8940 p3        1 0K2      2.667500
      7 O15         0.1700    1.5040    2.1850 o         1 0K2     -1.265000
      8 O14        -2.0620    1.4870    1.1360 o         1 0K2     -1.265000
      9 O29        -0.0730    0.6720   -0.1860 o         1 0K2     -0.717000
     10 C28         0.0660   -0.6790    0.1910 c3        1 0K2      0.105000
     11 C27         0.4060   -1.5090   -1.0270 c3        1 0K2     -0.216000
     12 C30         0.7670   -2.9130   -0.5960 c3        1 0K2     -0.217000
     13 C13         0.9610   -3.7830   -1.8180 c2        1 0K2      0.198000
     14 O33         2.0770   -3.9590   -2.2690 o         1 0K2     -0.393000
     15 H4          0.7810   -0.7610    0.8500 h1        1 0K2      0.017000
     16 H5         -0.7710   -0.9960    0.5780 h1        1 0K2      0.017000
     17 H6         -0.3650   -1.5400   -1.6250 hc        1 0K2      0.098000
     18 H7          1.1640   -1.1070   -1.4940 hc        1 0K2      0.098000
     19 H8          0.0480   -3.2800   -0.0460 hc        1 0K2      0.096000
     20 H9          1.5940   -2.8920   -0.0770 hc        1 0K2      0.096000
     21 H10         0.1940   -4.2290   -2.2260 h4        1 0K2      0.090000
@<TRIPOS>BOND
     1    1    2 1   
     2    2    4 1   
     3    2    5 1   
     4    5    6 1   
     5    6    7 1   
     6    6    8 1   
     7    9   10 1   
     8   10   11 1   
     9   10   15 1   
    10   10   16 1   
    11   11   12 1   
    12   11   17 1   
    13   11   18 1   
    14   12   13 1   
    15   12   19 1   
    16   12   20 1   
    17   13   14 1   
    18   13   21 1   
@<TRIPOS>SUBSTRUCTURE
     1 0K2         1 TEMP              0 ****  ****    0 ROOT
