@<TRIPOS>MOLECULE
0K3
  110   109     1     0     0
SMALL
bcc


@<TRIPOS>ATOM
      1 O2          0.3370    1.4980   -0.9870 o         1 0K3     -0.927500
      2 P           1.3640    1.6780    0.1120 p5        1 0K3      1.335900
      3 O           0.8620    2.5760    1.2110 o         1 0K3     -0.927500
      4 O1          2.1490    0.4600    0.4860 o         1 0K3     -0.927500
      5 O3          2.5580    2.6740   -0.6470 os        1 0K3     -0.565200
      6 C           2.6710    2.5310   -2.0070 c3        1 0K3      0.233600
      7 C1          2.4700    3.8480   -2.7020 c2        1 0K3     -0.108200
      8 C2          1.8400    4.0410   -3.8710 c2        1 0K3     -0.217400
      9 C3          1.7160    5.3910   -4.4740 c3        1 0K3     -0.027900
     10 C4          1.1710    2.9480   -4.6340 c3        1 0K3     -0.003200
     11 C5         -0.1800    2.6070   -4.0290 c3        1 0K3     -0.093200
     12 C6         -0.9080    1.6040   -4.8350 c2        1 0K3     -0.150200
     13 C7         -1.7730    0.7010   -4.3470 c2        1 0K3     -0.132400
     14 C8         -2.4650   -0.2560   -5.2490 c3        1 0K3     -0.044900
     15 C9         -2.0980    0.5550   -2.9010 c3        1 0K3     -0.079200
     16 C10        -3.2230    1.4910   -2.4840 c3        1 0K3     -0.010200
     17 C11        -3.7060    1.1550   -1.1250 c2        1 0K3     -0.222200
     18 C12        -3.2940    1.7080    0.0290 c2        1 0K3     -0.059400
     19 C13        -3.8250    1.1870    1.3180 c3        1 0K3     -0.056900
     20 C14        -2.2740    2.7830    0.1150 c3        1 0K3     -0.092200
     21 C15        -2.4230    3.6580    1.3460 c3        1 0K3     -0.034200
     22 C16        -1.3450    4.6720    1.4090 c2        1 0K3     -0.095200
     23 C17        -1.5160    5.9890    1.6080 c2        1 0K3     -0.241400
     24 C39        -0.3460    6.8990    1.6910 c3        1 0K3     -0.029900
     25 C18        -2.8400    6.6570    1.7480 c3        1 0K3     -0.014200
     26 C19        -3.3780    6.5350    3.1650 c3        1 0K3     -0.060200
     27 C20        -4.6900    7.2000    3.3290 c2        1 0K3     -0.121200
     28 C21        -5.2890    7.4410    4.5060 c2        1 0K3     -0.179400
     29 C22        -6.6220    8.0880    4.5820 c3        1 0K3     -0.046900
     30 C23        -4.6910    7.0590    5.8160 c3        1 0K3     -0.032200
     31 C24        -3.8590    8.1880    6.4020 c3        1 0K3     -0.049200
     32 C25        -3.3380    7.8530    7.7470 c2        1 0K3     -0.144200
     33 C26        -2.6940    8.7130    8.5520 c2        1 0K3     -0.148400
     34 C27        -2.1830    8.2980    9.8810 c3        1 0K3     -0.050900
     35 C28        -2.4160   10.1280    8.1770 c3        1 0K3     -0.034200
     36 C29        -3.5070   11.0650    8.6720 c3        1 0K3     -0.044200
     37 C30        -3.2090   12.4730    8.3180 c2        1 0K3     -0.168200
     38 C31        -3.6460   13.1090    7.2210 c2        1 0K3     -0.120400
     39 C32        -3.2960   14.5280    6.9570 c3        1 0K3     -0.056900
     40 C33        -4.4860   12.4600    6.1740 c3        1 0K3     -0.046200
     41 C34        -5.9680   12.6410    6.4520 c3        1 0K3     -0.041200
     42 C35        -6.8030   11.8850    5.4900 c2        1 0K3     -0.169200
     43 C36        -8.1020   12.1370    5.2630 c2        1 0K3     -0.134400
     44 C38        -8.8310   13.2360    5.9410 c3        1 0K3     -0.055900
     45 C37        -8.8920   11.3240    4.3060 c3        1 0K3     -0.055900
     46 H3          1.9540    1.7530   -2.3980 h1        1 0K3      0.007700
     47 H4          3.7290    2.2090   -2.2730 h1        1 0K3      0.007700
     48 H5          2.8850    4.7080   -2.1480 ha        1 0K3      0.102000
     49 H6          2.1740    6.1760   -3.8240 hc        1 0K3      0.009033
     50 H7          0.6370    5.6470   -4.6260 hc        1 0K3      0.009033
     51 H8          2.2210    5.4250   -5.4720 hc        1 0K3      0.009033
     52 H9          1.8160    2.0290   -4.6290 hc        1 0K3      0.012200
     53 H10         1.0450    3.2560   -5.7080 hc        1 0K3      0.012200
     54 H11        -0.0270    2.2440   -2.9590 hc        1 0K3      0.104200
     55 H12        -0.8050    3.5400   -3.9650 hc        1 0K3      0.104200
     56 H13        -0.7020    1.6300   -5.9200 ha        1 0K3      0.074000
     57 H14        -3.5720   -0.1950   -5.0940 hc        1 0K3      0.015700
     58 H15        -2.1400   -1.3020   -5.0200 hc        1 0K3      0.015700
     59 H16        -2.2490   -0.0500   -6.3260 hc        1 0K3      0.015700
     60 H17        -2.4040   -0.5050   -2.6960 hc        1 0K3      0.099700
     61 H18        -1.1860    0.7730   -2.2520 hc        1 0K3      0.099700
     62 H19        -4.0780    1.4050   -3.2090 hc        1 0K3      0.020200
     63 H20        -2.8460    2.5470   -2.5360 hc        1 0K3      0.020200
     64 H21        -4.4360    0.3290   -1.1010 ha        1 0K3      0.078000
     65 H22        -4.5000    0.3090    1.1660 hc        1 0K3      0.026700
     66 H23        -2.9720    0.8680    1.9680 hc        1 0K3      0.026700
     67 H24        -4.4030    1.9810    1.8530 hc        1 0K3      0.026700
     68 H25        -1.2190    2.3120    0.0950 hc        1 0K3      0.121700
     69 H26        -2.3200    3.4340   -0.7980 hc        1 0K3      0.121700
     70 H27        -3.4460    4.1220    1.3700 hc        1 0K3      0.017200
     71 H28        -2.3220    3.0230    2.2710 hc        1 0K3      0.017200
     72 H29        -0.3210    4.2180    1.3010 ha        1 0K3      0.255000
     73 H30        -0.3560    7.4580    2.6610 hc        1 0K3      0.021700
     74 H31         0.6120    6.3250    1.6180 hc        1 0K3      0.021700
     75 H32        -0.3730    7.6490    0.8610 hc        1 0K3      0.021700
     76 H33        -3.5790    6.2070    1.0320 hc        1 0K3      0.024700
     77 H34        -2.7500    7.7450    1.4840 hc        1 0K3      0.024700
     78 H35        -2.6300    6.9710    3.8820 hc        1 0K3      0.058200
     79 H36        -3.4780    5.4430    3.4200 hc        1 0K3      0.058200
     80 H37        -5.1910    7.4940    2.3890 ha        1 0K3      0.115000
     81 H38        -6.6090    8.9210    5.3300 hc        1 0K3      0.027700
     82 H39        -6.9340    8.5070    3.5940 hc        1 0K3      0.027700
     83 H40        -7.3920    7.3440    4.9070 hc        1 0K3      0.027700
     84 H41        -5.5100    6.7890    6.5360 hc        1 0K3      0.045700
     85 H42        -4.0430    6.1500    5.6900 hc        1 0K3      0.045700
     86 H43        -2.9980    8.4050    5.7100 hc        1 0K3      0.052200
     87 H44        -4.4810    9.1230    6.4550 hc        1 0K3      0.052200
     88 H45        -3.4940    6.8090    8.0710 ha        1 0K3      0.123000
     89 H46        -2.5220    7.2680   10.1490 hc        1 0K3      0.034367
     90 H47        -1.0640    8.3100    9.8810 hc        1 0K3      0.034367
     91 H48        -2.5390    9.0060   10.6700 hc        1 0K3      0.034367
     92 H49        -1.4300   10.4440    8.6130 hc        1 0K3      0.048700
     93 H50        -2.3300   10.2210    7.0600 hc        1 0K3      0.048700
     94 H51        -3.5920   10.9750    9.7890 hc        1 0K3      0.045200
     95 H52        -4.4930   10.7460    8.2400 hc        1 0K3      0.045200
     96 H53        -2.5630   13.0030    9.0390 ha        1 0K3      0.111000
     97 H54        -2.7680   14.9920    7.8250 hc        1 0K3      0.036700
     98 H55        -4.2230   15.1180    6.7480 hc        1 0K3      0.036700
     99 H56        -2.6300   14.5960    6.0610 hc        1 0K3      0.036700
    100 H57        -4.2420   12.9010    5.1700 hc        1 0K3      0.055700
    101 H58        -4.2450   11.3630    6.1160 hc        1 0K3      0.055700
    102 H59        -6.1990   12.2820    7.4930 hc        1 0K3      0.045200
    103 H60        -6.2240   13.7350    6.4190 hc        1 0K3      0.045200
    104 H61        -6.2950   11.0600    4.9600 ha        1 0K3      0.137000
    105 H62        -8.4540   14.2280    5.5840 hc        1 0K3      0.037700
    106 H63        -8.6740   13.1860    7.0480 hc        1 0K3      0.037700
    107 H64        -9.9280   13.1830    5.7360 hc        1 0K3      0.037700
    108 H65        -8.2970   10.4620    3.9130 hc        1 0K3      0.037700
    109 H66        -9.8070   10.9200    4.8060 hc        1 0K3      0.037700
    110 H67        -9.2160   11.9570    3.4420 hc        1 0K3      0.037700
@<TRIPOS>BOND
     1    1    2 1   
     2    2    3 1   
     3    2    4 1   
     4    2    5 1   
     5    5    6 1   
     6    6    7 1   
     7    6   46 1   
     8    6   47 1   
     9    7    8 2   
    10    7   48 1   
    11    8    9 1   
    12    8   10 1   
    13    9   49 1   
    14    9   50 1   
    15    9   51 1   
    16   10   11 1   
    17   10   52 1   
    18   10   53 1   
    19   11   12 1   
    20   11   54 1   
    21   11   55 1   
    22   12   13 2   
    23   12   56 1   
    24   13   14 1   
    25   13   15 1   
    26   14   57 1   
    27   14   58 1   
    28   14   59 1   
    29   15   16 1   
    30   15   60 1   
    31   15   61 1   
    32   16   17 1   
    33   16   62 1   
    34   16   63 1   
    35   17   18 2   
    36   17   64 1   
    37   18   19 1   
    38   18   20 1   
    39   19   65 1   
    40   19   66 1   
    41   19   67 1   
    42   20   21 1   
    43   20   68 1   
    44   20   69 1   
    45   21   22 1   
    46   21   70 1   
    47   21   71 1   
    48   22   23 2   
    49   22   72 1   
    50   23   24 1   
    51   23   25 1   
    52   24   73 1   
    53   24   74 1   
    54   24   75 1   
    55   25   26 1   
    56   25   76 1   
    57   25   77 1   
    58   26   27 1   
    59   26   78 1   
    60   26   79 1   
    61   27   28 2   
    62   27   80 1   
    63   28   29 1   
    64   28   30 1   
    65   29   81 1   
    66   29   82 1   
    67   29   83 1   
    68   30   31 1   
    69   30   84 1   
    70   30   85 1   
    71   31   32 1   
    72   31   86 1   
    73   31   87 1   
    74   32   33 2   
    75   32   88 1   
    76   33   34 1   
    77   33   35 1   
    78   34   89 1   
    79   34   90 1   
    80   34   91 1   
    81   35   36 1   
    82   35   92 1   
    83   35   93 1   
    84   36   37 1   
    85   36   94 1   
    86   36   95 1   
    87   37   38 2   
    88   37   96 1   
    89   38   39 1   
    90   38   40 1   
    91   39   97 1   
    92   39   98 1   
    93   39   99 1   
    94   40   41 1   
    95   40  100 1   
    96   40  101 1   
    97   41   42 1   
    98   41  102 1   
    99   41  103 1   
   100   42   43 2   
   101   42  104 1   
   102   43   44 1   
   103   43   45 1   
   104   44  105 1   
   105   44  106 1   
   106   44  107 1   
   107   45  108 1   
   108   45  109 1   
   109   45  110 1   
@<TRIPOS>SUBSTRUCTURE
     1 0K3         1 TEMP              0 ****  ****    0 ROOT
