@<TRIPOS>MOLECULE
0K3
  110   109     1     0     0
SMALL
bcc


@<TRIPOS>ATOM
      1 O2          0.3600    1.5250   -1.0340 o         1 0K3     -0.927500
      2 P           1.4030    1.7290    0.0450 p5        1 0K3      1.335900
      3 O           0.9090    2.6340    1.1430 o         1 0K3     -0.927500
      4 O1          2.2080    0.5230    0.4200 o         1 0K3     -0.927500
      5 O3          2.5740    2.7280   -0.7430 os        1 0K3     -0.565200
      6 C           2.6680    2.5710   -2.1040 c3        1 0K3      0.233600
      7 C1          2.4410    3.8770   -2.8110 c2        1 0K3     -0.108200
      8 C2          1.7920    4.0480   -3.9730 c2        1 0K3     -0.217400
      9 C3          1.6430    5.3890   -4.5900 c3        1 0K3     -0.027900
     10 C4          1.1230    2.9390   -4.7110 c3        1 0K3     -0.003200
     11 C5         -0.2160    2.5920   -4.0800 c3        1 0K3     -0.093200
     12 C6         -0.9460    1.5720   -4.8630 c2        1 0K3     -0.150200
     13 C7         -1.7920    0.6650   -4.3510 c2        1 0K3     -0.132400
     14 C8         -2.4900   -0.3090   -5.2310 c3        1 0K3     -0.044900
     15 C9         -2.0910    0.5320   -2.8980 c3        1 0K3     -0.079200
     16 C10        -3.2190    1.4600   -2.4720 c3        1 0K3     -0.010200
     17 C11        -3.6780    1.1330   -1.1030 c2        1 0K3     -0.222200
     18 C12        -3.2560    1.7020    0.0390 c2        1 0K3     -0.059400
     19 C13        -3.7610    1.1870    1.3410 c3        1 0K3     -0.056900
     20 C14        -2.2470    2.7900    0.0990 c3        1 0K3     -0.092200
     21 C15        -2.3880    3.6740    1.3250 c3        1 0K3     -0.034200
     22 C16        -1.3210    4.7020    1.3610 c2        1 0K3     -0.095200
     23 C17        -1.5060    6.0180    1.5560 c2        1 0K3     -0.241400
     24 C39        -0.3450    6.9430    1.6120 c3        1 0K3     -0.029900
     25 C18        -2.8350    6.6690    1.7170 c3        1 0K3     -0.014200
     26 C19        -3.3460    6.5450    3.1430 c3        1 0K3     -0.060200
     27 C20        -4.6650    7.1920    3.3270 c2        1 0K3     -0.121200
     28 C21        -5.2500    7.4230    4.5140 c2        1 0K3     -0.179400
     29 C22        -6.5900    8.0520    4.6110 c3        1 0K3     -0.046900
     30 C23        -4.6280    7.0470    5.8140 c3        1 0K3     -0.032200
     31 C24        -3.8040    8.1860    6.3910 c3        1 0K3     -0.049200
     32 C25        -3.2600    7.8560    7.7290 c2        1 0K3     -0.144200
     33 C26        -2.6240    8.7260    8.5290 c2        1 0K3     -0.148400
     34 C27        -2.0870    8.3140    9.8500 c3        1 0K3     -0.050900
     35 C28        -2.3780   10.1470    8.1580 c3        1 0K3     -0.034200
     36 C29        -3.4810   11.0600    8.6720 c3        1 0K3     -0.044200
     37 C30        -3.2150   12.4760    8.3230 c2        1 0K3     -0.168200
     38 C31        -3.6780   13.1100    7.2350 c2        1 0K3     -0.120400
     39 C32        -3.3580   14.5370    6.9770 c3        1 0K3     -0.056900
     40 C33        -4.5180   12.4520    6.1950 c3        1 0K3     -0.046200
     41 C34        -6.0000   12.6030    6.4920 c3        1 0K3     -0.041200
     42 C35        -6.8320   11.8400    5.5340 c2        1 0K3     -0.169200
     43 C36        -8.1380   12.0700    5.3230 c2        1 0K3     -0.134400
     44 C38        -8.8780   13.1510    6.0180 c3        1 0K3     -0.055900
     45 C37        -8.9240   11.2500    4.3700 c3        1 0K3     -0.055900
     46 H3          1.9530    1.7800   -2.4730 h1        1 0K3      0.007700
     47 H4          3.7250    2.2560   -2.3820 h1        1 0K3      0.007700
     48 H5          2.8560    4.7470   -2.2750 ha        1 0K3      0.102000
     49 H6          2.1330    5.4160   -5.5960 hc        1 0K3      0.009033
     50 H7          0.5600    5.6320   -4.7280 hc        1 0K3      0.009033
     51 H8          2.1040    6.1870   -3.9570 hc        1 0K3      0.009033
     52 H9          0.9760    3.2320   -5.7870 hc        1 0K3      0.012200
     53 H10         1.7770    2.0270   -4.7050 hc        1 0K3      0.012200
     54 H11        -0.0420    2.2430   -3.0090 hc        1 0K3      0.104200
     55 H12        -0.8490    3.5190   -4.0170 hc        1 0K3      0.104200
     56 H13        -0.7580    1.5880   -5.9520 ha        1 0K3      0.074000
     57 H14        -2.2930   -0.1120   -6.3130 hc        1 0K3      0.015700
     58 H15        -2.1490   -1.3480   -4.9950 hc        1 0K3      0.015700
     59 H16        -3.5940   -0.2580   -5.0580 hc        1 0K3      0.015700
     60 H17        -1.1710    0.7670   -2.2670 hc        1 0K3      0.099700
     61 H18        -2.3830   -0.5290   -2.6760 hc        1 0K3      0.099700
     62 H19        -2.8540    2.5200   -2.5400 hc        1 0K3      0.020200
     63 H20        -4.0850    1.3590   -3.1830 hc        1 0K3      0.020200
     64 H21        -4.3980    0.2980   -1.0600 ha        1 0K3      0.078000
     65 H22        -2.8940    0.8840    1.9810 hc        1 0K3      0.026700
     66 H23        -4.4280    0.3000    1.2070 hc        1 0K3      0.026700
     67 H24        -4.3400    1.9800    1.8780 hc        1 0K3      0.026700
     68 H25        -2.3160    3.4320   -0.8190 hc        1 0K3      0.121700
     69 H26        -1.1870    2.3320    0.0660 hc        1 0K3      0.121700
     70 H27        -3.4150    4.1260    1.3610 hc        1 0K3      0.017200
     71 H28        -2.2640    3.0480    2.2530 hc        1 0K3      0.017200
     72 H29        -0.2930    4.2610    1.2380 ha        1 0K3      0.255000
     73 H30        -0.3980    7.6870    0.7780 hc        1 0K3      0.021700
     74 H31         0.6180    6.3810    1.5250 hc        1 0K3      0.021700
     75 H32        -0.3450    7.5080    2.5780 hc        1 0K3      0.021700
     76 H33        -3.5800    6.2080    1.0150 hc        1 0K3      0.023700
     77 H34        -2.7630    7.7580    1.4480 hc        1 0K3      0.023700
     78 H35        -3.4270    5.4530    3.4030 hc        1 0K3      0.058200
     79 H36        -2.5930    6.9940    3.8460 hc        1 0K3      0.058200
     80 H37        -5.1840    7.4810    2.3960 ha        1 0K3      0.115000
     81 H38        -6.9210    8.4710    3.6290 hc        1 0K3      0.027700
     82 H39        -6.5770    8.8820    5.3620 hc        1 0K3      0.027700
     83 H40        -7.3450    7.2960    4.9430 hc        1 0K3      0.027700
     84 H41        -3.9680    6.1470    5.6760 hc        1 0K3      0.045700
     85 H42        -5.4320    6.7630    6.5450 hc        1 0K3      0.045700
     86 H43        -2.9560    8.4170    5.6890 hc        1 0K3      0.052200
     87 H44        -4.4390    9.1120    6.4550 hc        1 0K3      0.052200
     88 H45        -3.3900    6.8080    8.0490 ha        1 0K3      0.123000
     89 H46        -2.4490    9.0110   10.6470 hc        1 0K3      0.034033
     90 H47        -0.9690    8.3490    9.8360 hc        1 0K3      0.034033
     91 H48        -2.4020    7.2760   10.1180 hc        1 0K3      0.034033
     92 H49        -2.3090   10.2470    7.0410 hc        1 0K3      0.048700
     93 H50        -1.3940   10.4810    8.5830 hc        1 0K3      0.048700
     94 H51        -4.4670   10.7240    8.2490 hc        1 0K3      0.045200
     95 H52        -3.5520   10.9610    9.7890 hc        1 0K3      0.045200
     96 H53        -2.5700   13.0130    9.0390 ha        1 0K3      0.111000
     97 H54        -2.7050   14.6230    6.0730 hc        1 0K3      0.036700
     98 H55        -2.8280   15.0060    7.8410 hc        1 0K3      0.036700
     99 H56        -4.2990   15.1110    6.7840 hc        1 0K3      0.036700
    100 H57        -4.2570   11.3600    6.1270 hc        1 0K3      0.055700
    101 H58        -4.2940   12.9040    5.1910 hc        1 0K3      0.055700
    102 H59        -6.2760   13.6920    6.4700 hc        1 0K3      0.045200
    103 H60        -6.2110   12.2320    7.5330 hc        1 0K3      0.045200
    104 H61        -6.3160   11.0270    4.9920 ha        1 0K3      0.137000
    105 H62        -9.9760   13.0790    5.8250 hc        1 0K3      0.037700
    106 H63        -8.7080   13.0960    7.1220 hc        1 0K3      0.037700
    107 H64        -8.5240   14.1520    5.6630 hc        1 0K3      0.037700
    108 H65        -9.2700   11.8830    3.5150 hc        1 0K3      0.037700
    109 H66        -9.8260   10.8250    4.8770 hc        1 0K3      0.037700
    110 H67        -8.3180   10.4020    3.9620 hc        1 0K3      0.037700
@<TRIPOS>BOND
     1    1    2 1   
     2    2    3 1   
     3    2    4 1   
     4    2    5 1   
     5    5    6 1   
     6    6    7 1   
     7    6   46 1   
     8    6   47 1   
     9    7    8 2   
    10    7   48 1   
    11    8    9 1   
    12    8   10 1   
    13    9   49 1   
    14    9   50 1   
    15    9   51 1   
    16   10   11 1   
    17   10   52 1   
    18   10   53 1   
    19   11   12 1   
    20   11   54 1   
    21   11   55 1   
    22   12   13 2   
    23   12   56 1   
    24   13   14 1   
    25   13   15 1   
    26   14   57 1   
    27   14   58 1   
    28   14   59 1   
    29   15   16 1   
    30   15   60 1   
    31   15   61 1   
    32   16   17 1   
    33   16   62 1   
    34   16   63 1   
    35   17   18 2   
    36   17   64 1   
    37   18   19 1   
    38   18   20 1   
    39   19   65 1   
    40   19   66 1   
    41   19   67 1   
    42   20   21 1   
    43   20   68 1   
    44   20   69 1   
    45   21   22 1   
    46   21   70 1   
    47   21   71 1   
    48   22   23 2   
    49   22   72 1   
    50   23   24 1   
    51   23   25 1   
    52   24   73 1   
    53   24   74 1   
    54   24   75 1   
    55   25   26 1   
    56   25   76 1   
    57   25   77 1   
    58   26   27 1   
    59   26   78 1   
    60   26   79 1   
    61   27   28 2   
    62   27   80 1   
    63   28   29 1   
    64   28   30 1   
    65   29   81 1   
    66   29   82 1   
    67   29   83 1   
    68   30   31 1   
    69   30   84 1   
    70   30   85 1   
    71   31   32 1   
    72   31   86 1   
    73   31   87 1   
    74   32   33 2   
    75   32   88 1   
    76   33   34 1   
    77   33   35 1   
    78   34   89 1   
    79   34   90 1   
    80   34   91 1   
    81   35   36 1   
    82   35   92 1   
    83   35   93 1   
    84   36   37 1   
    85   36   94 1   
    86   36   95 1   
    87   37   38 2   
    88   37   96 1   
    89   38   39 1   
    90   38   40 1   
    91   39   97 1   
    92   39   98 1   
    93   39   99 1   
    94   40   41 1   
    95   40  100 1   
    96   40  101 1   
    97   41   42 1   
    98   41  102 1   
    99   41  103 1   
   100   42   43 2   
   101   42  104 1   
   102   43   44 1   
   103   43   45 1   
   104   44  105 1   
   105   44  106 1   
   106   44  107 1   
   107   45  108 1   
   108   45  109 1   
   109   45  110 1   
@<TRIPOS>SUBSTRUCTURE
     1 0K3         1 TEMP              0 ****  ****    0 ROOT
