@<TRIPOS>MOLECULE
0K3
  110   109     1     0     0
SMALL
bcc


@<TRIPOS>ATOM
      1 O2          5.9010   -0.1490   -0.7930 o         1 0K3     -0.927500
      2 P           5.7900   -1.3750    0.0890 p5        1 0K3      1.335900
      3 O           4.3640   -1.6660    0.4740 o         1 0K3     -0.927500
      4 O1          6.6840   -2.5240   -0.2630 o         1 0K3     -0.927500
      5 O3          6.4600   -0.8260    1.5860 os        1 0K3     -0.565200
      6 C           7.4090    0.1610    1.4840 c3        1 0K3      0.233600
      7 C1          7.0120    1.3690    2.2840 c2        1 0K3     -0.108200
      8 C2          7.2160    2.6500    1.9410 c2        1 0K3     -0.216400
      9 C3          6.7950    3.7680    2.8230 c3        1 0K3     -0.027900
     10 C4          7.8220    3.0670    0.6440 c3        1 0K3     -0.003200
     11 C5          6.8060    2.9870   -0.4830 c3        1 0K3     -0.093200
     12 C6          7.3550    3.5010   -1.7560 c2        1 0K3     -0.150200
     13 C7          7.0020    3.0730   -2.9790 c2        1 0K3     -0.132400
     14 C8          7.6050    3.6710   -4.1990 c3        1 0K3     -0.044900
     15 C9          6.0220    1.9800   -3.2280 c3        1 0K3     -0.079200
     16 C10         4.5950    2.5080   -3.2700 c3        1 0K3     -0.010200
     17 C11         3.6670    1.4690   -3.7720 c2        1 0K3     -0.222200
     18 C12         2.9510    0.6090   -3.0270 c2        1 0K3     -0.059400
     19 C13         2.1320   -0.4340   -3.7010 c3        1 0K3     -0.056900
     20 C14         2.9710    0.5840   -1.5420 c3        1 0K3     -0.092200
     21 C15         1.6950    0.0320   -0.9330 c3        1 0K3     -0.034200
     22 C16         1.7950   -0.0250    0.5440 c2        1 0K3     -0.095200
     23 C17         0.8780    0.4350    1.4120 c2        1 0K3     -0.241400
     24 C39         1.0790    0.2810    2.8740 c3        1 0K3     -0.029900
     25 C18        -0.3800    1.1280    1.0210 c3        1 0K3     -0.014200
     26 C19        -1.4610    0.1350    0.6260 c3        1 0K3     -0.061200
     27 C20        -2.7310    0.7980    0.2550 c2        1 0K3     -0.120200
     28 C21        -3.8960    0.1650    0.0400 c2        1 0K3     -0.178400
     29 C22        -5.1250    0.9060   -0.3340 c3        1 0K3     -0.045900
     30 C23        -4.0470   -1.3140    0.1420 c3        1 0K3     -0.032200
     31 C24        -4.5930   -1.7250    1.5000 c3        1 0K3     -0.051200
     32 C25        -4.7360   -3.1950    1.6090 c2        1 0K3     -0.141200
     33 C26        -5.6830   -3.8350    2.3110 c2        1 0K3     -0.152400
     34 C27        -5.7260   -5.3170    2.3790 c3        1 0K3     -0.050900
     35 C28        -6.7500   -3.1360    3.0820 c3        1 0K3     -0.032200
     36 C29        -7.9650   -2.8530    2.2110 c3        1 0K3     -0.048200
     37 C30        -8.9920   -2.0860    2.9540 c2        1 0K3     -0.164200
     38 C31        -9.4000   -0.8400    2.6720 c2        1 0K3     -0.124400
     39 C32       -10.4550   -0.1750    3.4790 c3        1 0K3     -0.055900
     40 C33        -8.8430   -0.0120    1.5640 c3        1 0K3     -0.044200
     41 C34        -9.5390   -0.3020    0.2450 c3        1 0K3     -0.042200
     42 C35        -8.9400    0.4620   -0.8740 c2        1 0K3     -0.170200
     43 C36        -9.5810    0.7470   -2.0180 c2        1 0K3     -0.133400
     44 C38       -10.9850    0.3400   -2.2690 c3        1 0K3     -0.055400
     45 C37        -8.9190    1.4950   -3.1140 c3        1 0K3     -0.055400
     46 H3          8.3860   -0.1970    1.9430 h1        1 0K3      0.007700
     47 H4          7.6010    0.4330    0.4070 h1        1 0K3      0.007700
     48 H5          6.4950    1.1240    3.2280 ha        1 0K3      0.102000
     49 H6          7.6810    4.3780    3.1340 hc        1 0K3      0.009033
     50 H7          6.0870    4.4410    2.2780 hc        1 0K3      0.009033
     51 H8          6.2860    3.3950    3.7450 hc        1 0K3      0.009033
     52 H9          8.2200    4.1150    0.7290 hc        1 0K3      0.012200
     53 H10         8.6930    2.4030    0.4000 hc        1 0K3      0.012200
     54 H11         6.4570    1.9070   -0.5920 hc        1 0K3      0.104200
     55 H12         5.8990    3.5930   -0.2110 hc        1 0K3      0.104200
     56 H13         8.1110    4.3010   -1.6570 ha        1 0K3      0.074000
     57 H14         8.2130    2.9030   -4.7400 hc        1 0K3      0.015700
     58 H15         6.7990    4.0250   -4.8900 hc        1 0K3      0.015700
     59 H16         8.2680    4.5370   -3.9580 hc        1 0K3      0.015700
     60 H17         6.2610    1.4840   -4.2060 hc        1 0K3      0.099700
     61 H18         6.0870    1.1790   -2.4190 hc        1 0K3      0.099700
     62 H19         4.3100    2.8490   -2.2400 hc        1 0K3      0.020200
     63 H20         4.5410    3.4050   -3.9470 hc        1 0K3      0.020200
     64 H21         3.6330    1.3930   -4.8720 ha        1 0K3      0.078000
     65 H22         2.4380   -1.4440   -3.3290 hc        1 0K3      0.026700
     66 H23         1.0460   -0.2860   -3.4760 hc        1 0K3      0.026700
     67 H24         2.2620   -0.4130   -4.8110 hc        1 0K3      0.026700
     68 H25         3.8770   -0.0350   -1.1810 hc        1 0K3      0.121700
     69 H26         3.1440    1.6180   -1.1400 hc        1 0K3      0.121700
     70 H27         0.8100    0.6330   -1.2760 hc        1 0K3      0.017200
     71 H28         1.5380   -1.0260   -1.2860 hc        1 0K3      0.017200
     72 H29         2.7330   -0.5410    0.8930 ha        1 0K3      0.255000
     73 H30         0.2180   -0.2710    3.3300 hc        1 0K3      0.021700
     74 H31         2.0200   -0.2840    3.0910 hc        1 0K3      0.021700
     75 H32         1.1460    1.2820    3.3680 hc        1 0K3      0.021700
     76 H33        -0.7540    1.7540    1.8760 hc        1 0K3      0.024200
     77 H34        -0.1890    1.8270    0.1630 hc        1 0K3      0.024200
     78 H35        -1.0880   -0.4760   -0.2430 hc        1 0K3      0.058700
     79 H36        -1.6350   -0.5800    1.4770 hc        1 0K3      0.058700
     80 H37        -2.6770    1.8960    0.1470 ha        1 0K3      0.114000
     81 H38        -5.4930    0.5710   -1.3360 hc        1 0K3      0.026700
     82 H39        -5.9350    0.7100    0.4150 hc        1 0K3      0.026700
     83 H40        -4.9450    2.0080   -0.3770 hc        1 0K3      0.026700
     84 H41        -4.7420   -1.6750   -0.6620 hc        1 0K3      0.046700
     85 H42        -3.0540   -1.8130   -0.0260 hc        1 0K3      0.046700
     86 H43        -3.8880   -1.3710    2.3020 hc        1 0K3      0.051700
     87 H44        -5.5780   -1.2120    1.6710 hc        1 0K3      0.051700
     88 H45        -3.9650   -3.7750    1.0700 ha        1 0K3      0.129000
     89 H46        -6.7420   -5.6860    2.0880 hc        1 0K3      0.034700
     90 H47        -4.9720   -5.7840    1.7000 hc        1 0K3      0.034700
     91 H48        -5.5170   -5.6590    3.4240 hc        1 0K3      0.034700
     92 H49        -7.0610   -3.7670    3.9570 hc        1 0K3      0.044200
     93 H50        -6.3560   -2.1700    3.4960 hc        1 0K3      0.044200
     94 H51        -7.6370   -2.3090    1.2850 hc        1 0K3      0.049700
     95 H52        -8.4130   -3.8290    1.8760 hc        1 0K3      0.049700
     96 H53        -9.4310   -2.6260    3.8110 ha        1 0K3      0.111000
     97 H54       -10.0240    0.7000    4.0260 hc        1 0K3      0.035700
     98 H55       -11.2700    0.1990    2.8090 hc        1 0K3      0.035700
     99 H56       -10.9050   -0.8720    4.2280 hc        1 0K3      0.035700
    100 H57        -8.9630    1.0770    1.8110 hc        1 0K3      0.052700
    101 H58        -7.7400   -0.2020    1.4580 hc        1 0K3      0.052700
    102 H59        -9.4600   -1.4010    0.0170 hc        1 0K3      0.046700
    103 H60       -10.6330   -0.0640    0.3420 hc        1 0K3      0.046700
    104 H61        -7.8910    0.7800   -0.7280 ha        1 0K3      0.134000
    105 H62       -11.6810    0.9280   -1.6200 hc        1 0K3      0.037700
    106 H63       -11.2710    0.5100   -3.3360 hc        1 0K3      0.037700
    107 H64       -11.1270   -0.7450   -2.0340 hc        1 0K3      0.037700
    108 H65        -9.4990    2.4220   -3.3520 hc        1 0K3      0.037700
    109 H66        -7.8770    1.7910   -2.8410 hc        1 0K3      0.037700
    110 H67        -8.8760    0.8640   -4.0370 hc        1 0K3      0.037700
@<TRIPOS>BOND
     1    1    2 1   
     2    2    3 1   
     3    2    4 1   
     4    2    5 1   
     5    5    6 1   
     6    6    7 1   
     7    6   46 1   
     8    6   47 1   
     9    7    8 2   
    10    7   48 1   
    11    8    9 1   
    12    8   10 1   
    13    9   49 1   
    14    9   50 1   
    15    9   51 1   
    16   10   11 1   
    17   10   52 1   
    18   10   53 1   
    19   11   12 1   
    20   11   54 1   
    21   11   55 1   
    22   12   13 2   
    23   12   56 1   
    24   13   14 1   
    25   13   15 1   
    26   14   57 1   
    27   14   58 1   
    28   14   59 1   
    29   15   16 1   
    30   15   60 1   
    31   15   61 1   
    32   16   17 1   
    33   16   62 1   
    34   16   63 1   
    35   17   18 2   
    36   17   64 1   
    37   18   19 1   
    38   18   20 1   
    39   19   65 1   
    40   19   66 1   
    41   19   67 1   
    42   20   21 1   
    43   20   68 1   
    44   20   69 1   
    45   21   22 1   
    46   21   70 1   
    47   21   71 1   
    48   22   23 2   
    49   22   72 1   
    50   23   24 1   
    51   23   25 1   
    52   24   73 1   
    53   24   74 1   
    54   24   75 1   
    55   25   26 1   
    56   25   76 1   
    57   25   77 1   
    58   26   27 1   
    59   26   78 1   
    60   26   79 1   
    61   27   28 2   
    62   27   80 1   
    63   28   29 1   
    64   28   30 1   
    65   29   81 1   
    66   29   82 1   
    67   29   83 1   
    68   30   31 1   
    69   30   84 1   
    70   30   85 1   
    71   31   32 1   
    72   31   86 1   
    73   31   87 1   
    74   32   33 2   
    75   32   88 1   
    76   33   34 1   
    77   33   35 1   
    78   34   89 1   
    79   34   90 1   
    80   34   91 1   
    81   35   36 1   
    82   35   92 1   
    83   35   93 1   
    84   36   37 1   
    85   36   94 1   
    86   36   95 1   
    87   37   38 2   
    88   37   96 1   
    89   38   39 1   
    90   38   40 1   
    91   39   97 1   
    92   39   98 1   
    93   39   99 1   
    94   40   41 1   
    95   40  100 1   
    96   40  101 1   
    97   41   42 1   
    98   41  102 1   
    99   41  103 1   
   100   42   43 2   
   101   42  104 1   
   102   43   44 1   
   103   43   45 1   
   104   44  105 1   
   105   44  106 1   
   106   44  107 1   
   107   45  108 1   
   108   45  109 1   
   109   45  110 1   
@<TRIPOS>SUBSTRUCTURE
     1 0K3         1 TEMP              0 ****  ****    0 ROOT
