@<TRIPOS>MOLECULE
0K3
  110   100     1     0     0
SMALL
bcc


@<TRIPOS>ATOM
      1 O2         -8.7910    1.2760    1.2920 o         1 0K3     -1.246333
      2 P          -9.3270    1.0350    2.6830 p3        1 0K3      2.524000
      3 O          -9.5870    2.3610    3.3590 o         1 0K3     -1.246333
      4 O1        -10.6160    0.2540    2.5970 o         1 0K3     -1.246333
      5 O3         -8.2680    0.2150    3.5220 o         1 0K3     -0.727000
      6 C          -7.7950   -1.0050    2.9980 c3        1 0K3      0.061000
      7 C1         -7.5230   -1.9700    4.1320 c2        1 0K3     -0.079000
      8 C2         -6.8910   -3.1380    3.8880 c1        1 0K3     -0.256000
      9 C3         -6.6190   -4.1020    5.0230 c3        1 0K3     -0.143000
     10 C4         -6.4540   -3.4820    2.4800 c2        1 0K3     -0.113000
     11 C5         -5.0200   -3.9670    2.5010 c3        1 0K3     -0.122333
     12 C6         -4.7890   -4.9110    1.3420 c2        1 0K3     -0.189667
     13 C7         -3.5880   -5.4980    1.1800 c1        1 0K3     -0.094667
     14 C8         -2.4700   -5.2130    2.1560 c2        1 0K3     -0.189250
     15 C9         -3.3570   -6.4410    0.0210 c3        1 0K3     -0.115000
     16 C10        -2.2770   -5.8800   -0.8800 c3        1 0K3     -0.144667
     17 C11        -1.7130   -6.9880   -1.7410 c2        1 0K3     -0.163667
     18 C12        -0.9560   -6.6870   -2.8170 c1        1 0K3     -0.115000
     19 C13        -0.3920   -7.7950   -3.6780 c3        1 0K3     -0.174333
     20 C14        -0.6710   -5.2390   -3.1620 c2        1 0K3     -0.113000
     21 C15         0.6740   -5.1400   -3.8540 c3        1 0K3     -0.122333
     22 C16         0.7320   -3.8600   -4.6650 c2        1 0K3     -0.189667
     23 C17         1.7900   -3.6170   -5.4680 c1        1 0K3     -0.094667
     24 C39         2.9170   -4.6210   -5.5570 c2        1 0K3     -0.189250
     25 C18         1.8480   -2.3390   -6.2780 c3        1 0K3     -0.115000
     26 C19         2.2770   -1.1940   -5.3850 c3        1 0K3     -0.144667
     27 C20         2.0210    0.1200   -6.0900 c2        1 0K3     -0.163667
     28 C21         2.4910    1.2690   -5.5670 c1        1 0K3     -0.115000
     29 C22         2.2350    2.5820   -6.2720 c3        1 0K3     -0.174333
     30 C23         3.2740    1.2460   -4.2750 c2        1 0K3     -0.113000
     31 C24         2.9410    2.4750   -3.4610 c3        1 0K3     -0.122333
     32 C25         4.0270    2.7120   -2.4370 c2        1 0K3     -0.189667
     33 C26         3.8660    3.6570   -1.4920 c1        1 0K3     -0.094667
     34 C27         2.5990    4.4830   -1.4560 c2        1 0K3     -0.189250
     35 C28         4.9510    3.8930   -0.4680 c3        1 0K3     -0.115000
     36 C29         4.3860    4.6760    0.6930 c3        1 0K3     -0.144667
     37 C30         5.4780    4.9410    1.7010 c2        1 0K3     -0.163667
     38 C31         5.1940    5.5880    2.8450 c1        1 0K3     -0.115000
     39 C32         6.2880    5.8540    3.8560 c3        1 0K3     -0.174333
     40 C33         3.7820    6.0490    3.1220 c2        1 0K3     -0.161000
     41 C34         3.6810    6.5340    4.5480 c3        1 0K3     -0.108000
     42 C35         2.4880    7.4540    4.6840 c2        1 0K3     -0.126000
     43 C36         2.1590    7.9540    5.8880 c1        1 0K3     -0.190000
     44 C38         0.9650    8.8740    6.0250 c3        1 0K3     -0.189000
     45 C37         2.9820    7.5980    7.1060 c2        1 0K3     -0.189250
     46 H3         -6.9670   -0.8460    2.4990 h1        1 0K3      0.062000
     47 H4         -8.4690   -1.3860    2.3990 h1        1 0K3      0.062000
     48 H5         -7.8170   -1.7540    5.0380 ha        1 0K3      0.140000
     49 H6         -7.3690   -4.0830    5.6540 hc        1 0K3      0.048333
     50 H7         -5.7960   -3.8400    5.4850 hc        1 0K3      0.048333
     51 H8         -6.5180   -5.0090    4.6630 hc        1 0K3      0.048333
     52 H9         -6.5210   -2.6880    1.9140 ha        1 0K3      0.078667
     53 H10        -7.0310   -4.1870    2.1230 ha        1 0K3      0.078667
     54 H11        -4.8470   -4.4350    3.3420 hc        1 0K3      0.087333
     55 H12        -4.4160   -3.2010    2.4240 hc        1 0K3      0.087333
     56 H13        -5.5120   -5.0950    0.7110 ha        1 0K3      0.108667
     57 H14        -1.7100   -5.8010    1.9640 ha        1 0K3      0.081500
     58 H15        -2.7850   -5.3740    3.0700 ha        1 0K3      0.081500
     59 H16        -2.1900   -4.2780    2.0680 ha        1 0K3      0.081500
     60 H17        -3.0770   -7.3140    0.3620 hc        1 0K3      0.068167
     61 H18        -4.1870   -6.5410   -0.4880 hc        1 0K3      0.068167
     62 H19        -1.5630   -5.4970   -0.3320 hc        1 0K3      0.117500
     63 H20        -2.6580   -5.1840   -1.4520 hc        1 0K3      0.117500
     64 H21        -1.8960   -7.9200   -1.5180 ha        1 0K3      0.094667
     65 H22        -0.5660   -7.5960   -4.6210 hc        1 0K3      0.067111
     66 H23         0.5750   -7.8620   -3.5310 hc        1 0K3      0.067111
     67 H24        -0.8190   -8.6440   -3.4390 hc        1 0K3      0.067111
     68 H25        -0.6550   -4.7050   -2.3420 ha        1 0K3      0.078667
     69 H26        -1.3700   -4.9010   -3.7570 ha        1 0K3      0.078667
     70 H27         0.7920   -5.9080   -4.4480 hc        1 0K3      0.087333
     71 H28         1.3860   -5.1340   -3.1840 hc        1 0K3      0.087333
     72 H29         0.0040   -3.2120   -4.6070 ha        1 0K3      0.108667
     73 H30         3.6400   -4.2520   -6.1060 ha        1 0K3      0.081500
     74 H31         3.2550   -4.8140   -4.6580 ha        1 0K3      0.081500
     75 H32         2.5860   -5.4480   -5.9660 ha        1 0K3      0.081500
     76 H33         0.9630   -2.1480   -6.6490 hc        1 0K3      0.068167
     77 H34         2.4920   -2.4440   -7.0060 hc        1 0K3      0.068167
     78 H35         3.2310   -1.2760   -5.1850 hc        1 0K3      0.117500
     79 H36         1.7660   -1.2220   -4.5510 hc        1 0K3      0.117500
     80 H37         1.5420    0.1310   -6.9410 ha        1 0K3      0.094667
     81 H38         1.8890    2.4080   -7.1720 hc        1 0K3      0.067111
     82 H39         3.0720    3.0880   -6.3360 hc        1 0K3      0.067111
     83 H40         1.5780    3.1030   -5.7650 hc        1 0K3      0.067111
     84 H41         3.0400    0.4450   -3.7660 ha        1 0K3      0.078667
     85 H42         4.2320    1.2370   -4.4750 ha        1 0K3      0.078667
     86 H43         2.0860    2.3430   -3.0060 hc        1 0K3      0.087333
     87 H44         2.8770    3.2510   -4.0540 hc        1 0K3      0.087333
     88 H45         4.8440    2.1790   -2.4610 ha        1 0K3      0.108667
     89 H46         2.8060    5.4110   -1.6970 ha        1 0K3      0.081500
     90 H47         1.9520    4.1170   -2.0940 ha        1 0K3      0.081500
     91 H48         2.2180    4.4580   -0.5530 ha        1 0K3      0.081500
     92 H49         5.2900    3.0330   -0.1480 hc        1 0K3      0.068167
     93 H50         5.6810    4.3990   -0.8780 hc        1 0K3      0.068167
     94 H51         3.6700    4.1600    1.1160 hc        1 0K3      0.117500
     95 H52         4.0270    5.5260    0.3690 hc        1 0K3      0.117500
     96 H53         6.3880    4.6360    1.5270 ha        1 0K3      0.094667
     97 H54         7.1400    5.5120    3.5120 hc        1 0K3      0.067111
     98 H55         6.3620    6.8190    4.0100 hc        1 0K3      0.067111
     99 H56         6.0710    5.4030    4.6990 hc        1 0K3      0.067111
    100 H57         3.1630    5.3030    2.9870 ha        1 0K3      0.135000
    101 H58         3.5520    6.7780    2.5120 ha        1 0K3      0.135000
    102 H59         3.5720    5.7680    5.1460 hc        1 0K3      0.054500
    103 H60         4.4960    7.0200    4.7850 hc        1 0K3      0.054500
    104 H61         1.9530    7.6790    3.8990 ha        1 0K3      0.248000
    105 H62         0.1410    8.3440    6.0080 hc        1 0K3      0.082667
    106 H63         0.9580    9.5130    5.2810 hc        1 0K3      0.082667
    107 H64         1.0240    9.3620    6.8730 hc        1 0K3      0.082667
    108 H65         3.0270    6.6220    7.1960 ha        1 0K3      0.081500
    109 H66         3.8880    7.9580    7.0050 ha        1 0K3      0.081500
    110 H67         2.5650    7.9800    7.9050 ha        1 0K3      0.081500
@<TRIPOS>BOND
     1    1    2 1   
     2    2    3 1   
     3    2    4 1   
     4    5    6 1   
     5    6    7 1   
     6    6   46 1   
     7    6   47 1   
     8    7    8 1   
     9    7   48 1   
    10    8    9 1   
    11    9   49 1   
    12    9   50 1   
    13    9   51 1   
    14   10   11 1   
    15   10   52 1   
    16   10   53 1   
    17   11   12 1   
    18   11   54 1   
    19   11   55 1   
    20   12   13 1   
    21   12   56 1   
    22   13   15 1   
    23   14   57 1   
    24   14   58 1   
    25   14   59 1   
    26   15   16 1   
    27   15   60 1   
    28   15   61 1   
    29   16   17 1   
    30   16   62 1   
    31   16   63 1   
    32   17   18 1   
    33   17   64 1   
    34   18   19 1   
    35   19   65 1   
    36   19   66 1   
    37   19   67 1   
    38   20   21 1   
    39   20   68 1   
    40   20   69 1   
    41   21   22 1   
    42   21   70 1   
    43   21   71 1   
    44   22   23 1   
    45   22   72 1   
    46   23   25 1   
    47   24   73 1   
    48   24   74 1   
    49   24   75 1   
    50   25   26 1   
    51   25   76 1   
    52   25   77 1   
    53   26   27 1   
    54   26   78 1   
    55   26   79 1   
    56   27   28 1   
    57   27   80 1   
    58   28   29 1   
    59   29   81 1   
    60   29   82 1   
    61   29   83 1   
    62   30   31 1   
    63   30   84 1   
    64   30   85 1   
    65   31   32 1   
    66   31   86 1   
    67   31   87 1   
    68   32   33 1   
    69   32   88 1   
    70   33   35 1   
    71   34   89 1   
    72   34   90 1   
    73   34   91 1   
    74   35   36 1   
    75   35   92 1   
    76   35   93 1   
    77   36   37 1   
    78   36   94 1   
    79   36   95 1   
    80   37   38 1   
    81   37   96 1   
    82   38   39 1   
    83   39   97 1   
    84   39   98 1   
    85   39   99 1   
    86   40   41 1   
    87   40  100 1   
    88   40  101 1   
    89   41   42 1   
    90   41  102 1   
    91   41  103 1   
    92   42   43 1   
    93   42  104 1   
    94   43   44 1   
    95   44  105 1   
    96   44  106 1   
    97   44  107 1   
    98   45  108 1   
    99   45  109 1   
   100   45  110 1   
@<TRIPOS>SUBSTRUCTURE
     1 0K3         1 TEMP              0 ****  ****    0 ROOT
