@<TRIPOS>MOLECULE
0K3
  110   109     1     0     0
SMALL
bcc


@<TRIPOS>ATOM
      1 O2          0.3810    1.5670   -1.0460 o         1 0K3     -0.927500
      2 P           1.4320    1.7820    0.0240 p5        1 0K3      1.335900
      3 O           0.9350    2.6750    1.1300 o         1 0K3     -0.927500
      4 O1          2.2580    0.5870    0.3860 o         1 0K3     -0.927500
      5 O3          2.5790    2.8020   -0.7730 os        1 0K3     -0.565200
      6 C           2.6610    2.6520   -2.1350 c3        1 0K3      0.233600
      7 C1          2.4070    3.9580   -2.8330 c2        1 0K3     -0.108200
      8 C2          1.7420    4.1250   -3.9870 c2        1 0K3     -0.217400
      9 C3          1.5670    5.4670   -4.5960 c3        1 0K3     -0.027900
     10 C4          1.0830    3.0100   -4.7240 c3        1 0K3     -0.003200
     11 C5         -0.2430    2.6390   -4.0810 c3        1 0K3     -0.093200
     12 C6         -0.9650    1.6100   -4.8610 c2        1 0K3     -0.150200
     13 C7         -1.7930    0.6890   -4.3430 c2        1 0K3     -0.132400
     14 C8         -2.4840   -0.2930   -5.2200 c3        1 0K3     -0.044900
     15 C9         -2.0760    0.5460   -2.8890 c3        1 0K3     -0.079200
     16 C10        -3.2130    1.4570   -2.4490 c3        1 0K3     -0.010200
     17 C11        -3.6530    1.1210   -1.0760 c2        1 0K3     -0.222200
     18 C12        -3.2260    1.6930    0.0630 c2        1 0K3     -0.059400
     19 C13        -3.7110    1.1680    1.3690 c3        1 0K3     -0.056900
     20 C14        -2.2310    2.7940    0.1150 c3        1 0K3     -0.092200
     21 C15        -2.3730    3.6750    1.3430 c3        1 0K3     -0.034200
     22 C16        -1.3190    4.7160    1.3710 c2        1 0K3     -0.095200
     23 C17        -1.5180    6.0300    1.5670 c2        1 0K3     -0.241400
     24 C39        -0.3690    6.9680    1.6140 c3        1 0K3     -0.029900
     25 C18        -2.8530    6.6650    1.7370 c3        1 0K3     -0.014200
     26 C19        -3.3530    6.5370    3.1670 c3        1 0K3     -0.060200
     27 C20        -4.6770    7.1700    3.3610 c2        1 0K3     -0.121200
     28 C21        -5.2540    7.3970    4.5520 c2        1 0K3     -0.179400
     29 C22        -6.6000    8.0130    4.6590 c3        1 0K3     -0.046900
     30 C23        -4.6180    7.0300    5.8480 c3        1 0K3     -0.032200
     31 C24        -3.8000    8.1780    6.4150 c3        1 0K3     -0.049200
     32 C25        -3.2410    7.8550    7.7490 c2        1 0K3     -0.144200
     33 C26        -2.6020    8.7310    8.5400 c2        1 0K3     -0.148400
     34 C27        -2.0500    8.3260    9.8570 c3        1 0K3     -0.050900
     35 C28        -2.3680   10.1520    8.1620 c3        1 0K3     -0.034200
     36 C29        -3.4710   11.0610    8.6830 c3        1 0K3     -0.044200
     37 C30        -3.2160   12.4770    8.3260 c2        1 0K3     -0.168200
     38 C31        -3.6920   13.1030    7.2390 c2        1 0K3     -0.120400
     39 C32        -3.3840   14.5310    6.9720 c3        1 0K3     -0.056900
     40 C33        -4.5370   12.4350    6.2090 c3        1 0K3     -0.046200
     41 C34        -6.0170   12.5790    6.5170 c3        1 0K3     -0.041200
     42 C35        -6.8530   11.8050    5.5700 c2        1 0K3     -0.169200
     43 C36        -8.1610   12.0280    5.3680 c2        1 0K3     -0.134400
     44 C38        -8.9020   13.1100    6.0600 c3        1 0K3     -0.055900
     45 C37        -8.9500   11.1970    4.4250 c3        1 0K3     -0.055900
     46 H3          1.9550    1.8520   -2.5000 h1        1 0K3      0.007700
     47 H4          3.7200    2.3550   -2.4260 h1        1 0K3      0.007700
     48 H5          2.8140    4.8320   -2.2960 ha        1 0K3      0.102000
     49 H6          2.0210    6.2690   -3.9630 hc        1 0K3      0.009033
     50 H7          0.4780    5.6930   -4.7210 hc        1 0K3      0.009033
     51 H8          2.0450    5.5060   -5.6070 hc        1 0K3      0.009033
     52 H9          1.7520    2.1080   -4.7290 hc        1 0K3      0.012200
     53 H10         0.9200    3.3050   -5.7960 hc        1 0K3      0.012200
     54 H11        -0.0520    2.2880   -3.0130 hc        1 0K3      0.104200
     55 H12        -0.8900    3.5550   -4.0070 hc        1 0K3      0.104200
     56 H13        -0.7880    1.6320   -5.9510 ha        1 0K3      0.074000
     57 H14        -3.5870   -0.2600   -5.0370 hc        1 0K3      0.015700
     58 H15        -2.1250   -1.3280   -4.9920 hc        1 0K3      0.015700
     59 H16        -2.3000   -0.0900   -6.3040 hc        1 0K3      0.015700
     60 H17        -2.3510   -0.5190   -2.6680 hc        1 0K3      0.099700
     61 H18        -1.1540    0.7930   -2.2650 hc        1 0K3      0.099700
     62 H19        -4.0850    1.3440   -3.1520 hc        1 0K3      0.020200
     63 H20        -2.8650    2.5220   -2.5190 hc        1 0K3      0.020200
     64 H21        -4.3610    0.2760   -1.0270 ha        1 0K3      0.078000
     65 H22        -4.3670    0.2720    1.2400 hc        1 0K3      0.026700
     66 H23        -2.8330    0.8760    2.0000 hc        1 0K3      0.026700
     67 H24        -4.2950    1.9520    1.9130 hc        1 0K3      0.026700
     68 H25        -1.1660    2.3500    0.0720 hc        1 0K3      0.121700
     69 H26        -2.3170    3.4360   -0.8020 hc        1 0K3      0.121700
     70 H27        -3.4060    4.1130    1.3880 hc        1 0K3      0.017200
     71 H28        -2.2330    3.0500    2.2700 hc        1 0K3      0.017200
     72 H29        -0.2860    4.2870    1.2400 ha        1 0K3      0.255000
     73 H30        -0.3680    7.5340    2.5800 hc        1 0K3      0.021700
     74 H31         0.6010    6.4190    1.5200 hc        1 0K3      0.021700
     75 H32        -0.4360    7.7120    0.7810 hc        1 0K3      0.021700
     76 H33        -3.5990    6.1930    1.0420 hc        1 0K3      0.024200
     77 H34        -2.7970    7.7530    1.4660 hc        1 0K3      0.024200
     78 H35        -2.5990    6.9940    3.8640 hc        1 0K3      0.058200
     79 H36        -3.4200    5.4440    3.4300 hc        1 0K3      0.058200
     80 H37        -5.2060    7.4520    2.4340 ha        1 0K3      0.115000
     81 H38        -6.5890    8.8460    5.4060 hc        1 0K3      0.027700
     82 H39        -6.9450    8.4240    3.6780 hc        1 0K3      0.027700
     83 H40        -7.3440    7.2500    5.0010 hc        1 0K3      0.027700
     84 H41        -5.4130    6.7400    6.5860 hc        1 0K3      0.045700
     85 H42        -3.9510    6.1360    5.7060 hc        1 0K3      0.045700
     86 H43        -2.9600    8.4160    5.7050 hc        1 0K3      0.052200
     87 H44        -4.4440    9.0980    6.4840 hc        1 0K3      0.052200
     88 H45        -3.3630    6.8070    8.0740 ha        1 0K3      0.123000
     89 H46        -2.3570    7.2880   10.1310 hc        1 0K3      0.034367
     90 H47        -0.9320    8.3670    9.8320 hc        1 0K3      0.034367
     91 H48        -2.4070    9.0240   10.6550 hc        1 0K3      0.034367
     92 H49        -1.3810   10.4930    8.5760 hc        1 0K3      0.048700
     93 H50        -2.3090   10.2480    7.0440 hc        1 0K3      0.048700
     94 H51        -3.5300   10.9660    9.8010 hc        1 0K3      0.045200
     95 H52        -4.4580   10.7170    8.2710 hc        1 0K3      0.045200
     96 H53        -2.5690   13.0210    9.0340 ha        1 0K3      0.111000
     97 H54        -2.8500   15.0070    7.8300 hc        1 0K3      0.036700
     98 H55        -4.3300   15.0980    6.7840 hc        1 0K3      0.036700
     99 H56        -2.7390   14.6170    6.0620 hc        1 0K3      0.036700
    100 H57        -4.3240   12.8830    5.2010 hc        1 0K3      0.055700
    101 H58        -4.2710   11.3440    6.1440 hc        1 0K3      0.055700
    102 H59        -6.2180   12.2120    7.5620 hc        1 0K3      0.045200
    103 H60        -6.3000   13.6660    6.4920 hc        1 0K3      0.045200
    104 H61        -6.3370   10.9920    5.0300 ha        1 0K3      0.137000
    105 H62        -8.5550   14.1100    5.6970 hc        1 0K3      0.037700
    106 H63        -8.7240   13.0630    7.1640 hc        1 0K3      0.037700
    107 H64       -10.0010   13.0310    5.8760 hc        1 0K3      0.037700
    108 H65        -8.3430   10.3500    4.0190 hc        1 0K3      0.037700
    109 H66        -9.8460   10.7720    4.9420 hc        1 0K3      0.037700
    110 H67        -9.3050   11.8230    3.5680 hc        1 0K3      0.037700
@<TRIPOS>BOND
     1    1    2 1   
     2    2    3 1   
     3    2    4 1   
     4    2    5 1   
     5    5    6 1   
     6    6    7 1   
     7    6   46 1   
     8    6   47 1   
     9    7    8 2   
    10    7   48 1   
    11    8    9 1   
    12    8   10 1   
    13    9   49 1   
    14    9   50 1   
    15    9   51 1   
    16   10   11 1   
    17   10   52 1   
    18   10   53 1   
    19   11   12 1   
    20   11   54 1   
    21   11   55 1   
    22   12   13 2   
    23   12   56 1   
    24   13   14 1   
    25   13   15 1   
    26   14   57 1   
    27   14   58 1   
    28   14   59 1   
    29   15   16 1   
    30   15   60 1   
    31   15   61 1   
    32   16   17 1   
    33   16   62 1   
    34   16   63 1   
    35   17   18 2   
    36   17   64 1   
    37   18   19 1   
    38   18   20 1   
    39   19   65 1   
    40   19   66 1   
    41   19   67 1   
    42   20   21 1   
    43   20   68 1   
    44   20   69 1   
    45   21   22 1   
    46   21   70 1   
    47   21   71 1   
    48   22   23 2   
    49   22   72 1   
    50   23   24 1   
    51   23   25 1   
    52   24   73 1   
    53   24   74 1   
    54   24   75 1   
    55   25   26 1   
    56   25   76 1   
    57   25   77 1   
    58   26   27 1   
    59   26   78 1   
    60   26   79 1   
    61   27   28 2   
    62   27   80 1   
    63   28   29 1   
    64   28   30 1   
    65   29   81 1   
    66   29   82 1   
    67   29   83 1   
    68   30   31 1   
    69   30   84 1   
    70   30   85 1   
    71   31   32 1   
    72   31   86 1   
    73   31   87 1   
    74   32   33 2   
    75   32   88 1   
    76   33   34 1   
    77   33   35 1   
    78   34   89 1   
    79   34   90 1   
    80   34   91 1   
    81   35   36 1   
    82   35   92 1   
    83   35   93 1   
    84   36   37 1   
    85   36   94 1   
    86   36   95 1   
    87   37   38 2   
    88   37   96 1   
    89   38   39 1   
    90   38   40 1   
    91   39   97 1   
    92   39   98 1   
    93   39   99 1   
    94   40   41 1   
    95   40  100 1   
    96   40  101 1   
    97   41   42 1   
    98   41  102 1   
    99   41  103 1   
   100   42   43 2   
   101   42  104 1   
   102   43   44 1   
   103   43   45 1   
   104   44  105 1   
   105   44  106 1   
   106   44  107 1   
   107   45  108 1   
   108   45  109 1   
   109   45  110 1   
@<TRIPOS>SUBSTRUCTURE
     1 0K3         1 TEMP              0 ****  ****    0 ROOT
