@<TRIPOS>MOLECULE
0K5
   55    58     1     0     0
SMALL
bcc


@<TRIPOS>ATOM
      1 C35        -6.6900   -1.5740    0.2410 ca        1 0K5     -0.183000
      2 C33        -8.6990   -2.7340   -0.4550 ca        1 0K5     -0.190000
      3 C34        -7.4240   -2.7500    0.1120 ca        1 0K5     -0.106500
      4 C32        -9.2450   -1.5300   -0.9010 ca        1 0K5     -0.106500
      5 C4          5.1780   -1.8610   -0.8270 ca        1 0K5      0.362200
      6 C7          4.2280   -0.9910   -0.2540 ca        1 0K5     -0.167600
      7 C6         -2.9410    0.5250    0.3330 ca        1 0K5      0.104000
      8 C9         -5.2390    1.5040    1.7170 ca        1 0K5     -0.259000
      9 C13         1.8810   -0.2050    0.0340 c3        1 0K5      0.180100
     10 C8         -2.8370    1.1540    1.6240 ca        1 0K5     -0.086000
     11 C3         -3.9710    1.6400    2.2800 ca        1 0K5     -0.073000
     12 C31        -8.5320   -0.3420   -0.7830 ca        1 0K5     -0.183000
     13 C1         -4.2450    0.3900   -0.2170 ca        1 0K5     -0.241000
     14 C5          2.8770   -1.1140   -0.6390 ca        1 0K5     -0.113300
     15 C30        -7.2470   -0.3670   -0.2080 ca        1 0K5      0.153100
     16 C2         -5.3460    0.8770    0.4690 ca        1 0K5      0.101100
     17 C10         2.5710   -2.0930   -1.6060 ca        1 0K5      0.042800
     18 C11         3.6050   -2.9240   -2.1330 ca        1 0K5      0.328600
     19 C14        -1.8220    0.0570   -0.3470 cc        1 0K5     -0.494600
     20 C15        -0.4940    0.1970    0.1640 cc        1 0K5      0.557600
     21 C12        -0.3930    1.0330    1.4240 c         1 0K5      0.511200
     22 N18         4.8910   -2.8040   -1.7370 nb        1 0K5     -0.673000
     23 N20        -1.5500    1.1730    2.2550 n         1 0K5     -0.169900
     24 N19         0.5390   -0.3160   -0.4470 n2        1 0K5     -0.741900
     25 O22         7.9800    1.0540    2.1390 o         1 0K5     -0.836500
     26 O24         6.3720    2.2370    0.4150 o         1 0K5     -0.836500
     27 O23         0.6780    1.5100    1.8500 o         1 0K5     -0.644500
     28 O21         7.8100    0.4110   -0.3270 oh        1 0K5     -0.779400
     29 O25         1.3290   -2.3550   -2.1240 oh        1 0K5     -0.540100
     30 O26        -1.4570    2.1620    3.1650 oh        1 0K5     -0.447100
     31 O29        -6.6200    0.8600   -0.1300 os        1 0K5     -0.263200
     32 O27         5.9590   -0.1460    1.1930 os        1 0K5     -0.580200
     33 P28         7.0720    1.0620    0.9790 p5        1 0K5      1.427800
     34 H1         -5.6790   -1.5800    0.6790 ha        1 0K5      0.153500
     35 H2         -9.2690   -3.6670   -0.5530 ha        1 0K5      0.114000
     36 H3         -6.9890   -3.6980    0.4600 ha        1 0K5      0.118000
     37 H4        -10.2480   -1.5170   -1.3510 ha        1 0K5      0.118000
     38 H5          6.2420   -1.7910   -0.5270 h4        1 0K5      0.048100
     39 H6         -6.1290    1.8890    2.2260 ha        1 0K5      0.118000
     40 H7          1.9410   -0.4170    1.1470 h1        1 0K5      0.056700
     41 H8          2.2490    0.8600   -0.0960 h1        1 0K5      0.056700
     42 H9          2.7460   -3.4390   -4.0210 hc        1 0K5      0.033700
     43 H10         4.1000   -4.5410   -3.5070 hc        1 0K5      0.033700
     44 H11         2.4720   -4.6450   -2.7020 hc        1 0K5      0.033700
     45 H12        -3.8690    2.1380    3.2570 ha        1 0K5      0.124000
     46 H13        -8.9490    0.6120   -1.1310 ha        1 0K5      0.153500
     47 H14        -4.3630   -0.0930   -1.1950 ha        1 0K5      0.129000
     48 H15        -1.9560   -0.4490   -1.3110 ha        1 0K5      0.127000
     49 H16         4.5490    1.0740    0.2770 h1        1 0K5      0.055200
     50 H17         3.9690   -0.0210    1.6380 h1        1 0K5      0.055200
     51 H18         7.4120    0.7040   -1.1390 ho        1 0K5      0.422000
     52 H21         0.6880   -1.7190   -1.7470 ho        1 0K5      0.472000
     53 H22        -0.6260    1.9890    3.6510 ho        1 0K5      0.424000
     54 C16         3.2240   -3.9490   -3.1490 c3        1 0K5     -0.117400
     55 C17         4.6570    0.0490    0.7420 c3        1 0K5      0.216700
@<TRIPOS>BOND
     1    1    3 ar  
     2    1   15 ar  
     3    1   34 1   
     4    2    3 ar  
     5    2    4 ar  
     6    2   35 1   
     7    3   36 1   
     8    4   12 ar  
     9    4   37 1   
    10    5    6 ar  
    11    5   22 ar  
    12    5   38 1   
    13    6   14 ar  
    14    6   55 1   
    15    7   10 ar  
    16    7   13 ar  
    17    7   19 2   
    18    8   11 ar  
    19    8   16 ar  
    20    8   39 1   
    21    9   14 1   
    22    9   24 1   
    23    9   40 1   
    24    9   41 1   
    25   10   11 ar  
    26   10   23 2   
    27   11   45 1   
    28   12   15 ar  
    29   12   46 1   
    30   13   16 ar  
    31   13   47 1   
    32   14   17 ar  
    33   15   31 1   
    34   16   31 1   
    35   17   18 ar  
    36   17   29 1   
    37   18   22 ar  
    38   18   54 1   
    39   19   20 1   
    40   19   48 1   
    41   20   21 1   
    42   20   24 2   
    43   21   23 1   
    44   21   27 2   
    45   23   30 1   
    46   25   33 1   
    47   26   33 1   
    48   28   33 1   
    49   28   51 1   
    50   29   52 1   
    51   30   53 1   
    52   32   33 1   
    53   32   55 1   
    54   42   54 1   
    55   43   54 1   
    56   44   54 1   
    57   49   55 1   
    58   50   55 1   
@<TRIPOS>SUBSTRUCTURE
     1 0K5         1 TEMP              0 ****  ****    0 ROOT
