@<TRIPOS>MOLECULE
0K5
   55    47     1     0     0
SMALL
bcc


@<TRIPOS>ATOM
      1 C35         4.9800    3.1280    1.5450 c1        1 0K5     -0.133250
      2 C33         7.0590    2.9680    2.7510 c1        1 0K5     -0.133250
      3 C34         6.3690    3.2330    1.5760 c1        1 0K5     -0.133250
      4 C32         6.3640    2.5970    3.8960 c1        1 0K5     -0.133250
      5 C4         -3.3410   -4.1630   -0.6760 c1        1 0K5     -0.086000
      6 C7         -2.4610   -3.1040   -0.8640 c1        1 0K5     -0.057000
      7 C6          0.8470    1.4430    0.1810 c1        1 0K5     -0.063000
      8 C9          1.5500    3.8580    1.4220 c1        1 0K5     -0.131000
      9 C13        -1.9870   -1.3770   -2.8630 c3        1 0K5     -0.022000
     10 C8          0.3100    2.6600   -0.2860 c1        1 0K5      0.050000
     11 C16        -6.1930   -3.6910   -2.8010 c3        1 0K5     -0.141000
     12 C3          0.6640    3.8650    0.3370 c2        1 0K5     -0.164000
     13 C31         4.9800    2.4920    3.8640 c1        1 0K5     -0.158000
     14 C1          1.7340    1.4390    1.2690 c2        1 0K5     -0.100000
     15 C5         -2.7730   -2.0980   -1.7540 c1        1 0K5     -0.137000
     16 C30         4.2880    2.7580    2.6860 c1        1 0K5      0.044000
     17 C2          2.0860    2.6400    1.8880 c1        1 0K5      0.014000
     18 C10        -3.9530   -2.1430   -2.4530 c1        1 0K5      0.020000
     19 C11        -4.8400   -3.2130   -2.2610 c2        1 0K5     -0.089000
     20 C14         0.4980    0.1430   -0.5150 c1        1 0K5     -0.070000
     21 C15        -0.3900    0.1530   -1.6640 c1        1 0K5     -0.093000
     22 C12        -0.9190    1.4350   -2.1720 c1        1 0K5      0.334000
     23 C17        -1.2750   -3.3100    0.1060 c3        1 0K5      0.089000
     24 N18        -4.5290   -4.2080   -1.3790 n2        1 0K5     -0.154000
     25 N20        -0.5960    2.6740   -1.4900 n1        1 0K5     -0.157000
     26 N19        -0.6480   -1.0790   -2.3920 n3        1 0K5     -0.254000
     27 O22        -1.5060   -3.8560    3.9030 o         1 0K5     -0.925500
     28 O24        -1.0260   -1.6950    2.8150 o         1 0K5     -0.925500
     29 O23        -1.6610    1.4470   -3.1320 o         1 0K5     -0.424000
     30 O21         0.5100   -3.5990    2.5020 o         1 0K5     -0.925500
     31 O25        -4.3300   -1.0490   -3.2760 o         1 0K5     -0.296000
     32 O26        -1.0980    3.8590   -1.9540 oh        1 0K5     -0.221000
     33 O29         2.9220    2.4920    3.0440 os        1 0K5     -0.188000
     34 O27        -1.7680   -3.6540    1.3900 os        1 0K5     -0.726000
     35 P28        -0.9380   -3.1940    2.6690 p5        1 0K5      1.578500
     36 H1          4.4960    3.3140    0.7220 ha        1 0K5      0.154000
     37 H2          8.0370    3.0420    2.7740 ha        1 0K5      0.154000
     38 H3          6.8630    3.4160    0.7520 ha        1 0K5      0.154000
     39 H4          6.8520    2.4090    4.7250 ha        1 0K5      0.154000
     40 H5         -3.1190   -4.8780   -0.0430 ha        1 0K5      0.177000
     41 H6          1.7960    4.6960    1.8550 ha        1 0K5      0.121000
     42 H7         -2.4430   -0.5460   -3.0960 h1        1 0K5      0.082000
     43 H8         -1.9350   -1.9550   -3.6560 h1        1 0K5      0.082000
     44 H9         -6.8560   -2.9710   -2.7070 hc        1 0K5      0.070333
     45 H10        -6.4890   -4.4760   -2.2940 hc        1 0K5      0.070333
     46 H11        -6.1010   -3.9290   -3.7510 hc        1 0K5      0.070333
     47 H12         0.2400    4.6970    0.0610 ha        1 0K5      0.126000
     48 H13         4.4920    2.2310    4.6690 ha        1 0K5      0.121000
     49 H14         2.1050    0.5990    1.5920 ha        1 0K5      0.266000
     50 H15         0.8120   -0.7050   -0.1500 ha        1 0K5      0.280000
     51 H16        -0.7540   -2.4800    0.1680 h1        1 0K5      0.054500
     52 H17        -0.7020   -4.0330   -0.2280 h1        1 0K5      0.054500
     53 H18         0.0350   -1.6670   -2.5530 hn        1 0K5      0.259000
     54 H21        -5.2160   -1.0880   -3.4420 ho        1 0K5      0.242000
     55 H22        -1.0420    4.4780   -1.3130 ho        1 0K5      0.219000
@<TRIPOS>BOND
     1    1    3 1   
     2    1   36 1   
     3    2    4 1   
     4    2   37 1   
     5    3   38 1   
     6    4   39 1   
     7    5   24 1   
     8    5   40 1   
     9    6   15 1   
    10    6   23 1   
    11    7   10 1   
    12    7   14 1   
    13    8   12 1   
    14    8   41 1   
    15    9   15 1   
    16    9   26 1   
    17    9   42 1   
    18    9   43 1   
    19   10   12 1   
    20   11   19 1   
    21   11   44 1   
    22   11   45 1   
    23   11   46 1   
    24   12   47 1   
    25   13   16 1   
    26   13   48 1   
    27   14   17 1   
    28   14   49 1   
    29   16   33 1   
    30   17   33 1   
    31   18   19 1   
    32   19   24 1   
    33   20   21 1   
    34   20   50 1   
    35   21   26 1   
    36   22   29 1   
    37   23   34 1   
    38   23   51 1   
    39   23   52 1   
    40   25   32 1   
    41   26   53 1   
    42   27   35 1   
    43   28   35 1   
    44   30   35 1   
    45   31   54 1   
    46   32   55 1   
    47   34   35 1   
@<TRIPOS>SUBSTRUCTURE
     1 0K5         1 TEMP              0 ****  ****    0 ROOT
