@<TRIPOS>MOLECULE
0K6
   63    67     1     0     0
SMALL
bcc


@<TRIPOS>ATOM
      1 O2          6.5230    1.9820   -2.0180 o         1 0K6     -0.587100
      2 C19         6.0940    1.7390   -0.8750 c         1 0K6      0.690300
      3 N7          6.8990    1.8910    0.2280 n         1 0K6     -0.672000
      4 C18         4.6910    1.3090   -0.6360 cc        1 0K6     -0.142300
      5 N6          4.3310    0.0970    0.0030 na        1 0K6     -0.151100
      6 C13         5.2180   -1.0270    0.1920 c3        1 0K6      0.053000
      7 C17         5.2410   -1.5840    1.6330 c3        1 0K6     -0.091900
      8 C16         5.6460   -3.0450    1.5080 c3        1 0K6     -0.077400
      9 C15         5.4650   -3.4570    0.0530 c3        1 0K6     -0.077400
     10 C14         4.9440   -2.2500   -0.7110 c3        1 0K6     -0.091900
     11 C20         3.5630    2.0620   -0.9510 cd        1 0K6     -0.084200
     12 C21         2.4220    1.3080   -0.5210 ca        1 0K6     -0.376400
     13 C12         2.9260    0.0640    0.0520 ca        1 0K6      0.497800
     14 N5          2.1150   -0.9090    0.5560 nb        1 0K6     -0.765000
     15 C22         1.0270    1.4700   -0.5240 ca        1 0K6      0.510200
     16 N8          0.1970    0.5540   -0.0280 nb        1 0K6     -0.739000
     17 C11         0.7670   -0.6070    0.5150 ca        1 0K6      0.877900
     18 N4         -0.0870   -1.5370    1.1570 nh        1 0K6     -0.662300
     19 C10        -1.4280   -1.6520    0.7760 cc        1 0K6      0.034600
     20 C9         -2.0620   -2.8390    0.3230 cd        1 0K6     -0.176300
     21 N3         -3.4120   -2.5800    0.1490 na        1 0K6     -0.015100
     22 C8         -4.3810   -3.5380   -0.2800 c3        1 0K6      0.006600
     23 C23        -2.4440   -0.6370    0.8560 cc        1 0K6     -0.119000
     24 C7         -3.6520   -1.2340    0.4530 cd        1 0K6     -0.178900
     25 C1         -5.0100   -0.6390    0.4520 c         1 0K6      0.698700
     26 O1         -5.9570   -1.2280    1.0190 o         1 0K6     -0.616100
     27 N1         -5.2390    0.5470   -0.2290 n         1 0K6     -0.449800
     28 C6         -4.2150    1.3190   -0.8890 c3        1 0K6      0.080000
     29 C5         -3.9450    2.6810   -0.2110 c3        1 0K6      0.144300
     30 N2         -5.1630    3.4420    0.0290 n3        1 0K6     -0.733600
     31 C4         -4.9050    4.6970    0.6980 c3        1 0K6      0.157100
     32 C3         -6.1990    2.6630    0.6920 c3        1 0K6      0.144300
     33 C2         -6.4550    1.2950    0.0210 c3        1 0K6      0.080000
     34 H1          6.5370    1.7770    1.1390 hn        1 0K6      0.316500
     35 H2          7.8120    2.2550    0.1150 hn        1 0K6      0.316500
     36 H3          6.2600   -0.6590   -0.0520 h1        1 0K6      0.067700
     37 H4          5.9700   -1.0100    2.2550 hc        1 0K6      0.059700
     38 H5          4.2380   -1.5010    2.1200 hc        1 0K6      0.059700
     39 H6          6.7120   -3.1830    1.8210 hc        1 0K6      0.045200
     40 H7          5.0180   -3.6800    2.1820 hc        1 0K6      0.045200
     41 H8          6.4400   -3.8000   -0.3780 hc        1 0K6      0.045200
     42 H9          4.7460   -4.3110   -0.0310 hc        1 0K6      0.045200
     43 H10         3.8510   -2.3660   -0.9200 hc        1 0K6      0.059700
     44 H11         5.4660   -2.1290   -1.6920 hc        1 0K6      0.059700
     45 H12         3.5520    3.0370   -1.4330 ha        1 0K6      0.170000
     46 H13         0.5560    2.3770   -0.9470 h4        1 0K6      0.028100
     47 H14         0.3450   -2.4180    1.3600 hn        1 0K6      0.430800
     48 H15        -1.6420   -3.8280    0.1410 h4        1 0K6      0.171000
     49 H16        -4.4490   -3.5410   -1.4020 h1        1 0K6      0.066033
     50 H17        -4.0790   -4.5610    0.0700 h1        1 0K6      0.066033
     51 H18        -5.3870   -3.2780    0.1510 h1        1 0K6      0.066033
     52 H19        -2.3020    0.3950    1.1690 ha        1 0K6      0.173000
     53 H20        -3.2460    0.7510   -0.9430 h1        1 0K6      0.070950
     54 H21        -4.5690    1.5070   -1.9450 h1        1 0K6      0.070950
     55 H22        -3.3640    2.5030    0.7410 h1        1 0K6      0.039950
     56 H23        -3.2950    3.2850   -0.9030 h1        1 0K6      0.039950
     57 H25        -4.1730    5.2870    0.0870 h1        1 0K6      0.033033
     58 H26        -5.8650    5.2730    0.7660 h1        1 0K6      0.033033
     59 H27        -4.4880    4.5740    1.7350 h1        1 0K6      0.033033
     60 H28        -5.9600    2.4920    1.7820 h1        1 0K6      0.039950
     61 H29        -7.1560    3.2530    0.6370 h1        1 0K6      0.039950
     62 H30        -6.9620    1.4610   -0.9720 h1        1 0K6      0.070950
     63 H31        -7.1450    0.7000    0.6830 h1        1 0K6      0.070950
@<TRIPOS>BOND
     1    1    2 2   
     2    2    3 1   
     3    2    4 1   
     4    3   34 1   
     5    3   35 1   
     6    4    5 1   
     7    4   11 2   
     8    5    6 1   
     9    5   13 1   
    10    6    7 1   
    11    6   10 1   
    12    6   36 1   
    13    7    8 1   
    14    7   37 1   
    15    7   38 1   
    16    8    9 1   
    17    8   39 1   
    18    8   40 1   
    19    9   10 1   
    20    9   41 1   
    21    9   42 1   
    22   10   43 1   
    23   10   44 1   
    24   11   12 1   
    25   11   45 1   
    26   12   13 ar  
    27   12   15 ar  
    28   13   14 ar  
    29   14   17 ar  
    30   15   16 ar  
    31   15   46 1   
    32   16   17 ar  
    33   17   18 1   
    34   18   19 1   
    35   18   47 1   
    36   19   20 2   
    37   19   23 1   
    38   20   21 1   
    39   20   48 1   
    40   21   22 1   
    41   21   24 1   
    42   22   49 1   
    43   22   50 1   
    44   22   51 1   
    45   23   24 2   
    46   23   52 1   
    47   24   25 1   
    48   25   26 2   
    49   25   27 1   
    50   27   28 1   
    51   27   33 1   
    52   28   29 1   
    53   28   53 1   
    54   28   54 1   
    55   29   30 1   
    56   29   55 1   
    57   29   56 1   
    58   30   31 1   
    59   30   32 1   
    60   31   57 1   
    61   31   58 1   
    62   31   59 1   
    63   32   33 1   
    64   32   60 1   
    65   32   61 1   
    66   33   62 1   
    67   33   63 1   
@<TRIPOS>SUBSTRUCTURE
     1 0K6         1 TEMP              0 ****  ****    0 ROOT
