@<TRIPOS>MOLECULE
0K6
   64    68     1     0     0
SMALL
bcc


@<TRIPOS>ATOM
      1 O2          0.3810    0.5830    1.0060 o         1 0K6     -0.449100
      2 C19         1.5100    0.7600    0.5650 c         1 0K6      0.596300
      3 N7          2.3940    1.6170    1.4730 nz        1 0K6     -0.760400
      4 C18         2.0900    0.3770   -0.6820 cc        1 0K6     -0.317300
      5 N6          3.5070    0.2920   -0.9450 na        1 0K6     -0.157100
      6 C13         4.3430   -0.5280   -0.0720 c3        1 0K6      0.030000
      7 C17         4.5480   -2.0050   -0.4710 c3        1 0K6     -0.089400
      8 C16         5.8820   -2.4150    0.1360 c3        1 0K6     -0.080900
      9 C15         6.6400   -1.1430    0.4940 c3        1 0K6     -0.080900
     10 C14         5.7630    0.0430    0.1220 c3        1 0K6     -0.089400
     11 C20         1.3370    0.3000   -1.8760 cd        1 0K6      0.102800
     12 C21         2.2560    0.1740   -2.9410 ca        1 0K6     -0.459400
     13 C12         3.6040    0.1400   -2.3630 ca        1 0K6      0.562800
     14 N5          4.7280    0.0540   -3.0970 nb        1 0K6     -0.785000
     15 C22         2.1780    0.0930   -4.3550 ca        1 0K6      0.559200
     16 N8          3.2470    0.0030   -5.1220 nb        1 0K6     -0.724000
     17 C11         4.5160   -0.0060   -4.4860 ca        1 0K6      0.945900
     18 N4          5.6460   -0.0970   -5.2550 nu        1 0K6     -0.632300
     19 C10         5.6620   -0.1540   -6.6500 cc        1 0K6     -0.002400
     20 C9          6.5600    0.5800   -7.4730 cd        1 0K6     -0.138300
     21 N3          6.3330    0.2220   -8.7880 na        1 0K6     -0.001100
     22 C8          7.0590    0.7280   -9.9150 c3        1 0K6     -0.002400
     23 C23         4.8570   -0.9710   -7.5190 cc        1 0K6     -0.128000
     24 C7          5.2910   -0.7130   -8.8300 cd        1 0K6     -0.157900
     25 C1          4.8700   -1.3850  -10.0880 c         1 0K6      0.691700
     26 O1          5.7330   -1.9180  -10.8190 o         1 0K6     -0.599100
     27 N1          3.5400   -1.3590  -10.4670 n         1 0K6     -0.445800
     28 C6          2.4720   -0.8220   -9.6590 c3        1 0K6      0.079000
     29 C5          1.4760   -1.8990   -9.1750 c3        1 0K6      0.146800
     30 N2          0.9960   -2.7450  -10.2560 n3        1 0K6     -0.733600
     31 C4          0.0770   -3.7620   -9.8010 c3        1 0K6      0.157100
     32 C3          2.0720   -3.2890  -11.0720 c3        1 0K6      0.146800
     33 C2          3.0800   -2.2180  -11.5420 c3        1 0K6      0.079000
     34 H1          3.1780    1.0700    1.8350 hn        1 0K6      0.462133
     35 H2          2.7680    2.4020    0.9320 hn        1 0K6      0.462133
     36 H3          3.8340   -0.5520    0.9380 h1        1 0K6      0.020700
     37 H4          4.5750   -2.1330   -1.5810 hc        1 0K6      0.060450
     38 H5          3.7100   -2.6340   -0.0800 hc        1 0K6      0.060450
     39 H6          5.7190   -3.0410    1.0490 hc        1 0K6      0.058700
     40 H7          6.4650   -3.0340   -0.5910 hc        1 0K6      0.058700
     41 H8          7.6130   -1.0930   -0.0570 hc        1 0K6      0.058700
     42 H9          6.8790   -1.1270    1.5880 hc        1 0K6      0.058700
     43 H10         6.1410    0.5250   -0.8160 hc        1 0K6      0.060450
     44 H11         5.7630    0.8200    0.9250 hc        1 0K6      0.060450
     45 H12         0.2490    0.3730   -1.9460 ha        1 0K6      0.186000
     46 H13         1.1980    0.1080   -4.8730 h4        1 0K6      0.049100
     47 H14         6.5370   -0.0670   -4.8010 hn        1 0K6      0.473800
     48 H15         7.3280    1.3040   -7.1970 h4        1 0K6      0.182000
     49 H16         8.0920    1.0250   -9.5940 h1        1 0K6      0.076367
     50 H17         7.1270   -0.0710  -10.7060 h1        1 0K6      0.076367
     51 H18         6.5300    1.6250  -10.3380 h1        1 0K6      0.076367
     52 H19         4.0670   -1.6570   -7.2240 ha        1 0K6      0.172000
     53 H20         2.8750   -0.2810   -8.7600 h1        1 0K6      0.072700
     54 H21         1.9140   -0.0750  -10.2960 h1        1 0K6      0.072700
     55 H22         0.5860   -1.3690   -8.7340 h1        1 0K6      0.039450
     56 H23         1.9630   -2.5000   -8.3510 h1        1 0K6      0.039450
     57 H25        -0.3190   -4.3150  -10.6930 h1        1 0K6      0.036033
     58 H26        -0.7800   -3.2650   -9.2750 h1        1 0K6      0.036033
     59 H27         0.5460   -4.5050   -9.0990 h1        1 0K6      0.036033
     60 H28         1.6070   -3.7430  -11.9920 h1        1 0K6      0.039450
     61 H29         2.6350   -4.1050  -10.5310 h1        1 0K6      0.039450
     62 H30         3.9550   -2.7400  -12.0210 h1        1 0K6      0.072700
     63 H31         2.5870   -1.5590  -12.3130 h1        1 0K6      0.072700
     64 H73         1.8380    1.9720    2.2580 hn        1 0K6      0.462133
@<TRIPOS>BOND
     1    1    2 2   
     2    2    3 1   
     3    2    4 1   
     4    3   34 1   
     5    3   35 1   
     6    3   64 1   
     7    4    5 1   
     8    4   11 2   
     9    5    6 1   
    10    5   13 1   
    11    6    7 1   
    12    6   10 1   
    13    6   36 1   
    14    7    8 1   
    15    7   37 1   
    16    7   38 1   
    17    8    9 1   
    18    8   39 1   
    19    8   40 1   
    20    9   10 1   
    21    9   41 1   
    22    9   42 1   
    23   10   43 1   
    24   10   44 1   
    25   11   12 1   
    26   11   45 1   
    27   12   13 ar  
    28   12   15 ar  
    29   13   14 ar  
    30   14   17 ar  
    31   15   16 ar  
    32   15   46 1   
    33   16   17 ar  
    34   17   18 1   
    35   18   19 1   
    36   18   47 1   
    37   19   20 2   
    38   19   23 1   
    39   20   21 1   
    40   20   48 1   
    41   21   22 1   
    42   21   24 1   
    43   22   49 1   
    44   22   50 1   
    45   22   51 1   
    46   23   24 2   
    47   23   52 1   
    48   24   25 1   
    49   25   26 2   
    50   25   27 1   
    51   27   28 1   
    52   27   33 1   
    53   28   29 1   
    54   28   53 1   
    55   28   54 1   
    56   29   30 1   
    57   29   55 1   
    58   29   56 1   
    59   30   31 1   
    60   30   32 1   
    61   31   57 1   
    62   31   58 1   
    63   31   59 1   
    64   32   33 1   
    65   32   60 1   
    66   32   61 1   
    67   33   62 1   
    68   33   63 1   
@<TRIPOS>SUBSTRUCTURE
     1 0K6         1 TEMP              0 ****  ****    0 ROOT
