@<TRIPOS>MOLECULE
0K6
   64    68     1     0     0
SMALL
bcc


@<TRIPOS>ATOM
      1 O2          0.3270    0.4190    0.9470 o         1 0K6     -0.448100
      2 C19         1.3280   -0.1700    0.5560 c         1 0K6      0.596300
      3 N7          1.8240   -1.2430    1.5280 n4        1 0K6     -0.760400
      4 C18         2.0360   -0.0800   -0.6800 cc        1 0K6     -0.317300
      5 N6          3.3960   -0.5180   -0.8900 na        1 0K6     -0.157100
      6 C13         4.4480   -0.0090   -0.0150 c3        1 0K6      0.031000
      7 C17         5.5680   -1.0370    0.2520 c3        1 0K6     -0.089400
      8 C16         6.8010   -0.2230    0.6140 c3        1 0K6     -0.080900
      9 C15         6.5520    1.2180    0.1860 c3        1 0K6     -0.080900
     10 C14         5.1740    1.2800   -0.4560 c3        1 0K6     -0.089400
     11 C20         1.3890    0.2010   -1.9050 cd        1 0K6      0.101800
     12 C21         2.3160   -0.0620   -2.9360 ca        1 0K6     -0.459400
     13 C12         3.5740   -0.4800   -2.3080 ca        1 0K6      0.562800
     14 N5          4.6730   -0.8290   -2.9990 nb        1 0K6     -0.785000
     15 C22         2.3040   -0.0310   -4.3540 ca        1 0K6      0.559200
     16 N8          3.3510   -0.3720   -5.0820 nb        1 0K6     -0.724000
     17 C11         4.5270   -0.7740   -4.3970 ca        1 0K6      0.945900
     18 N4          5.6220   -1.1600   -5.1240 nh        1 0K6     -0.631300
     19 C10         5.7100   -1.1330   -6.5170 cc        1 0K6     -0.001400
     20 C9          6.8410   -0.6620   -7.2390 cd        1 0K6     -0.139300
     21 N3          6.6040   -0.8520   -8.5870 na        1 0K6     -0.001100
     22 C8          7.5210   -0.5260   -9.6380 c3        1 0K6     -0.002400
     23 C23         4.7540   -1.6070   -7.4810 cc        1 0K6     -0.127000
     24 C7          5.3320   -1.4150   -8.7480 cd        1 0K6     -0.157900
     25 C1          4.8110   -1.8460  -10.0720 c         1 0K6      0.691700
     26 O1          5.5120   -2.5790  -10.8010 o         1 0K6     -0.599100
     27 N1          3.5830   -1.3810  -10.5080 n         1 0K6     -0.446800
     28 C6          2.6830   -0.5830   -9.7110 c3        1 0K6      0.079500
     29 C5          1.3670   -1.3150   -9.3650 c3        1 0K6      0.147300
     30 N2          0.7250   -1.8980  -10.5330 n3        1 0K6     -0.733600
     31 C4         -0.4970   -2.5950  -10.2060 c3        1 0K6      0.157100
     32 C3          1.6320   -2.7040  -11.3370 c3        1 0K6      0.147300
     33 C2          2.9550   -1.9820  -11.6700 c3        1 0K6      0.079500
     34 H1          1.1570   -1.3410    2.3010 hn        1 0K6      0.462133
     35 H2          1.9090   -2.1330    1.0300 hn        1 0K6      0.462133
     36 H3          3.9580    0.2390    0.9740 h1        1 0K6      0.020700
     37 H4          5.2730   -1.7240    1.0820 hc        1 0K6      0.060700
     38 H5          5.7700   -1.6640   -0.6540 hc        1 0K6      0.060700
     39 H6          7.7040   -0.6390    0.1010 hc        1 0K6      0.058450
     40 H7          6.9950   -0.2740    1.7160 hc        1 0K6      0.058450
     41 H8          6.6010    1.9010    1.0710 hc        1 0K6      0.058450
     42 H9          7.3330    1.5580   -0.5390 hc        1 0K6      0.058450
     43 H10         4.6060    2.1820   -0.1180 hc        1 0K6      0.060700
     44 H11         5.2700    1.3400   -1.5690 hc        1 0K6      0.060700
     45 H12         0.3480    0.5170   -2.0140 ha        1 0K6      0.186000
     46 H13         1.3970    0.2810   -4.9100 h4        1 0K6      0.049100
     47 H14         6.4570   -1.4110   -4.6310 hn        1 0K6      0.473800
     48 H15         7.7730   -0.2280   -6.8740 h4        1 0K6      0.182000
     49 H16         8.5730   -0.5850   -9.2510 h1        1 0K6      0.076367
     50 H17         7.3220    0.5160  -10.0090 h1        1 0K6      0.076367
     51 H18         7.3930   -1.2540  -10.4870 h1        1 0K6      0.076367
     52 H19         3.7760   -2.0340   -7.2770 ha        1 0K6      0.172000
     53 H20         3.1700   -0.2550   -8.7530 h1        1 0K6      0.072700
     54 H21         2.4340    0.3410  -10.3120 h1        1 0K6      0.072700
     55 H22         0.6600   -0.5580   -8.9270 h1        1 0K6      0.039450
     56 H23         1.5810   -2.0890   -8.5690 h1        1 0K6      0.039450
     57 H25        -1.1900   -1.8840   -9.6840 h1        1 0K6      0.035367
     58 H26        -0.3360   -3.4900   -9.5430 h1        1 0K6      0.035367
     59 H27        -0.9810   -2.9380  -11.1580 h1        1 0K6      0.035367
     60 H28         1.8710   -3.6880  -10.8370 h1        1 0K6      0.039450
     61 H29         1.1140   -2.9290  -12.3110 h1        1 0K6      0.039450
     62 H30         2.7490   -1.1550  -12.4080 h1        1 0K6      0.072700
     63 H31         3.6550   -2.7240  -12.1460 h1        1 0K6      0.072700
     64 H73         2.7420   -0.9930    1.9050 hn        1 0K6      0.462133
@<TRIPOS>BOND
     1    1    2 2   
     2    2    3 1   
     3    2    4 1   
     4    3   34 1   
     5    3   35 1   
     6    3   64 1   
     7    4    5 1   
     8    4   11 2   
     9    5    6 1   
    10    5   13 1   
    11    6    7 1   
    12    6   10 1   
    13    6   36 1   
    14    7    8 1   
    15    7   37 1   
    16    7   38 1   
    17    8    9 1   
    18    8   39 1   
    19    8   40 1   
    20    9   10 1   
    21    9   41 1   
    22    9   42 1   
    23   10   43 1   
    24   10   44 1   
    25   11   12 1   
    26   11   45 1   
    27   12   13 ar  
    28   12   15 ar  
    29   13   14 ar  
    30   14   17 ar  
    31   15   16 ar  
    32   15   46 1   
    33   16   17 ar  
    34   17   18 1   
    35   18   19 1   
    36   18   47 1   
    37   19   20 2   
    38   19   23 1   
    39   20   21 1   
    40   20   48 1   
    41   21   22 1   
    42   21   24 1   
    43   22   49 1   
    44   22   50 1   
    45   22   51 1   
    46   23   24 2   
    47   23   52 1   
    48   24   25 1   
    49   25   26 2   
    50   25   27 1   
    51   27   28 1   
    52   27   33 1   
    53   28   29 1   
    54   28   53 1   
    55   28   54 1   
    56   29   30 1   
    57   29   55 1   
    58   29   56 1   
    59   30   31 1   
    60   30   32 1   
    61   31   57 1   
    62   31   58 1   
    63   31   59 1   
    64   32   33 1   
    65   32   60 1   
    66   32   61 1   
    67   33   62 1   
    68   33   63 1   
@<TRIPOS>SUBSTRUCTURE
     1 0K6         1 TEMP              0 ****  ****    0 ROOT
