@<TRIPOS>MOLECULE
0K6
   63    56     1     0     0
SMALL
bcc


@<TRIPOS>ATOM
      1 O2         -3.6200   -1.0430    7.1110 o         1 0K6     -0.371000
      2 C19        -2.6420   -0.3800    6.8260 c1        1 0K6      0.369000
      3 N7         -2.0440    0.4610    7.8050 n2        1 0K6     -0.428000
      4 C18        -2.0190   -0.5010    5.4430 c2        1 0K6     -0.087000
      5 N6         -1.3200   -1.2810    4.5750 n2        1 0K6     -0.110000
      6 C13        -0.6870   -2.4930    5.0880 c2        1 0K6      0.023000
      7 C17        -0.9600   -3.4990    4.3130 c3        1 0K6     -0.168500
      8 C16         0.3450   -4.4240    4.3560 c3        1 0K6     -0.154500
      9 C15         1.4490   -3.5590    5.0400 c3        1 0K6     -0.154500
     10 C14         0.9520   -2.3270    5.0690 c3        1 0K6     -0.168500
     11 C20        -2.5290    0.5650    4.7400 c1        1 0K6     -0.122000
     12 C21        -2.1340    0.4330    3.4190 c1        1 0K6     -0.236000
     13 C12        -1.3930   -0.6980    3.3150 c1        1 0K6      0.105000
     14 N5         -0.8130   -1.0240    2.1260 n1        1 0K6     -0.236000
     15 C22        -2.3000    1.2550    2.3140 c1        1 0K6      0.047000
     16 N8         -1.7250    0.9300    1.1400 n1        1 0K6     -0.216000
     17 C11        -0.9780   -0.2100    1.0360 c1        1 0K6      0.157000
     18 N4         -0.4560   -0.5070   -0.2680 n3        1 0K6     -0.181000
     19 C10        -0.8790    0.2670   -1.4030 c2        1 0K6     -0.058000
     20 C9         -2.1770    0.4390   -1.8250 c1        1 0K6     -0.080000
     21 N3         -2.1510    1.1390   -2.9980 n2        1 0K6     -0.092000
     22 C8         -3.2840    1.6250   -3.7010 c2        1 0K6     -0.091000
     23 C23        -0.0580    0.8610   -2.3160 c1        1 0K6     -0.185000
     24 C7         -0.8440    1.4020   -3.3050 c1        1 0K6     -0.124000
     25 C1         -0.3350    2.0780   -4.6070 c1        1 0K6      0.371000
     26 O1         -1.1280    2.4240   -5.4630 o         1 0K6     -0.372000
     27 N1          1.0840    2.2670   -4.8180 n2        1 0K6     -0.311000
     28 C6          1.6210    2.8480   -5.9970 c3        1 0K6     -0.034500
     29 C5          2.7070    1.9850   -6.6190 c3        1 0K6     -0.092000
     30 N2          3.7120    1.6080   -5.6680 n3        1 0K6     -0.258000
     31 C4          4.6300    0.6720   -6.2800 c3        1 0K6     -0.119000
     32 C3          3.1510    1.0230   -4.4830 c3        1 0K6     -0.092000
     33 C2          2.0610    1.8910   -3.8710 c3        1 0K6     -0.034500
     34 H1         -2.4590    0.5930    8.6110 hn        1 0K6      0.231500
     35 H2         -1.2250    0.8390    7.6450 hn        1 0K6      0.231500
     36 H3         -0.9960   -2.6750    5.9960 ha        1 0K6      0.140000
     37 H4         -1.7360   -3.9910    4.6550 hc        1 0K6      0.097750
     38 H5         -1.1280   -3.1900    3.3990 hc        1 0K6      0.097750
     39 H6          0.1720   -5.2290    4.8810 hc        1 0K6      0.083000
     40 H7          0.6200   -4.6660    3.4440 hc        1 0K6      0.083000
     41 H8          1.6150   -3.8790    5.9480 hc        1 0K6      0.083000
     42 H9          2.2780   -3.5820    4.5110 hc        1 0K6      0.083000
     43 H10         1.2520   -1.8620    5.8770 hc        1 0K6      0.097750
     44 H11         1.2320   -1.8320    4.2700 hc        1 0K6      0.097750
     45 H12        -3.0220    1.3200    5.1190 DU        1 0K6      0.167667
     46 H13        -2.8330    2.0680    2.3870 ha        1 0K6      0.163000
     47 H14         0.1060   -1.2140   -0.3830 hn        1 0K6      0.230000
     48 H15        -2.9750    0.0720   -1.3930 DU        1 0K6      0.167667
     49 H16        -3.2010    1.4010   -4.6480 ha        1 0K6      0.104667
     50 H17        -4.0980    1.2120   -3.3370 ha        1 0K6      0.104667
     51 H18        -3.3390    2.6010   -3.6000 ha        1 0K6      0.104667
     52 H19         0.9120    0.8950   -2.2750 DU        1 0K6      0.167667
     53 H20         2.0000    3.7290   -5.7750 h1        1 0K6      0.109000
     54 H21         0.9010    2.9670   -6.6460 h1        1 0K6      0.109000
     55 H22         3.1320    2.4870   -7.3500 h1        1 0K6      0.078250
     56 H23         2.2990    1.1790   -6.9840 h1        1 0K6      0.078250
     57 H25         4.1730   -0.1810   -6.4330 h1        1 0K6      0.073000
     58 H26         5.3990    0.5300   -5.6830 h1        1 0K6      0.073000
     59 H27         4.9450    1.0360   -7.1420 h1        1 0K6      0.073000
     60 H28         2.7710    0.1510   -4.7100 h1        1 0K6      0.078250
     61 H29         3.8620    0.8970   -3.8250 h1        1 0K6      0.078250
     62 H30         2.4710    2.7000   -3.4990 h1        1 0K6      0.109000
     63 H31         1.6300    1.3970   -3.1530 h1        1 0K6      0.109000
@<TRIPOS>BOND
     1    1    2 1   
     2    2    4 1   
     3    3   34 1   
     4    3   35 1   
     5    4    5 1   
     6    4   11 1   
     7    5   13 1   
     8    6    7 1   
     9    6   10 1   
    10    6   36 1   
    11    7    8 1   
    12    7   37 1   
    13    7   38 1   
    14    8    9 1   
    15    8   39 1   
    16    8   40 1   
    17    9   10 1   
    18    9   41 1   
    19    9   42 1   
    20   10   43 1   
    21   10   44 1   
    22   11   12 1   
    23   12   15 1   
    24   13   14 1   
    25   15   46 1   
    26   16   17 1   
    27   17   18 1   
    28   18   19 1   
    29   18   47 1   
    30   19   20 1   
    31   19   23 1   
    32   20   21 1   
    33   21   24 1   
    34   22   49 1   
    35   22   50 1   
    36   22   51 1   
    37   23   24 1   
    38   25   26 1   
    39   27   28 1   
    40   27   33 1   
    41   28   29 1   
    42   28   53 1   
    43   28   54 1   
    44   29   30 1   
    45   29   55 1   
    46   29   56 1   
    47   30   31 1   
    48   30   32 1   
    49   31   57 1   
    50   31   58 1   
    51   31   59 1   
    52   32   33 1   
    53   32   60 1   
    54   32   61 1   
    55   33   62 1   
    56   33   63 1   
@<TRIPOS>SUBSTRUCTURE
     1 0K6         1 TEMP              0 ****  ****    0 ROOT
