@<TRIPOS>MOLECULE
0K6
   65    69     1     0     0
SMALL
bcc


@<TRIPOS>ATOM
      1 O2          2.7340    2.2250    1.5680 o         1 0K6     -0.338100
      2 C19         2.5020    1.6590    0.5170 c         1 0K6      0.588300
      3 N7          1.1950    0.8860    0.4640 n4        1 0K6     -0.762400
      4 C18         3.2620    1.6810   -0.7290 cc        1 0K6     -0.207300
      5 N6          3.7770    0.5320   -1.3810 na        1 0K6     -0.125100
      6 C13         3.9470   -0.7680   -0.7500 c3        1 0K6      0.035000
      7 C17         3.3440   -1.9410   -1.5500 c3        1 0K6     -0.087900
      8 C16         4.1300   -3.1740   -1.1260 c3        1 0K6     -0.084400
      9 C15         5.4050   -2.7010   -0.4390 c3        1 0K6     -0.084400
     10 C14         5.4040   -1.1790   -0.4420 c3        1 0K6     -0.087900
     11 C20         3.5640    2.8530   -1.4380 cd        1 0K6      0.003800
     12 C21         4.3130    2.4510   -2.5870 ca        1 0K6     -0.333400
     13 C12         4.4550    0.9970   -2.5160 ca        1 0K6      0.498800
     14 N5          5.1360    0.2760   -3.4690 nb        1 0K6     -0.667000
     15 C22         4.9170    3.1050   -3.6840 ca        1 0K6      0.554200
     16 N8          5.5910    2.4270   -4.6140 nb        1 0K6     -0.685000
     17 C11         5.6650    1.0470   -4.4550 ca        1 0K6      0.764900
     18 N4          6.4450    0.3210   -5.5180 n4        1 0K6     -0.552100
     19 C10         5.8180    0.3790   -6.8050 cc        1 0K6     -0.210400
     20 C9          5.7760    1.5040   -7.6740 cd        1 0K6     -0.053300
     21 N3          5.1650    1.1120   -8.8390 na        1 0K6      0.019900
     22 C8          4.9700    1.9450   -9.9960 c3        1 0K6     -0.016400
     23 C23         5.1860   -0.7270   -7.4820 cc        1 0K6     -0.134000
     24 C7          4.8010   -0.2430   -8.7390 cd        1 0K6     -0.115900
     25 C1          4.2600   -1.0030   -9.9090 c         1 0K6      0.678700
     26 O1          4.9010   -0.9630  -10.9790 o         1 0K6     -0.571100
     27 N1          3.0530   -1.6560   -9.8020 n         1 0K6     -0.436800
     28 C6          2.3220   -1.8320   -8.5700 c3        1 0K6      0.078000
     29 C5          2.2280   -3.3110   -8.1260 c3        1 0K6      0.148300
     30 N2          1.7490   -4.1760   -9.1900 n3        1 0K6     -0.732600
     31 C4          1.6310   -5.5570   -8.7820 c3        1 0K6      0.155100
     32 C3          2.4970   -4.0140  -10.4290 c3        1 0K6      0.148300
     33 C2          2.6170   -2.5420  -10.8730 c3        1 0K6      0.078000
     34 H1          1.3510   -0.0660    0.1160 hn        1 0K6      0.477467
     35 H2          0.5410    1.3640   -0.1670 hn        1 0K6      0.477467
     36 H3          3.4110   -0.7030    0.2450 h1        1 0K6      0.036700
     37 H4          3.4430   -1.7790   -2.6520 hc        1 0K6      0.063200
     38 H5          2.2560   -2.0510   -1.3200 hc        1 0K6      0.063200
     39 H6          4.3680   -3.8070   -2.0180 hc        1 0K6      0.071950
     40 H7          3.5230   -3.8050   -0.4280 hc        1 0K6      0.071950
     41 H8          5.4500   -3.0900    0.6110 hc        1 0K6      0.071950
     42 H9          6.3120   -3.0890   -0.9700 hc        1 0K6      0.071950
     43 H10         6.1140   -0.7910   -1.2130 hc        1 0K6      0.063200
     44 H11         5.7240   -0.7690    0.5480 hc        1 0K6      0.063200
     45 H12         3.2830    3.8750   -1.1690 ha        1 0K6      0.208000
     46 H13         4.8620    4.2070   -3.8170 h4        1 0K6      0.084100
     47 H14         6.5520   -0.6700   -5.2500 hn        1 0K6      0.483800
     48 H15         6.1430    2.5240   -7.5140 h4        1 0K6      0.208000
     49 H16         5.6700    2.8210   -9.9540 h1        1 0K6      0.095033
     50 H17         5.1770    1.3410  -10.9260 h1        1 0K6      0.095033
     51 H18         3.9080    2.3120  -10.0200 h1        1 0K6      0.095033
     52 H19         5.0550   -1.7420   -7.1110 ha        1 0K6      0.181000
     53 H20         1.2780   -1.4390   -8.7420 h1        1 0K6      0.072700
     54 H21         2.7870   -1.2400   -7.7360 h1        1 0K6      0.072700
     55 H22         1.4900   -3.3670   -7.2780 h1        1 0K6      0.043450
     56 H23         3.2350   -3.6360   -7.7300 h1        1 0K6      0.043450
     57 H25         0.9500   -5.6150   -7.8930 h1        1 0K6      0.042700
     58 H26         1.1750   -6.1420   -9.6240 h1        1 0K6      0.042700
     59 H27         2.6180   -6.0260   -8.5110 h1        1 0K6      0.042700
     60 H28         3.5310   -4.4600  -10.3540 h1        1 0K6      0.043450
     61 H29         1.9400   -4.5660  -11.2380 h1        1 0K6      0.043450
     62 H30         3.3390   -2.4880  -11.7360 h1        1 0K6      0.072700
     63 H31         1.6100   -2.1720  -11.2190 h1        1 0K6      0.072700
     64 H73         0.7730    0.8410    1.4030 hn        1 0K6      0.477467
     65 H42         7.3770    0.7630   -5.5770 hn        1 0K6      0.483800
@<TRIPOS>BOND
     1    1    2 2   
     2    2    3 1   
     3    2    4 1   
     4    3   34 1   
     5    3   35 1   
     6    3   64 1   
     7    4    5 1   
     8    4   11 2   
     9    5    6 1   
    10    5   13 1   
    11    6    7 1   
    12    6   10 1   
    13    6   36 1   
    14    7    8 1   
    15    7   37 1   
    16    7   38 1   
    17    8    9 1   
    18    8   39 1   
    19    8   40 1   
    20    9   10 1   
    21    9   41 1   
    22    9   42 1   
    23   10   43 1   
    24   10   44 1   
    25   11   12 1   
    26   11   45 1   
    27   12   13 ar  
    28   12   15 ar  
    29   13   14 ar  
    30   14   17 ar  
    31   15   16 ar  
    32   15   46 1   
    33   16   17 ar  
    34   17   18 1   
    35   18   19 1   
    36   18   47 1   
    37   18   65 1   
    38   19   20 2   
    39   19   23 1   
    40   20   21 1   
    41   20   48 1   
    42   21   22 1   
    43   21   24 1   
    44   22   49 1   
    45   22   50 1   
    46   22   51 1   
    47   23   24 2   
    48   23   52 1   
    49   24   25 1   
    50   25   26 2   
    51   25   27 1   
    52   27   28 1   
    53   27   33 1   
    54   28   29 1   
    55   28   53 1   
    56   28   54 1   
    57   29   30 1   
    58   29   55 1   
    59   29   56 1   
    60   30   31 1   
    61   30   32 1   
    62   31   57 1   
    63   31   58 1   
    64   31   59 1   
    65   32   33 1   
    66   32   60 1   
    67   32   61 1   
    68   33   62 1   
    69   33   63 1   
@<TRIPOS>SUBSTRUCTURE
     1 0K6         1 TEMP              0 ****  ****    0 ROOT
