@<TRIPOS>MOLECULE
0K7
   23    19     1     0     0
SMALL
bcc


@<TRIPOS>ATOM
      1 CAF         0.8160   -0.1130   -1.1990 c1        1 0K7     -0.133000
      2 CAD         2.2020   -0.1190   -1.2070 c1        1 0K7     -0.136000
      3 CAL         2.9030   -0.1520   -0.0120 c1        1 0K7     -0.090000
      4 CAA         4.4150   -0.0970   -0.0200 c2        1 0K7     -0.170000
      5 CAE         2.2170   -0.1790    1.1930 c2        1 0K7     -0.138000
      6 CAG         0.8310   -0.1730    1.2010 c1        1 0K7     -0.095000
      7 CAM         0.1310   -0.1400    0.0060 c1        1 0K7      0.016000
      8 CAO        -1.3820   -0.1790    0.0140 c2        1 0K7     -0.254000
      9 NAI        -2.2520    0.9530    0.0660 n2        1 0K7     -0.076000
     10 SAJ        -2.2580   -1.4480   -0.0610 ss        1 0K7      0.330000
     11 CAH        -3.7150   -1.0000   -0.0510 c1        1 0K7     -0.429000
     12 CAN        -3.7350    0.4410    0.0250 c1        1 0K7     -0.077000
     13 CAK        -4.9730    1.3090    0.0610 c1        1 0K7      0.399000
     14 OAC        -5.4890    1.7160   -1.0140 o         1 0K7     -0.540500
     15 OAB        -5.5040    1.6030    1.1640 o         1 0K7     -0.540500
     16 H1          0.3230   -0.0900   -2.0410 ha        1 0K7      0.134000
     17 H2          2.6850   -0.1000   -2.0560 ha        1 0K7      0.119000
     18 H3          4.7200    0.4020   -0.8070 ha        1 0K7      0.073667
     19 H4          4.7300    0.3500    0.7930 ha        1 0K7      0.073667
     20 H5          4.7740   -1.0090   -0.0520 ha        1 0K7      0.073667
     21 H6          2.7100   -0.2020    2.0350 ha        1 0K7      0.123000
     22 H7          0.3490   -0.1910    2.0490 ha        1 0K7      0.163000
     23 H8         -4.4960   -1.5840   -0.0890 DU        1 0K7      0.174000
@<TRIPOS>BOND
     1    1    7 1   
     2    1   16 1   
     3    2    3 1   
     4    2   17 1   
     5    3    5 1   
     6    4   18 1   
     7    4   19 1   
     8    4   20 1   
     9    5    6 1   
    10    5   21 1   
    11    6   22 1   
    12    7    8 1   
    13    8    9 1   
    14    8   10 1   
    15    9   12 1   
    16   10   11 1   
    17   11   12 1   
    18   13   14 1   
    19   13   15 1   
@<TRIPOS>SUBSTRUCTURE
     1 0K7         1 TEMP              0 ****  ****    0 ROOT
