@<TRIPOS>MOLECULE
0K7
   23    24     1     0     0
SMALL
bcc


@<TRIPOS>ATOM
      1 CAF        -0.0420    0.1590    0.0570 ca        1 0K7     -0.114000
      2 CAD         1.3460    0.0900   -0.0090 ca        1 0K7     -0.137000
      3 CAL         2.1050   -0.0940    1.1520 ca        1 0K7     -0.097300
      4 CAA         3.5810   -0.1840    1.0790 c3        1 0K7     -0.044800
      5 CAE         1.4460   -0.2070    2.3810 ca        1 0K7     -0.137000
      6 CAG         0.0580   -0.1380    2.4540 ca        1 0K7     -0.114000
      7 CAM        -0.7040    0.0460    1.2900 ca        1 0K7     -0.091500
      8 CAO        -2.1540    0.1220    1.3460 cc        1 0K7      0.430900
      9 NAI        -2.9000   -0.0720    2.4380 nd        1 0K7     -0.602000
     10 SAJ        -3.0800    0.4950   -0.0790 ss        1 0K7     -0.254300
     11 CAH        -4.5060    0.3890    0.8090 cc        1 0K7     -0.224400
     12 CAN        -4.2460    0.0790    2.1370 cd        1 0K7      0.340800
     13 CAK        -5.3470   -0.0830    3.1980 c         1 0K7      0.840100
     14 OAC        -5.6600    0.9440    3.8520 o         1 0K7     -0.805800
     15 OAB        -5.8690   -1.2220    3.3010 o         1 0K7     -0.805800
     16 H1         -0.6270    0.3020   -0.8650 ha        1 0K7      0.148500
     17 H2          1.8510    0.1810   -0.9820 ha        1 0K7      0.121000
     18 H3          3.9750    0.3770    0.1970 hc        1 0K7      0.034367
     19 H4          4.0520    0.2340    2.0030 hc        1 0K7      0.034367
     20 H5          3.8950   -1.2540    0.9810 hc        1 0K7      0.034367
     21 H6          2.0320   -0.3500    3.3010 ha        1 0K7      0.121000
     22 H7         -0.4470   -0.2290    3.4300 ha        1 0K7      0.148500
     23 H8         -5.4950    0.5420    0.3890 h4        1 0K7      0.174000
@<TRIPOS>BOND
     1    1    2 ar  
     2    1    7 ar  
     3    1   16 1   
     4    2    3 ar  
     5    2   17 1   
     6    3    4 1   
     7    3    5 ar  
     8    4   18 1   
     9    4   19 1   
    10    4   20 1   
    11    5    6 ar  
    12    5   21 1   
    13    6    7 ar  
    14    6   22 1   
    15    7    8 1   
    16    8    9 2   
    17    8   10 1   
    18    9   12 1   
    19   10   11 1   
    20   11   12 2   
    21   11   23 1   
    22   12   13 1   
    23   13   14 1   
    24   13   15 1   
@<TRIPOS>SUBSTRUCTURE
     1 0K7         1 TEMP              0 ****  ****    0 ROOT
