@<TRIPOS>MOLECULE
0K7
   23    24     1     0     0
SMALL
bcc


@<TRIPOS>ATOM
      1 CAF        -0.0370   -0.2010    0.0660 ca        1 0K7     -0.114000
      2 CAD         1.3520   -0.1680    0.0060 ca        1 0K7     -0.137000
      3 CAL         2.1080    0.0320    1.1670 ca        1 0K7     -0.097300
      4 CAA         3.5860    0.0840    1.1010 c3        1 0K7     -0.044800
      5 CAE         1.4450    0.1960    2.3880 ca        1 0K7     -0.137000
      6 CAG         0.0550    0.1630    2.4540 ca        1 0K7     -0.114000
      7 CAM        -0.7050   -0.0360    1.2900 ca        1 0K7     -0.091500
      8 CAO        -2.1560   -0.0760    1.3390 cc        1 0K7      0.430900
      9 NAI        -2.9020    0.1400    2.4270 nd        1 0K7     -0.602000
     10 SAJ        -3.0840   -0.4280   -0.0890 ss        1 0K7     -0.254300
     11 CAH        -4.5120   -0.2820    0.7900 cc        1 0K7     -0.224400
     12 CAN        -4.2500    0.0230    2.1190 cd        1 0K7      0.340800
     13 CAK        -5.3520    0.2180    3.1740 c         1 0K7      0.840100
     14 OAC        -5.7070   -0.8020    3.8160 o         1 0K7     -0.805800
     15 OAB        -5.8330    1.3740    3.2830 o         1 0K7     -0.805800
     16 H1         -0.6210   -0.3580   -0.8560 ha        1 0K7      0.148500
     17 H2          1.8600   -0.2990   -0.9600 ha        1 0K7      0.121000
     18 H3          3.9260    1.1420    0.9670 hc        1 0K7      0.034367
     19 H4          4.0420   -0.3110    2.0420 hc        1 0K7      0.034367
     20 H5          3.9720   -0.5180    0.2420 hc        1 0K7      0.034367
     21 H6          2.0290    0.3520    3.3070 ha        1 0K7      0.121000
     22 H7         -0.4520    0.2940    3.4240 ha        1 0K7      0.148500
     23 H8         -5.5020   -0.4110    0.3650 h4        1 0K7      0.174000
@<TRIPOS>BOND
     1    1    2 ar  
     2    1    7 ar  
     3    1   16 1   
     4    2    3 ar  
     5    2   17 1   
     6    3    4 1   
     7    3    5 ar  
     8    4   18 1   
     9    4   19 1   
    10    4   20 1   
    11    5    6 ar  
    12    5   21 1   
    13    6    7 ar  
    14    6   22 1   
    15    7    8 1   
    16    8    9 2   
    17    8   10 1   
    18    9   12 1   
    19   10   11 1   
    20   11   12 2   
    21   11   23 1   
    22   12   13 1   
    23   13   14 1   
    24   13   15 1   
@<TRIPOS>SUBSTRUCTURE
     1 0K7         1 TEMP              0 ****  ****    0 ROOT
