@<TRIPOS>MOLECULE
0K7
   23    24     1     0     0
SMALL
bcc


@<TRIPOS>ATOM
      1 CAF        -0.0400   -0.1590    0.0590 ca        1 0K7     -0.114000
      2 CAD         1.3480   -0.0920   -0.0050 ca        1 0K7     -0.137000
      3 CAL         2.1050    0.1080    1.1540 ca        1 0K7     -0.097300
      4 CAA         3.5830    0.1640    1.0870 c3        1 0K7     -0.044800
      5 CAE         1.4440    0.2420    2.3800 ca        1 0K7     -0.137000
      6 CAG         0.0550    0.1750    2.4520 ca        1 0K7     -0.114000
      7 CAM        -0.7050   -0.0280    1.2890 ca        1 0K7     -0.091500
      8 CAO        -2.1540   -0.1030    1.3440 cc        1 0K7      0.430900
      9 NAI        -2.9020    0.0980    2.4340 nd        1 0K7     -0.602000
     10 SAJ        -3.0790   -0.4840   -0.0800 ss        1 0K7     -0.254300
     11 CAH        -4.5060   -0.3710    0.8050 cc        1 0K7     -0.224400
     12 CAN        -4.2470   -0.0540    2.1310 cd        1 0K7      0.340800
     13 CAK        -5.3500    0.1150    3.1900 c         1 0K7      0.840100
     14 OAC        -5.6640   -0.9080    3.8490 o         1 0K7     -0.805800
     15 OAB        -5.8710    1.2540    3.2870 o         1 0K7     -0.805800
     16 H1         -0.6240   -0.3150   -0.8620 ha        1 0K7      0.148500
     17 H2          1.8540   -0.1950   -0.9760 ha        1 0K7      0.121000
     18 H3          3.9940    0.8400    1.8780 hc        1 0K7      0.034700
     19 H4          4.0120   -0.8580    1.2440 hc        1 0K7      0.034700
     20 H5          3.9260    0.5370    0.0910 hc        1 0K7      0.034700
     21 H6          2.0280    0.4030    3.2990 ha        1 0K7      0.121000
     22 H7         -0.4510    0.2830    3.4250 ha        1 0K7      0.148500
     23 H8         -5.4950   -0.5270    0.3840 h4        1 0K7      0.174000
@<TRIPOS>BOND
     1    1    2 ar  
     2    1    7 ar  
     3    1   16 1   
     4    2    3 ar  
     5    2   17 1   
     6    3    4 1   
     7    3    5 ar  
     8    4   18 1   
     9    4   19 1   
    10    4   20 1   
    11    5    6 ar  
    12    5   21 1   
    13    6    7 ar  
    14    6   22 1   
    15    7    8 1   
    16    8    9 2   
    17    8   10 1   
    18    9   12 1   
    19   10   11 1   
    20   11   12 2   
    21   11   23 1   
    22   12   13 1   
    23   13   14 1   
    24   13   15 1   
@<TRIPOS>SUBSTRUCTURE
     1 0K7         1 TEMP              0 ****  ****    0 ROOT
