@<TRIPOS>MOLECULE
0K7
   23    24     1     0     0
SMALL
bcc


@<TRIPOS>ATOM
      1 CAF        -2.1580    1.0860   -0.1230 ca        1 0K7     -0.114000
      2 CAD        -3.5280    0.8470   -0.1000 ca        1 0K7     -0.137000
      3 CAL        -4.0190   -0.4560    0.0400 ca        1 0K7     -0.097300
      4 CAA        -5.4770   -0.7130    0.0490 c3        1 0K7     -0.044800
      5 CAE        -3.1110   -1.5140    0.1590 ca        1 0K7     -0.137000
      6 CAG        -1.7390   -1.2800    0.1370 ca        1 0K7     -0.114000
      7 CAM        -1.2450    0.0260   -0.0050 ca        1 0K7     -0.091500
      8 CAO         0.1830    0.2900   -0.0280 cc        1 0K7      0.430900
      9 NAI         1.1450   -0.6390    0.0010 nd        1 0K7     -0.602000
     10 SAJ         0.7850    1.9210   -0.0980 ss        1 0K7     -0.254300
     11 CAH         2.3680    1.3470   -0.0880 cc        1 0K7     -0.224400
     12 CAN         2.3960   -0.0390   -0.0330 cd        1 0K7      0.340800
     13 CAK         3.6980   -0.8570   -0.0090 c         1 0K7      0.840100
     14 OAC         4.1970   -1.1590   -1.1220 o         1 0K7     -0.805800
     15 OAB         4.1760   -1.1270    1.1210 o         1 0K7     -0.805800
     16 H1         -1.7840    2.1170   -0.2350 ha        1 0K7      0.148500
     17 H2         -4.2300    1.6880   -0.1920 ha        1 0K7      0.121000
     18 H3         -5.8330   -0.9290   -0.9900 hc        1 0K7      0.034367
     19 H4         -5.7240   -1.5930    0.6920 hc        1 0K7      0.034367
     20 H5         -6.0390    0.1740    0.4320 hc        1 0K7      0.034367
     21 H6         -3.4860   -2.5420    0.2720 ha        1 0K7      0.121000
     22 H7         -1.0360   -2.1240    0.2310 ha        1 0K7      0.148500
     23 H8          3.2440    1.9870   -0.1210 h4        1 0K7      0.174000
@<TRIPOS>BOND
     1    1    2 ar  
     2    1    7 ar  
     3    1   16 1   
     4    2    3 ar  
     5    2   17 1   
     6    3    4 1   
     7    3    5 ar  
     8    4   18 1   
     9    4   19 1   
    10    4   20 1   
    11    5    6 ar  
    12    5   21 1   
    13    6    7 ar  
    14    6   22 1   
    15    7    8 1   
    16    8    9 2   
    17    8   10 1   
    18    9   12 1   
    19   10   11 1   
    20   11   12 2   
    21   11   23 1   
    22   12   13 1   
    23   13   14 1   
    24   13   15 1   
@<TRIPOS>SUBSTRUCTURE
     1 0K7         1 TEMP              0 ****  ****    0 ROOT
