@<TRIPOS>MOLECULE
0K9
   88    92     1     0     0
SMALL
bcc


@<TRIPOS>ATOM
      1 C24         0.1990    0.2280   -0.3330 cy        1 0K9     -0.086900
      2 C25         1.7140   -0.0280   -0.2040 cy        1 0K9     -0.083400
      3 C26         1.6940    0.4730    1.2550 cy        1 0K9     -0.086900
      4 C18         0.1580    0.7030    1.1520 cy        1 0K9      0.108800
      5 C19        -0.7250   -0.1160    2.0650 c3        1 0K9     -0.121400
      6 O17        -0.2220    2.0820    1.1590 os        1 0K9     -0.379100
      7 C16        -0.3430    2.6410    2.4100 ca        1 0K9      0.685600
      8 N23        -0.2890    4.0080    2.4060 nb        1 0K9     -0.635000
      9 C22        -0.3930    4.6200    3.5870 ca        1 0K9      0.482200
     10 C21        -0.5280    3.9450    4.8350 ca        1 0K9     -0.193600
     11 C27        -0.5670    4.7160    6.1040 c3        1 0K9     -0.036100
     12 C28        -1.9790    5.0480    6.6020 c3        1 0K9     -0.050000
     13 C30        -2.7420    5.8400    5.5530 c3        1 0K9     -0.091100
     14 C31        -2.7390    3.7730    6.9370 c3        1 0K9     -0.091100
     15 C29        -1.8460    5.8910    7.8660 c3        1 0K9     -0.091100
     16 C20        -0.5870    2.5580    4.8100 ca        1 0K9     -0.079000
     17 C15        -0.5310    1.8680    3.5830 ca        1 0K9     -0.379600
     18 C14        -0.6140    0.3840    3.5120 c3        1 0K9      0.230800
     19 N4         -1.8270   -0.1070    4.3160 n4        1 0K9     -0.763000
     20 C3         -1.4870   -0.6350    5.6640 c3        1 0K9      0.083800
     21 C2         -1.2850   -2.1670    5.7000 c3        1 0K9      0.117100
     22 O5         -0.3900   -2.4660    4.6490 oh        1 0K9     -0.591800
     23 C1         -0.6480   -2.6090    7.0460 c3        1 0K9      0.095500
     24 N6         -1.4740   -2.2440    8.2440 n4        1 0K9     -0.681800
     25 C33        -2.9540   -2.5440    8.1660 c         1 0K9      0.538100
     26 O34        -3.3160   -3.5410    7.5680 o         1 0K9     -0.396100
     27 C35        -3.8470   -1.5370    8.8950 c3        1 0K9      0.092100
     28 C42        -3.6640   -1.6680   10.3920 c3        1 0K9     -0.156100
     29 O36        -3.4400   -0.2610    8.3960 os        1 0K9     -0.494600
     30 C37        -4.2990    0.8090    8.7990 c3        1 0K9      0.114700
     31 C7         -0.3340   -4.1200    6.9930 c3        1 0K9     -0.049100
     32 C8          0.1640   -4.6280    8.2990 ca        1 0K9     -0.162300
     33 C9         -0.7600   -5.0260    9.2730 ca        1 0K9     -0.147000
     34 C13         1.5340   -4.7370    8.5580 ca        1 0K9     -0.106000
     35 C12         1.9710   -5.2170    9.7940 ca        1 0K9     -0.101000
     36 C11         1.0530   -5.5610   10.7850 ca        1 0K9     -0.092000
     37 C10        -0.3240   -5.4550   10.5320 ca        1 0K9     -0.086500
     38 C32        -1.3040   -5.7550   11.5640 cc        1 0K9      0.344900
     39 N38        -2.4530   -5.0540   11.7060 nd        1 0K9     -0.676000
     40 C39        -3.1670   -5.5730   12.7590 cd        1 0K9      0.331200
     41 C40        -2.5640   -6.6550   13.4030 cc        1 0K9     -0.249400
     42 S41        -1.1140   -7.0190   12.6930 ss        1 0K9      0.079700
     43 H1         -0.0680    1.0380   -1.0490 hc        1 0K9      0.076450
     44 H2         -0.4170   -0.6740   -0.5240 hc        1 0K9      0.076450
     45 H3          2.3340    0.5960   -0.8840 hc        1 0K9      0.077200
     46 H4          2.0030   -1.0950   -0.3120 hc        1 0K9      0.077200
     47 H5          2.2650    1.4140    1.4150 hc        1 0K9      0.076450
     48 H6          1.9830   -0.2860    2.0100 hc        1 0K9      0.076450
     49 H7         -0.4120   -1.1920    2.0160 hc        1 0K9      0.083200
     50 H8         -1.7780   -0.0320    1.6820 hc        1 0K9      0.083200
     51 H9         -0.3570    5.7290    3.5520 h4        1 0K9      0.063100
     52 H10        -0.0320    4.1390    6.9050 hc        1 0K9      0.065200
     53 H11        -0.0100    5.6830    5.9630 hc        1 0K9      0.065200
     54 H12        -2.8380    5.2520    4.6090 hc        1 0K9      0.039144
     55 H13        -3.7650    6.0890    5.9260 hc        1 0K9      0.039144
     56 H14        -2.2080    6.7940    5.3250 hc        1 0K9      0.039144
     57 H15        -2.1900    3.1890    7.7160 hc        1 0K9      0.039144
     58 H16        -2.8560    3.1370    6.0270 hc        1 0K9      0.039144
     59 H17        -3.7540    4.0260    7.3280 hc        1 0K9      0.039144
     60 H18        -1.2860    5.3320    8.6530 hc        1 0K9      0.039144
     61 H19        -1.3010    6.8390    7.6440 hc        1 0K9      0.039144
     62 H20        -2.8580    6.1500    8.2610 hc        1 0K9      0.039144
     63 H21        -0.6720    2.0070    5.7580 ha        1 0K9      0.111000
     64 H22         0.2960   -0.0930    3.9910 hx        1 0K9      0.115700
     65 H23        -2.4740    0.6870    4.4210 hn        1 0K9      0.458800
     66 H25        -0.5410   -0.1280    6.0150 hx        1 0K9      0.114200
     67 H26        -2.3300   -0.3630    6.3680 hx        1 0K9      0.114200
     68 H27        -2.2680   -2.7010    5.5500 h1        1 0K9      0.085700
     69 H28        -0.4130   -3.4220    4.4880 ho        1 0K9      0.458000
     70 H29         0.3380   -2.0590    7.1690 hx        1 0K9      0.119700
     71 H30        -1.3720   -1.2380    8.4320 hn        1 0K9      0.483300
     72 H31        -4.9140   -1.7510    8.5900 h1        1 0K9      0.124700
     73 H32        -4.4840   -1.1120   10.9150 hc        1 0K9      0.088700
     74 H33        -3.7200   -2.7400   10.7080 hc        1 0K9      0.088700
     75 H34        -2.6880   -1.2350   10.7180 hc        1 0K9      0.088700
     76 H35        -4.2620    0.9340    9.9090 h1        1 0K9      0.069700
     77 H36        -5.3440    0.6160    8.4550 h1        1 0K9      0.069700
     78 H37        -3.8630    1.7050    8.2830 h1        1 0K9      0.069700
     79 H38         0.4560   -4.2660    6.2050 hc        1 0K9      0.094700
     80 H39        -1.2540   -4.6850    6.6820 hc        1 0K9      0.094700
     81 H40        -1.8380   -5.0420    9.0380 ha        1 0K9      0.146000
     82 H41         2.2710   -4.4610    7.7880 ha        1 0K9      0.147000
     83 H42         3.0510   -5.3220    9.9890 ha        1 0K9      0.168000
     84 H43         1.4090   -5.9170   11.7660 ha        1 0K9      0.166000
     85 H44        -4.1330   -5.1270   13.0280 h4        1 0K9      0.054100
     86 H45        -2.9930   -7.1880   14.2540 h4        1 0K9      0.207000
     87 H421       -2.2930   -0.8450    3.7750 hn        1 0K9      0.458800
     88 H62        -1.0970   -2.7700    9.0600 hn        1 0K9      0.483300
@<TRIPOS>BOND
     1    1    2 1   
     2    1    4 1   
     3    1   43 1   
     4    1   44 1   
     5    2    3 1   
     6    2   45 1   
     7    2   46 1   
     8    3    4 1   
     9    3   47 1   
    10    3   48 1   
    11    4    5 1   
    12    4    6 1   
    13    5   18 1   
    14    5   49 1   
    15    5   50 1   
    16    6    7 1   
    17    7    8 ar  
    18    7   17 ar  
    19    8    9 ar  
    20    9   10 ar  
    21    9   51 1   
    22   10   11 1   
    23   10   16 ar  
    24   11   12 1   
    25   11   52 1   
    26   11   53 1   
    27   12   13 1   
    28   12   14 1   
    29   12   15 1   
    30   13   54 1   
    31   13   55 1   
    32   13   56 1   
    33   14   57 1   
    34   14   58 1   
    35   14   59 1   
    36   15   60 1   
    37   15   61 1   
    38   15   62 1   
    39   16   17 ar  
    40   16   63 1   
    41   17   18 1   
    42   18   19 1   
    43   18   64 1   
    44   19   20 1   
    45   19   65 1   
    46   19   87 1   
    47   20   21 1   
    48   20   66 1   
    49   20   67 1   
    50   21   22 1   
    51   21   23 1   
    52   21   68 1   
    53   22   69 1   
    54   23   24 1   
    55   23   31 1   
    56   23   70 1   
    57   24   25 1   
    58   24   71 1   
    59   24   88 1   
    60   25   26 2   
    61   25   27 1   
    62   27   28 1   
    63   27   29 1   
    64   27   72 1   
    65   28   73 1   
    66   28   74 1   
    67   28   75 1   
    68   29   30 1   
    69   30   76 1   
    70   30   77 1   
    71   30   78 1   
    72   31   32 1   
    73   31   79 1   
    74   31   80 1   
    75   32   33 ar  
    76   32   34 ar  
    77   33   37 ar  
    78   33   81 1   
    79   34   35 ar  
    80   34   82 1   
    81   35   36 ar  
    82   35   83 1   
    83   36   37 ar  
    84   36   84 1   
    85   37   38 1   
    86   38   39 2   
    87   38   42 1   
    88   39   40 1   
    89   40   41 2   
    90   40   85 1   
    91   41   42 1   
    92   41   86 1   
@<TRIPOS>SUBSTRUCTURE
     1 0K9         1 TEMP              0 ****  ****    0 ROOT
