@<TRIPOS>MOLECULE
0K9
   88    92     1     0     0
SMALL
bcc


@<TRIPOS>ATOM
      1 C24         0.2270    0.2240   -0.3270 cy        1 0K9     -0.086900
      2 C25         1.7400   -0.0350   -0.1920 cy        1 0K9     -0.083400
      3 C26         1.7150    0.4670    1.2660 cy        1 0K9     -0.086900
      4 C18         0.1810    0.6990    1.1570 cy        1 0K9      0.108800
      5 C19        -0.7070   -0.1190    2.0670 c3        1 0K9     -0.121400
      6 O17        -0.1970    2.0780    1.1620 os        1 0K9     -0.379100
      7 C16        -0.3230    2.6380    2.4130 ca        1 0K9      0.685600
      8 N23        -0.2660    4.0050    2.4090 nb        1 0K9     -0.635000
      9 C22        -0.3740    4.6170    3.5890 ca        1 0K9      0.482200
     10 C21        -0.5150    3.9430    4.8370 ca        1 0K9     -0.193600
     11 C27        -0.5570    4.7140    6.1040 c3        1 0K9     -0.036100
     12 C28        -1.9710    5.0490    6.5980 c3        1 0K9     -0.050000
     13 C30        -2.7280    5.8420    5.5450 c3        1 0K9     -0.091100
     14 C31        -2.7330    3.7760    6.9300 c3        1 0K9     -0.091100
     15 C29        -1.8410    5.8920    7.8620 c3        1 0K9     -0.091100
     16 C20        -0.5760    2.5570    4.8120 ca        1 0K9     -0.079000
     17 C15        -0.5160    1.8660    3.5860 ca        1 0K9     -0.379600
     18 C14        -0.6010    0.3820    3.5140 c3        1 0K9      0.230800
     19 N4         -1.8180   -0.1070    4.3140 ny        1 0K9     -0.763000
     20 C3         -1.4840   -0.6350    5.6640 c3        1 0K9      0.083800
     21 C2         -1.2840   -2.1680    5.7010 c3        1 0K9      0.117100
     22 O5         -0.3860   -2.4680    4.6530 oh        1 0K9     -0.591800
     23 C1         -0.6530   -2.6100    7.0490 c3        1 0K9      0.095500
     24 N6         -1.4840   -2.2430    8.2430 ny        1 0K9     -0.681800
     25 C33        -2.9640   -2.5410    8.1610 c         1 0K9      0.538100
     26 O34        -3.3250   -3.5380    7.5610 o         1 0K9     -0.396100
     27 C35        -3.8580   -1.5320    8.8850 c3        1 0K9      0.092100
     28 C42        -3.6810   -1.6630   10.3830 c3        1 0K9     -0.156100
     29 O36        -3.4470   -0.2570    8.3880 os        1 0K9     -0.494600
     30 C37        -4.3050    0.8150    8.7870 c3        1 0K9      0.114700
     31 C7         -0.3410   -4.1210    6.9980 c3        1 0K9     -0.049100
     32 C8          0.1510   -4.6300    8.3060 ca        1 0K9     -0.162300
     33 C9         -0.7780   -5.0260    9.2770 ca        1 0K9     -0.147000
     34 C13         1.5200   -4.7400    8.5700 ca        1 0K9     -0.106000
     35 C12         1.9510   -5.2210    9.8080 ca        1 0K9     -0.101000
     36 C11         1.0280   -5.5630   10.7950 ca        1 0K9     -0.092000
     37 C10        -0.3470   -5.4550   10.5380 ca        1 0K9     -0.086500
     38 C32        -1.3320   -5.7530   11.5660 cc        1 0K9      0.344900
     39 N38        -2.4800   -5.0500   11.7040 nd        1 0K9     -0.676000
     40 C39        -3.1990   -5.5670   12.7540 cd        1 0K9      0.331200
     41 C40        -2.6000   -6.6510   13.4000 cc        1 0K9     -0.249400
     42 S41        -1.1480   -7.0170   12.6960 ss        1 0K9      0.079700
     43 H1         -0.3900   -0.6780   -0.5200 hc        1 0K9      0.076450
     44 H2         -0.0370    1.0330   -1.0440 hc        1 0K9      0.076450
     45 H3          2.3640    0.5880   -0.8700 hc        1 0K9      0.077200
     46 H4          2.0290   -1.1020   -0.2990 hc        1 0K9      0.077200
     47 H5          2.0000   -0.2930    2.0220 hc        1 0K9      0.076450
     48 H6          2.2870    1.4070    1.4280 hc        1 0K9      0.076450
     49 H7         -0.3960   -1.1960    2.0190 hc        1 0K9      0.083200
     50 H8         -1.7590   -0.0330    1.6800 hc        1 0K9      0.083200
     51 H9         -0.3360    5.7270    3.5540 h4        1 0K9      0.063100
     52 H10        -0.0260    4.1370    6.9090 hc        1 0K9      0.065200
     53 H11         0.0020    5.6810    5.9660 hc        1 0K9      0.065200
     54 H12        -2.1920    6.7950    5.3190 hc        1 0K9      0.039144
     55 H13        -2.8220    5.2540    4.6010 hc        1 0K9      0.039144
     56 H14        -3.7520    6.0930    5.9140 hc        1 0K9      0.039144
     57 H15        -2.1890    3.1910    7.7110 hc        1 0K9      0.039144
     58 H16        -2.8480    3.1390    6.0200 hc        1 0K9      0.039144
     59 H17        -3.7500    4.0310    7.3170 hc        1 0K9      0.039144
     60 H18        -2.8540    6.1530    8.2530 hc        1 0K9      0.039144
     61 H19        -1.2940    6.8400    7.6410 hc        1 0K9      0.039144
     62 H20        -1.2850    5.3330    8.6510 hc        1 0K9      0.039144
     63 H21        -0.6650    2.0060    5.7600 ha        1 0K9      0.111000
     64 H22         0.3060   -0.0960    3.9970 hx        1 0K9      0.115700
     65 H23        -2.2830   -0.8450    3.7720 hn        1 0K9      0.458800
     66 H25        -2.3290   -0.3620    6.3640 hx        1 0K9      0.114200
     67 H26        -0.5390   -0.1300    6.0170 hx        1 0K9      0.114200
     68 H27        -2.2680   -2.7000    5.5470 h1        1 0K9      0.085700
     69 H28        -0.4100   -3.4250    4.4930 ho        1 0K9      0.458000
     70 H29         0.3330   -2.0620    7.1760 hx        1 0K9      0.119700
     71 H30        -1.1110   -2.7700    9.0620 hn        1 0K9      0.483300
     72 H31        -4.9240   -1.7450    8.5760 h1        1 0K9      0.124700
     73 H32        -2.7060   -1.2310   10.7130 hc        1 0K9      0.088700
     74 H33        -3.7400   -2.7350   10.6990 hc        1 0K9      0.088700
     75 H34        -4.5020   -1.1060   10.9030 hc        1 0K9      0.088700
     76 H35        -5.3500    0.6230    8.4400 h1        1 0K9      0.069700
     77 H36        -4.2720    0.9400    9.8970 h1        1 0K9      0.069700
     78 H37        -3.8660    1.7090    8.2720 h1        1 0K9      0.069700
     79 H38        -1.2620   -4.6850    6.6840 hc        1 0K9      0.094700
     80 H39         0.4510   -4.2690    6.2130 hc        1 0K9      0.094700
     81 H40        -1.8550   -5.0400    9.0370 ha        1 0K9      0.146000
     82 H41         2.2600   -4.4670    7.8030 ha        1 0K9      0.147000
     83 H42         3.0300   -5.3280   10.0070 ha        1 0K9      0.168000
     84 H43         1.3800   -5.9200   11.7780 ha        1 0K9      0.166000
     85 H44        -4.1650   -5.1200   13.0190 h4        1 0K9      0.054100
     86 H45        -3.0330   -7.1820   14.2490 h4        1 0K9      0.207000
     87 H421       -2.4640    0.6880    4.4160 hn        1 0K9      0.458800
     88 H62        -1.3800   -1.2370    8.4320 hn        1 0K9      0.483300
@<TRIPOS>BOND
     1    1    2 1   
     2    1    4 1   
     3    1   43 1   
     4    1   44 1   
     5    2    3 1   
     6    2   45 1   
     7    2   46 1   
     8    3    4 1   
     9    3   47 1   
    10    3   48 1   
    11    4    5 1   
    12    4    6 1   
    13    5   18 1   
    14    5   49 1   
    15    5   50 1   
    16    6    7 1   
    17    7    8 ar  
    18    7   17 ar  
    19    8    9 ar  
    20    9   10 ar  
    21    9   51 1   
    22   10   11 1   
    23   10   16 ar  
    24   11   12 1   
    25   11   52 1   
    26   11   53 1   
    27   12   13 1   
    28   12   14 1   
    29   12   15 1   
    30   13   54 1   
    31   13   55 1   
    32   13   56 1   
    33   14   57 1   
    34   14   58 1   
    35   14   59 1   
    36   15   60 1   
    37   15   61 1   
    38   15   62 1   
    39   16   17 ar  
    40   16   63 1   
    41   17   18 1   
    42   18   19 1   
    43   18   64 1   
    44   19   20 1   
    45   19   65 1   
    46   19   87 1   
    47   20   21 1   
    48   20   66 1   
    49   20   67 1   
    50   21   22 1   
    51   21   23 1   
    52   21   68 1   
    53   22   69 1   
    54   23   24 1   
    55   23   31 1   
    56   23   70 1   
    57   24   25 1   
    58   24   71 1   
    59   24   88 1   
    60   25   26 2   
    61   25   27 1   
    62   27   28 1   
    63   27   29 1   
    64   27   72 1   
    65   28   73 1   
    66   28   74 1   
    67   28   75 1   
    68   29   30 1   
    69   30   76 1   
    70   30   77 1   
    71   30   78 1   
    72   31   32 1   
    73   31   79 1   
    74   31   80 1   
    75   32   33 ar  
    76   32   34 ar  
    77   33   37 ar  
    78   33   81 1   
    79   34   35 ar  
    80   34   82 1   
    81   35   36 ar  
    82   35   83 1   
    83   36   37 ar  
    84   36   84 1   
    85   37   38 1   
    86   38   39 2   
    87   38   42 1   
    88   39   40 1   
    89   40   41 2   
    90   40   85 1   
    91   41   42 1   
    92   41   86 1   
@<TRIPOS>SUBSTRUCTURE
     1 0K9         1 TEMP              0 ****  ****    0 ROOT
