@<TRIPOS>MOLECULE
0K9
   86    90     1     0     0
SMALL
bcc


@<TRIPOS>ATOM
      1 C24        -5.3410    3.4330   -2.5650 cy        1 0K9     -0.095400
      2 C25        -4.7590    4.6700   -1.8520 cy        1 0K9     -0.090400
      3 C26        -4.2380    3.7840   -0.7030 cy        1 0K9     -0.095400
      4 C18        -4.7830    2.5190   -1.4320 cy        1 0K9      0.123800
      5 C19        -3.7590    1.5040   -1.8680 c3        1 0K9     -0.085400
      6 O17        -5.9010    1.9420   -0.7550 os        1 0K9     -0.411100
      7 C16        -5.6300    0.8690    0.0710 ca        1 0K9      0.635600
      8 N23        -6.7260    0.4720    0.7760 nb        1 0K9     -0.674000
      9 C22        -6.5670   -0.5810    1.5920 ca        1 0K9      0.426200
     10 C21        -5.3570   -1.2860    1.7590 ca        1 0K9     -0.227600
     11 C27        -5.2640   -2.4240    2.7080 c3        1 0K9     -0.018100
     12 C28        -5.5930   -3.7920    2.0970 c3        1 0K9     -0.052000
     13 C30        -7.0180   -3.8060    1.5670 c3        1 0K9     -0.088100
     14 C31        -4.6240   -4.1160    0.9720 c3        1 0K9     -0.088100
     15 C29        -5.4580   -4.8450    3.1910 c3        1 0K9     -0.088100
     16 C20        -4.2480   -0.8530    1.0240 ca        1 0K9     -0.070000
     17 C15        -4.3590    0.2390    0.1600 ca        1 0K9     -0.282600
     18 C14        -3.1960    0.7740   -0.6340 c3        1 0K9      0.228800
     19 N4         -2.1960   -0.2000   -1.0410 n3        1 0K9     -0.824200
     20 C3         -1.0630   -0.3730   -0.1620 c3        1 0K9      0.147800
     21 C2         -0.0660    0.8050   -0.2060 c3        1 0K9      0.107100
     22 O5         -0.5460    1.8870    0.5710 oh        1 0K9     -0.589800
     23 C1          1.3350    0.3590    0.3130 c3        1 0K9      0.093700
     24 N6          1.9420   -0.6740   -0.4890 n         1 0K9     -0.549900
     25 C33         2.2650   -0.5340   -1.8190 c         1 0K9      0.663100
     26 O34         2.1690    0.5460   -2.4340 o         1 0K9     -0.612100
     27 C35         2.8290   -1.7640   -2.5520 c3        1 0K9      0.067100
     28 C42         4.2990   -1.9350   -2.2240 c3        1 0K9     -0.120100
     29 O36         2.0840   -2.9100   -2.1320 os        1 0K9     -0.434600
     30 C37         2.0420   -3.9400   -3.1070 c3        1 0K9      0.119700
     31 C7          2.2190    1.6150    0.4530 c3        1 0K9     -0.059100
     32 C8          3.4740    1.3410    1.2040 ca        1 0K9     -0.071300
     33 C9          4.7090    1.3960    0.5540 ca        1 0K9     -0.115000
     34 C13         3.4310    1.0490    2.5730 ca        1 0K9     -0.125000
     35 C12         4.6080    0.8070    3.2770 ca        1 0K9     -0.134000
     36 C11         5.8420    0.8580    2.6290 ca        1 0K9     -0.089000
     37 C10         5.8980    1.1580    1.2610 ca        1 0K9     -0.131500
     38 C32         7.1720    1.2330    0.5640 cc        1 0K9      0.447900
     39 N38         8.3130    0.6550    0.9660 nd        1 0K9     -0.633000
     40 C39         9.3200    0.9450    0.0660 cd        1 0K9      0.332200
     41 C40         8.9430    1.7370   -1.0110 cc        1 0K9     -0.260400
     42 S41         7.3260    2.1300   -0.9070 ss        1 0K9     -0.079300
     43 H1         -6.4500    3.4210   -2.6240 hc        1 0K9      0.066200
     44 H2         -4.8980    3.2140   -3.5580 hc        1 0K9      0.066200
     45 H3         -3.9580    5.1840   -2.4240 hc        1 0K9      0.054200
     46 H4         -5.5260    5.4090   -1.5380 hc        1 0K9      0.054200
     47 H5         -3.1340    3.7860   -0.5820 hc        1 0K9      0.066200
     48 H6         -4.7340    3.9730    0.2720 hc        1 0K9      0.066200
     49 H7         -4.2350    0.7730   -2.5720 hc        1 0K9      0.069700
     50 H8         -2.9290    2.0220   -2.4130 hc        1 0K9      0.069700
     51 H9         -7.4740   -0.8840    2.1490 h4        1 0K9      0.025100
     52 H10        -4.2240   -2.4690    3.1310 hc        1 0K9      0.047200
     53 H11        -5.9670   -2.2450    3.5670 hc        1 0K9      0.047200
     54 H12        -7.2580   -4.8070    1.1350 hc        1 0K9      0.035811
     55 H13        -7.7410   -3.5900    2.3900 hc        1 0K9      0.035811
     56 H14        -7.1440   -3.0330    0.7710 hc        1 0K9      0.035811
     57 H15        -3.5760   -4.1380    1.3570 hc        1 0K9      0.035811
     58 H16        -4.8640   -5.1140    0.5320 hc        1 0K9      0.035811
     59 H17        -4.6930   -3.3440    0.1680 hc        1 0K9      0.035811
     60 H18        -4.4180   -4.8550    3.5960 hc        1 0K9      0.035811
     61 H19        -6.1650   -4.6300    4.0270 hc        1 0K9      0.035811
     62 H20        -5.6890   -5.8560    2.7790 hc        1 0K9      0.035811
     63 H21        -3.2920   -1.3860    1.1380 ha        1 0K9      0.132000
     64 H22        -2.6830    1.5580    0.0110 h1        1 0K9      0.087700
     65 H23        -2.6210   -1.0820   -1.2510 hn        1 0K9      0.373800
     66 H25        -1.3650   -0.5170    0.9190 h1        1 0K9      0.032200
     67 H26        -0.5380   -1.3120   -0.4950 h1        1 0K9      0.032200
     68 H27         0.0360    1.2280   -1.2470 h1        1 0K9      0.124700
     69 H28        -0.6440    1.5750    1.4790 ho        1 0K9      0.393000
     70 H29         1.1900   -0.0780    1.3490 h1        1 0K9      0.044700
     71 H30         1.9610   -1.5910   -0.1050 hn        1 0K9      0.326500
     72 H31         2.6850   -1.5870   -3.6560 h1        1 0K9      0.077700
     73 H32         4.7290   -2.7720   -2.8240 hc        1 0K9      0.053367
     74 H33         4.8510   -0.9950   -2.4640 hc        1 0K9      0.053367
     75 H34         4.4340   -2.1700   -1.1410 hc        1 0K9      0.053367
     76 H35         1.5340   -3.5810   -4.0370 h1        1 0K9      0.039033
     77 H36         3.0730   -4.2990   -3.3470 h1        1 0K9      0.039033
     78 H37         1.4460   -4.7530   -2.6220 h1        1 0K9      0.039033
     79 H38         2.4450    2.0190   -0.5710 hc        1 0K9      0.081700
     80 H39         1.6250    2.3970    1.0000 hc        1 0K9      0.081700
     81 H40         4.7470    1.6250   -0.5240 ha        1 0K9      0.142000
     82 H41         2.4630    1.0150    3.0940 ha        1 0K9      0.127000
     83 H42         4.5680    0.5760    4.3520 ha        1 0K9      0.135000
     84 H43         6.7680    0.6640    3.1920 ha        1 0K9      0.154000
     85 H44        10.3220    0.5410    0.2530 h4        1 0K9      0.044100
     86 H45         9.6020    2.0620   -1.8130 h4        1 0K9      0.182000
@<TRIPOS>BOND
     1    1    2 1   
     2    1    4 1   
     3    1   43 1   
     4    1   44 1   
     5    2    3 1   
     6    2   45 1   
     7    2   46 1   
     8    3    4 1   
     9    3   47 1   
    10    3   48 1   
    11    4    5 1   
    12    4    6 1   
    13    5   18 1   
    14    5   49 1   
    15    5   50 1   
    16    6    7 1   
    17    7    8 ar  
    18    7   17 ar  
    19    8    9 ar  
    20    9   10 ar  
    21    9   51 1   
    22   10   11 1   
    23   10   16 ar  
    24   11   12 1   
    25   11   52 1   
    26   11   53 1   
    27   12   13 1   
    28   12   14 1   
    29   12   15 1   
    30   13   54 1   
    31   13   55 1   
    32   13   56 1   
    33   14   57 1   
    34   14   58 1   
    35   14   59 1   
    36   15   60 1   
    37   15   61 1   
    38   15   62 1   
    39   16   17 ar  
    40   16   63 1   
    41   17   18 1   
    42   18   19 1   
    43   18   64 1   
    44   19   20 1   
    45   19   65 1   
    46   20   21 1   
    47   20   66 1   
    48   20   67 1   
    49   21   22 1   
    50   21   23 1   
    51   21   68 1   
    52   22   69 1   
    53   23   24 1   
    54   23   31 1   
    55   23   70 1   
    56   24   25 1   
    57   24   71 1   
    58   25   26 2   
    59   25   27 1   
    60   27   28 1   
    61   27   29 1   
    62   27   72 1   
    63   28   73 1   
    64   28   74 1   
    65   28   75 1   
    66   29   30 1   
    67   30   76 1   
    68   30   77 1   
    69   30   78 1   
    70   31   32 1   
    71   31   79 1   
    72   31   80 1   
    73   32   33 ar  
    74   32   34 ar  
    75   33   37 ar  
    76   33   81 1   
    77   34   35 ar  
    78   34   82 1   
    79   35   36 ar  
    80   35   83 1   
    81   36   37 ar  
    82   36   84 1   
    83   37   38 1   
    84   38   39 2   
    85   38   42 1   
    86   39   40 1   
    87   40   41 2   
    88   40   85 1   
    89   41   42 1   
    90   41   86 1   
@<TRIPOS>SUBSTRUCTURE
     1 0K9         1 TEMP              0 ****  ****    0 ROOT
