@<TRIPOS>MOLECULE
0K9
   88    92     1     0     0
SMALL
bcc


@<TRIPOS>ATOM
      1 C24         0.2220    0.2440   -0.3260 cy        1 0K9     -0.086900
      2 C25         1.7360   -0.0120   -0.1910 cy        1 0K9     -0.083400
      3 C26         1.7100    0.4870    1.2680 cy        1 0K9     -0.086900
      4 C18         0.1750    0.7160    1.1600 cy        1 0K9      0.108800
      5 C19        -0.7110   -0.1040    2.0680 c3        1 0K9     -0.121400
      6 O17        -0.2060    2.0950    1.1680 os        1 0K9     -0.379100
      7 C16        -0.3320    2.6520    2.4200 ca        1 0K9      0.685600
      8 N23        -0.2780    4.0190    2.4190 nb        1 0K9     -0.635000
      9 C22        -0.3870    4.6290    3.5990 ca        1 0K9      0.482200
     10 C21        -0.5270    3.9520    4.8460 ca        1 0K9     -0.193600
     11 C27        -0.5710    4.7210    6.1160 c3        1 0K9     -0.036100
     12 C28        -1.9850    5.0500    6.6100 c3        1 0K9     -0.050000
     13 C30        -2.7450    5.8440    5.5590 c3        1 0K9     -0.091100
     14 C31        -2.7440    3.7750    6.9400 c3        1 0K9     -0.091100
     15 C29        -1.8580    5.8910    7.8750 c3        1 0K9     -0.091100
     16 C20        -0.5850    2.5660    4.8190 ca        1 0K9     -0.079000
     17 C15        -0.5240    1.8770    3.5910 ca        1 0K9     -0.379600
     18 C14        -0.6060    0.3940    3.5170 c3        1 0K9      0.230800
     19 N4         -1.8210   -0.1000    4.3160 n4        1 0K9     -0.763000
     20 C3         -1.4860   -0.6300    5.6640 c3        1 0K9      0.083800
     21 C2         -1.2830   -2.1630    5.6970 c3        1 0K9      0.117100
     22 O5         -0.3850   -2.4580    4.6470 oh        1 0K9     -0.591800
     23 C1         -0.6500   -2.6080    7.0430 c3        1 0K9      0.095500
     24 N6         -1.4810   -2.2450    8.2390 n4        1 0K9     -0.681800
     25 C33        -2.9600   -2.5460    8.1560 c         1 0K9      0.538100
     26 O34        -3.3200   -3.5420    7.5540 o         1 0K9     -0.396100
     27 C35        -3.8560   -1.5400    8.8840 c3        1 0K9      0.092100
     28 C42        -3.6780   -1.6750   10.3820 c3        1 0K9     -0.156100
     29 O36        -3.4470   -0.2630    8.3900 os        1 0K9     -0.494600
     30 C37        -4.3080    0.8060    8.7930 c3        1 0K9      0.114700
     31 C7         -0.3360   -4.1190    6.9880 c3        1 0K9     -0.049100
     32 C8          0.1570   -4.6300    8.2940 ca        1 0K9     -0.162300
     33 C9         -0.7700   -5.0300    9.2640 ca        1 0K9     -0.147000
     34 C13         1.5260   -4.7390    8.5570 ca        1 0K9     -0.106000
     35 C12         1.9590   -5.2230    9.7930 ca        1 0K9     -0.101000
     36 C11         1.0380   -5.5690   10.7800 ca        1 0K9     -0.092000
     37 C10        -0.3380   -5.4630   10.5240 ca        1 0K9     -0.086500
     38 C32        -1.3210   -5.7650   11.5520 cc        1 0K9      0.344900
     39 N38        -2.4710   -5.0650   11.6920 nd        1 0K9     -0.676000
     40 C39        -3.1890   -5.5860   12.7410 cd        1 0K9      0.331200
     41 C40        -2.5880   -6.6700   13.3840 cc        1 0K9     -0.249400
     42 S41        -1.1350   -7.0320   12.6780 ss        1 0K9      0.079700
     43 H1         -0.0430    1.0550   -1.0410 hc        1 0K9      0.076450
     44 H2         -0.3940   -0.6580   -0.5200 hc        1 0K9      0.076450
     45 H3          2.0260   -1.0780   -0.3000 hc        1 0K9      0.077200
     46 H4          2.3580    0.6140   -0.8680 hc        1 0K9      0.077200
     47 H5          2.2800    1.4280    1.4320 hc        1 0K9      0.076450
     48 H6          1.9960   -0.2740    2.0230 hc        1 0K9      0.076450
     49 H7         -0.3980   -1.1810    2.0190 hc        1 0K9      0.083200
     50 H8         -1.7630   -0.0200    1.6810 hc        1 0K9      0.083200
     51 H9         -0.3510    5.7390    3.5670 h4        1 0K9      0.063100
     52 H10        -0.0380    4.1430    6.9190 hc        1 0K9      0.065200
     53 H11        -0.0140    5.6890    5.9790 hc        1 0K9      0.065200
     54 H12        -3.7700    6.0910    5.9280 hc        1 0K9      0.039144
     55 H13        -2.2110    6.7990    5.3350 hc        1 0K9      0.039144
     56 H14        -2.8370    5.2570    4.6140 hc        1 0K9      0.039144
     57 H15        -2.8580    3.1390    6.0280 hc        1 0K9      0.039144
     58 H16        -3.7620    4.0260    7.3280 hc        1 0K9      0.039144
     59 H17        -2.1980    3.1890    7.7190 hc        1 0K9      0.039144
     60 H18        -1.3000    5.3320    8.6630 hc        1 0K9      0.039144
     61 H19        -1.3120    6.8410    7.6570 hc        1 0K9      0.039144
     62 H20        -2.8710    6.1490    8.2670 hc        1 0K9      0.039144
     63 H21        -0.6730    2.0120    5.7660 ha        1 0K9      0.111000
     64 H22         0.3020   -0.0840    3.9980 hx        1 0K9      0.115700
     65 H23        -2.2860   -0.8360    3.7720 hn        1 0K9      0.458800
     66 H25        -0.5410   -0.1240    6.0190 hx        1 0K9      0.114200
     67 H26        -2.3320   -0.3610    6.3650 hx        1 0K9      0.114200
     68 H27        -2.2650   -2.6960    5.5420 h1        1 0K9      0.086700
     69 H28        -0.4070   -3.4150    4.4840 ho        1 0K9      0.458000
     70 H29         0.3350   -2.0590    7.1710 hx        1 0K9      0.119700
     71 H30        -1.1070   -2.7740    9.0560 hn        1 0K9      0.483300
     72 H31        -4.9220   -1.7540    8.5760 h1        1 0K9      0.124700
     73 H32        -3.7340   -2.7480   10.6950 hc        1 0K9      0.088700
     74 H33        -2.7030   -1.2430   10.7120 hc        1 0K9      0.088700
     75 H34        -4.4990   -1.1210   10.9040 hc        1 0K9      0.088700
     76 H35        -5.3520    0.6130    8.4450 h1        1 0K9      0.069700
     77 H36        -4.2740    0.9280    9.9030 h1        1 0K9      0.069700
     78 H37        -3.8710    1.7030    8.2800 h1        1 0K9      0.069700
     79 H38        -1.2560   -4.6830    6.6730 hc        1 0K9      0.094700
     80 H39         0.4560   -4.2630    6.2020 hc        1 0K9      0.094700
     81 H40        -1.8470   -5.0450    9.0250 ha        1 0K9      0.146000
     82 H41         2.2660   -4.4620    7.7900 ha        1 0K9      0.147000
     83 H42         3.0390   -5.3290    9.9920 ha        1 0K9      0.168000
     84 H43         1.3910   -5.9280   11.7620 ha        1 0K9      0.166000
     85 H44        -4.1550   -5.1420   13.0080 h4        1 0K9      0.054100
     86 H45        -3.0190   -7.2050   14.2320 h4        1 0K9      0.207000
     87 H421       -2.4690    0.6940    4.4210 hn        1 0K9      0.458800
     88 H62        -1.3790   -1.2400    8.4300 hn        1 0K9      0.483300
@<TRIPOS>BOND
     1    1    2 1   
     2    1    4 1   
     3    1   43 1   
     4    1   44 1   
     5    2    3 1   
     6    2   45 1   
     7    2   46 1   
     8    3    4 1   
     9    3   47 1   
    10    3   48 1   
    11    4    5 1   
    12    4    6 1   
    13    5   18 1   
    14    5   49 1   
    15    5   50 1   
    16    6    7 1   
    17    7    8 ar  
    18    7   17 ar  
    19    8    9 ar  
    20    9   10 ar  
    21    9   51 1   
    22   10   11 1   
    23   10   16 ar  
    24   11   12 1   
    25   11   52 1   
    26   11   53 1   
    27   12   13 1   
    28   12   14 1   
    29   12   15 1   
    30   13   54 1   
    31   13   55 1   
    32   13   56 1   
    33   14   57 1   
    34   14   58 1   
    35   14   59 1   
    36   15   60 1   
    37   15   61 1   
    38   15   62 1   
    39   16   17 ar  
    40   16   63 1   
    41   17   18 1   
    42   18   19 1   
    43   18   64 1   
    44   19   20 1   
    45   19   65 1   
    46   19   87 1   
    47   20   21 1   
    48   20   66 1   
    49   20   67 1   
    50   21   22 1   
    51   21   23 1   
    52   21   68 1   
    53   22   69 1   
    54   23   24 1   
    55   23   31 1   
    56   23   70 1   
    57   24   25 1   
    58   24   71 1   
    59   24   88 1   
    60   25   26 2   
    61   25   27 1   
    62   27   28 1   
    63   27   29 1   
    64   27   72 1   
    65   28   73 1   
    66   28   74 1   
    67   28   75 1   
    68   29   30 1   
    69   30   76 1   
    70   30   77 1   
    71   30   78 1   
    72   31   32 1   
    73   31   79 1   
    74   31   80 1   
    75   32   33 ar  
    76   32   34 ar  
    77   33   37 ar  
    78   33   81 1   
    79   34   35 ar  
    80   34   82 1   
    81   35   36 ar  
    82   35   83 1   
    83   36   37 ar  
    84   36   84 1   
    85   37   38 1   
    86   38   39 2   
    87   38   42 1   
    88   39   40 1   
    89   40   41 2   
    90   40   85 1   
    91   41   42 1   
    92   41   86 1   
@<TRIPOS>SUBSTRUCTURE
     1 0K9         1 TEMP              0 ****  ****    0 ROOT
