@<TRIPOS>MOLECULE
0K9
   86    84     1     0     0
SMALL
bcc


@<TRIPOS>ATOM
      1 C24         1.3720    1.3730   -5.1360 cy        1 0K9     -0.174000
      2 C25         2.8550    1.5730   -4.9600 cy        1 0K9     -0.170000
      3 C26         2.6330    2.0280   -3.5450 cy        1 0K9     -0.174000
      4 C18         1.1340    1.8200   -3.7040 cy        1 0K9      0.053000
      5 C19         0.4300    0.9300   -2.7980 c3        1 0K9     -0.164000
      6 O17         0.4990    2.9580   -4.0910 os        1 0K9     -0.170000
      7 C16        -0.3880    3.6740   -3.0360 c2        1 0K9      0.135000
      8 N23        -0.7470    4.9800   -3.1830 n1        1 0K9     -0.149000
      9 C22        -1.3220    5.6710   -2.1230 c1        1 0K9     -0.041000
     10 C21        -1.5420    5.0070   -0.8620 c1        1 0K9     -0.155000
     11 C27        -2.3450    5.7180    0.2540 c2        1 0K9     -0.104000
     12 C28        -2.4580    7.2500   -0.0720 c3        1 0K9     -0.052000
     13 C30        -1.1660    7.9600    0.3440 c3        1 0K9     -0.205667
     14 C31        -2.6760    7.4460   -1.5770 c3        1 0K9     -0.205667
     15 C29        -3.6430    7.8490    0.7020 c3        1 0K9     -0.205667
     16 C20        -1.1760    3.6650   -0.7050 c2        1 0K9     -0.068000
     17 C15        -0.6100    2.9860   -1.7490 c2        1 0K9     -0.203000
     18 C14        -0.0780    1.5030   -1.6230 c3        1 0K9      0.021000
     19 N4         -1.2060    0.6440   -1.1390 n3        1 0K9     -0.306000
     20 C3         -0.7770   -0.1050    0.0550 c3        1 0K9     -0.061000
     21 C2         -0.7270   -1.5730   -0.2750 c3        1 0K9      0.029000
     22 O5          0.2280   -1.7920   -1.2950 oh        1 0K9     -0.347000
     23 C1         -0.3420   -2.3560    0.9510 c3        1 0K9      0.008000
     24 N6         -1.3900   -3.2630    1.2780 n         1 0K9     -0.359000
     25 C33        -1.7060   -4.3030    0.4080 c2        1 0K9      0.310000
     26 O34        -1.3260   -4.2570   -0.7760 o         1 0K9     -0.404000
     27 C35        -2.6840   -5.4130    0.8630 c3        1 0K9      0.009000
     28 C42        -2.8780   -6.4050   -0.2480 c3        1 0K9     -0.244000
     29 O36        -2.1580   -6.0660    1.9870 os        1 0K9     -0.287000
     30 C37        -3.1010   -6.7620    2.7220 c3        1 0K9     -0.069000
     31 C7          0.9320   -3.1370    0.6760 c3        1 0K9     -0.144000
     32 C8          1.8700   -3.0610    1.9290 c2        1 0K9     -0.077000
     33 C9          2.6990   -4.1340    2.2380 c2        1 0K9     -0.085000
     34 C13         1.9840   -1.8880    2.6210 c1        1 0K9     -0.120000
     35 C12         2.9360   -1.7640    3.6430 c1        1 0K9     -0.126000
     36 C11         3.7560   -2.8220    3.9500 c1        1 0K9     -0.126000
     37 C10         3.6400   -4.0130    3.2470 c1        1 0K9     -0.024000
     38 C32         4.5630   -5.2160    3.5960 c2        1 0K9     -0.235000
     39 N38         5.8010   -5.5220    2.9820 n2        1 0K9     -0.112000
     40 C39         6.4530   -6.7170    3.7540 c1        1 0K9     -0.132000
     41 C40         5.5690   -7.0970    4.8260 c1        1 0K9     -0.462000
     42 S41         4.3670   -6.1920    4.7780 ss        1 0K9      0.502000
     43 H1          1.1310    0.4310   -5.2840 hc        1 0K9      0.105250
     44 H2          0.9810    1.9870   -5.7950 hc        1 0K9      0.105250
     45 H3          3.3440    0.7600   -5.0110 hc        1 0K9      0.092000
     46 H4          3.2040    2.2650   -5.5200 hc        1 0K9      0.092000
     47 H5          3.0350    1.4160   -2.8780 hc        1 0K9      0.105250
     48 H6          2.8700    2.9650   -3.4090 hc        1 0K9      0.105250
     49 H7         -0.3190    0.5320   -3.2890 hc        1 0K9      0.106000
     50 H8          1.0450    0.2080   -2.5430 hc        1 0K9      0.106000
     51 H9         -1.4780    6.6390   -2.1990 ha        1 0K9      0.161000
     52 H10        -3.2220    5.3370    0.3080 ha        1 0K9      0.085500
     53 H11        -1.8680    5.5950    1.1480 ha        1 0K9      0.085500
     54 H12        -0.9660    7.7580    1.3110 hc        1 0K9      0.075111
     55 H13        -0.4580    7.6590   -0.1900 hc        1 0K9      0.075111
     56 H14        -1.2760    8.9430    0.2250 hc        1 0K9      0.075111
     57 H15        -3.3490    8.1140   -1.7160 hc        1 0K9      0.075111
     58 H16        -2.9690    6.5880   -1.9880 hc        1 0K9      0.075111
     59 H17        -1.8280    7.7410   -1.9970 hc        1 0K9      0.075111
     60 H18        -4.4770    7.3900    0.4370 hc        1 0K9      0.075111
     61 H19        -3.7200    8.8420    0.4890 hc        1 0K9      0.075111
     62 H20        -3.4950    7.7290    1.6840 hc        1 0K9      0.075111
     63 H21        -1.3240    3.2180    0.1430 ha        1 0K9      0.133000
     64 H22         0.6310    1.4880   -0.9450 h1        1 0K9      0.139000
     65 H23        -1.9420    1.1810   -0.9270 hn        1 0K9      0.166000
     66 H25         0.1190    0.2010    0.3330 h1        1 0K9      0.076500
     67 H26        -1.4310    0.0510    0.8000 h1        1 0K9      0.076500
     68 H27        -1.6180   -1.8690   -0.5890 h1        1 0K9      0.107000
     69 H28        -0.1490   -2.2210   -1.9600 ho        1 0K9      0.237000
     70 H29        -0.1900   -1.7260    1.7210 h1        1 0K9      0.097000
     71 H30        -1.8340   -3.1850    2.0830 hn        1 0K9      0.247000
     72 H31        -3.5330   -5.0170    1.0900 h1        1 0K9      0.114000
     73 H32        -3.8470   -6.5330   -0.4110 hc        1 0K9      0.097000
     74 H33        -2.4730   -7.2620    0.0050 hc        1 0K9      0.097000
     75 H34        -2.4620   -6.0790   -1.0420 hc        1 0K9      0.097000
     76 H35        -2.9890   -7.7180    2.5720 h1        1 0K9      0.078000
     77 H36        -2.9850   -6.5710    3.6510 h1        1 0K9      0.078000
     78 H37        -4.0000   -6.4890    2.4420 h1        1 0K9      0.078000
     79 H38         1.3930   -2.7500   -0.1060 hc        1 0K9      0.113000
     80 H39         0.7080   -4.0680    0.4940 hc        1 0K9      0.113000
     81 H40         2.6180   -4.9470    1.7580 ha        1 0K9      0.155000
     82 H41         1.4010   -1.1380    2.4050 ha        1 0K9      0.133000
     83 H42         3.0150   -0.9500    4.1220 ha        1 0K9      0.135500
     84 H43         4.4000   -2.7380    4.6420 ha        1 0K9      0.135500
     85 H44         7.3070   -7.1310    3.5470 DU        1 0K9      0.182000
     86 H45         5.7240   -7.8260    5.4800 DU        1 0K9      0.182000
@<TRIPOS>BOND
     1    1    2 1   
     2    1    4 1   
     3    1   43 1   
     4    1   44 1   
     5    2    3 1   
     6    2   45 1   
     7    2   46 1   
     8    3    4 1   
     9    3   47 1   
    10    3   48 1   
    11    4    5 1   
    12    4    6 1   
    13    5   18 1   
    14    5   49 1   
    15    5   50 1   
    16    6    7 1   
    17    7    8 1   
    18    7   17 1   
    19    9   10 1   
    20    9   51 1   
    21   10   16 1   
    22   11   12 1   
    23   11   52 1   
    24   11   53 1   
    25   12   13 1   
    26   12   14 1   
    27   12   15 1   
    28   13   54 1   
    29   13   55 1   
    30   13   56 1   
    31   14   57 1   
    32   14   58 1   
    33   14   59 1   
    34   15   60 1   
    35   15   61 1   
    36   15   62 1   
    37   16   17 1   
    38   16   63 1   
    39   17   18 1   
    40   18   19 1   
    41   18   64 1   
    42   19   20 1   
    43   19   65 1   
    44   20   21 1   
    45   20   66 1   
    46   20   67 1   
    47   21   22 1   
    48   21   23 1   
    49   21   68 1   
    50   22   69 1   
    51   23   24 1   
    52   23   31 1   
    53   23   70 1   
    54   24   25 1   
    55   24   71 1   
    56   25   26 1   
    57   25   27 1   
    58   27   28 1   
    59   27   29 1   
    60   27   72 1   
    61   28   73 1   
    62   28   74 1   
    63   28   75 1   
    64   29   30 1   
    65   30   76 1   
    66   30   77 1   
    67   30   78 1   
    68   31   32 1   
    69   31   79 1   
    70   31   80 1   
    71   32   33 1   
    72   32   34 1   
    73   33   37 1   
    74   33   81 1   
    75   34   82 1   
    76   35   36 1   
    77   35   83 1   
    78   36   84 1   
    79   37   38 1   
    80   38   39 1   
    81   38   42 1   
    82   39   40 1   
    83   40   41 1   
    84   41   42 1   
@<TRIPOS>SUBSTRUCTURE
     1 0K9         1 TEMP              0 ****  ****    0 ROOT
