@<TRIPOS>MOLECULE
0KB
   36    37     1     0     0
SMALL
bcc


@<TRIPOS>ATOM
      1 OAW         2.1980    0.5520    1.5200 o         1 0KB     -0.878000
      2 PAV         3.2410    0.9890    0.5600 p5        1 0KB      1.391900
      3 OAY         4.2980    1.9420    0.9920 o         1 0KB     -0.878000
      4 OAX         3.9970   -0.3820    0.0640 oh        1 0KB     -0.793400
      5 CAQ         2.5240    1.5500   -0.8840 ca        1 0KB     -0.330500
      6 CAR         2.4470    2.9510   -0.8720 ca        1 0KB     -0.077000
      7 CAS         1.8940    3.6850   -1.9130 ca        1 0KB     -0.210000
      8 CAT         1.3940    3.0100   -3.0300 ca        1 0KB     -0.127000
      9 CAU         1.4600    1.6280   -3.0830 ca        1 0KB     -0.188000
     10 CAP         2.0190    0.8910   -2.0130 ca        1 0KB      0.194100
     11 OAO         1.9610   -0.5080   -2.1220 os        1 0KB     -0.228200
     12 CAA         2.6030   -1.0260   -3.2360 c2        1 0KB     -0.389900
     13 CAB         1.8800   -1.3490   -4.3820 c2        1 0KB      0.650300
     14 OAD         0.6650   -1.1170   -4.6510 o         1 0KB     -0.780300
     15 NAC         2.6650   -2.0590   -5.3850 n         1 0KB     -0.461100
     16 CAE         2.2660   -2.5920   -6.5750 ca        1 0KB      0.156600
     17 CAF         3.2190   -3.2700   -7.3980 ca        1 0KB     -0.239000
     18 CAG         2.8400   -3.8160   -8.6190 ca        1 0KB     -0.114300
     19 CAK         3.8750   -4.5450   -9.4600 c3        1 0KB      0.683200
     20 FAM         3.9410   -5.9050   -9.2500 f         1 0KB     -0.257967
     21 FAN         3.6930   -4.4540  -10.8230 f         1 0KB     -0.257967
     22 FAL         5.1780   -4.1380   -9.2920 f         1 0KB     -0.257967
     23 CAH         1.5320   -3.7280   -9.0860 ca        1 0KB     -0.206000
     24 CAI         0.5880   -3.0690   -8.2900 ca        1 0KB     -0.106000
     25 CAJ         0.9260   -2.5150   -7.0710 ca        1 0KB     -0.172000
     26 H3          2.8790    3.4740    0.0020 ha        1 0KB      0.147000
     27 H4          1.8540    4.7800   -1.8640 ha        1 0KB      0.091000
     28 H5          0.9500    3.5740   -3.8620 ha        1 0KB      0.089000
     29 H6          1.0730    1.0670   -3.9510 ha        1 0KB      0.160000
     30 H7          3.4140   -0.9800   -0.3910 ho        1 0KB      0.429000
     31 H8          3.6690   -1.1940   -3.0810 h4        1 0KB      0.115000
     32 H9          3.6220   -2.2010   -5.1480 hn        1 0KB      0.292500
     33 H10         4.2650   -3.3600   -7.0710 ha        1 0KB      0.130000
     34 H11         1.2530   -4.1600  -10.0540 ha        1 0KB      0.117000
     35 H12        -0.4500   -2.9930   -8.6470 ha        1 0KB      0.112000
     36 H13         0.1630   -2.0010   -6.4590 ha        1 0KB      0.197000
@<TRIPOS>BOND
     1    1    2 1   
     2    2    3 1   
     3    2    4 1   
     4    2    5 1   
     5    4   30 1   
     6    5    6 ar  
     7    5   10 ar  
     8    6    7 ar  
     9    6   26 1   
    10    7    8 ar  
    11    7   27 1   
    12    8    9 ar  
    13    8   28 1   
    14    9   10 ar  
    15    9   29 1   
    16   10   11 1   
    17   11   12 1   
    18   12   13 2   
    19   12   31 1   
    20   13   14 1   
    21   13   15 1   
    22   15   16 1   
    23   15   32 1   
    24   16   17 ar  
    25   16   25 ar  
    26   17   18 ar  
    27   17   33 1   
    28   18   19 1   
    29   18   23 ar  
    30   19   20 1   
    31   19   21 1   
    32   19   22 1   
    33   23   24 ar  
    34   23   34 1   
    35   24   25 ar  
    36   24   35 1   
    37   25   36 1   
@<TRIPOS>SUBSTRUCTURE
     1 0KB         1 TEMP              0 ****  ****    0 ROOT
