@<TRIPOS>MOLECULE
0KB
   36    37     1     0     0
SMALL
bcc


@<TRIPOS>ATOM
      1 OAW         2.0760    0.5870    1.5070 o         1 0KB     -0.878000
      2 PAV         3.1560    0.9940    0.5740 p5        1 0KB      1.391900
      3 OAY         4.2230    1.9230    1.0310 o         1 0KB     -0.878000
      4 OAX         3.8920   -0.3970    0.1050 oh        1 0KB     -0.793400
      5 CAQ         2.4920    1.5650   -0.8920 ca        1 0KB     -0.330500
      6 CAR         2.4500    2.9680   -0.8870 ca        1 0KB     -0.077000
      7 CAS         1.9440    3.7100   -1.9460 ca        1 0KB     -0.210000
      8 CAT         1.4580    3.0420   -3.0740 ca        1 0KB     -0.127000
      9 CAU         1.4920    1.6590   -3.1200 ca        1 0KB     -0.189000
     10 CAP         2.0030    0.9130   -2.0310 ca        1 0KB      0.194100
     11 OAO         1.9140   -0.4840   -2.1360 os        1 0KB     -0.228200
     12 CAA         2.5690   -1.0220   -3.2320 c2        1 0KB     -0.389900
     13 CAB         1.8660   -1.3340   -4.3940 c2        1 0KB      0.650300
     14 OAD         0.6630   -1.0750   -4.6920 o         1 0KB     -0.780300
     15 NAC         2.6570   -2.0670   -5.3750 ns        1 0KB     -0.461100
     16 CAE         2.2720   -2.5990   -6.5700 ca        1 0KB      0.156600
     17 CAF         3.2280   -3.3030   -7.3680 ca        1 0KB     -0.239000
     18 CAG         2.8640   -3.8470   -8.5940 ca        1 0KB     -0.114300
     19 CAK         3.9010   -4.6050   -9.4090 c3        1 0KB      0.683200
     20 FAM         3.9320   -5.9650   -9.1890 f         1 0KB     -0.257967
     21 FAN         3.7520   -4.5170  -10.7750 f         1 0KB     -0.257967
     22 FAL         5.2090   -4.2260   -9.2130 f         1 0KB     -0.257967
     23 CAH         1.5690   -3.7340   -9.0900 ca        1 0KB     -0.206000
     24 CAI         0.6220   -3.0500   -8.3190 ca        1 0KB     -0.106000
     25 CAJ         0.9460   -2.4960   -7.0970 ca        1 0KB     -0.172000
     26 H3          2.8700    3.4850   -0.0040 ha        1 0KB      0.147000
     27 H4          1.9290    4.8060   -1.9030 ha        1 0KB      0.091000
     28 H5          1.0510    3.6130   -3.9200 ha        1 0KB      0.089000
     29 H6          1.1150    1.1040   -3.9950 ha        1 0KB      0.160000
     30 H7          3.3070   -0.9830   -0.3630 ho        1 0KB      0.429000
     31 H8          3.6270   -1.2150   -3.0520 h4        1 0KB      0.115000
     32 H9          3.6050   -2.2290   -5.1160 hn        1 0KB      0.292500
     33 H10         4.2640   -3.4140   -7.0180 ha        1 0KB      0.130000
     34 H11         1.3020   -4.1660  -10.0620 ha        1 0KB      0.117000
     35 H12        -0.4060   -2.9530   -8.7000 ha        1 0KB      0.112000
     36 H13         0.1810   -1.9610   -6.5040 ha        1 0KB      0.197000
@<TRIPOS>BOND
     1    1    2 1   
     2    2    3 1   
     3    2    4 1   
     4    2    5 1   
     5    4   30 1   
     6    5    6 ar  
     7    5   10 ar  
     8    6    7 ar  
     9    6   26 1   
    10    7    8 ar  
    11    7   27 1   
    12    8    9 ar  
    13    8   28 1   
    14    9   10 ar  
    15    9   29 1   
    16   10   11 1   
    17   11   12 1   
    18   12   13 2   
    19   12   31 1   
    20   13   14 1   
    21   13   15 1   
    22   15   16 1   
    23   15   32 1   
    24   16   17 ar  
    25   16   25 ar  
    26   17   18 ar  
    27   17   33 1   
    28   18   19 1   
    29   18   23 ar  
    30   19   20 1   
    31   19   21 1   
    32   19   22 1   
    33   23   24 ar  
    34   23   34 1   
    35   24   25 ar  
    36   24   35 1   
    37   25   36 1   
@<TRIPOS>SUBSTRUCTURE
     1 0KB         1 TEMP              0 ****  ****    0 ROOT
