@<TRIPOS>MOLECULE
0KB
   36    29     1     0     0
SMALL
bcc


@<TRIPOS>ATOM
      1 OAW        -3.2760    2.2890    1.5010 o         1 0KB     -1.072333
      2 PAV        -2.8200    2.2710    2.8700 p3        1 0KB      2.649000
      3 OAY        -3.7690    3.0540    3.7250 o         1 0KB     -1.072333
      4 OAX        -2.7600    0.8520    3.3580 o         1 0KB     -1.072333
      5 CAQ        -1.2130    2.9960    2.9610 c1        1 0KB     -0.277500
      6 CAR        -1.0080    4.1140    3.7360 c1        1 0KB     -0.148500
      7 CAS         0.2880    4.6080    3.9170 c1        1 0KB     -0.166500
      8 CAT         1.3560    3.9760    3.3210 c1        1 0KB     -0.166500
      9 CAU         1.1570    2.8620    2.5480 c1        1 0KB     -0.148500
     10 CAP        -0.1300    2.3640    2.3620 c1        1 0KB     -0.277500
     11 OAO        -0.3340    1.1190    1.5930 o         1 0KB     -0.163000
     12 CAA         0.0510    1.2140    0.2010 c3        1 0KB     -0.438000
     13 CAB        -0.2030   -0.1110   -0.4790 c2        1 0KB      0.319000
     14 OAD        -1.0370   -0.9300    0.0200 o         1 0KB     -0.530000
     15 NAC         0.4910   -0.4420   -1.6430 n         1 0KB     -0.307000
     16 CAE         0.2680   -1.6950   -2.2730 c1        1 0KB      0.167000
     17 CAF         1.3350   -2.6080   -2.4090 c1        1 0KB     -0.233000
     18 CAG         1.1180   -3.8710   -2.9940 c1        1 0KB     -0.106000
     19 CAK         2.3200   -4.8600   -3.1860 c2        1 0KB      0.462000
     20 FAM         2.3590   -5.7210   -2.1510 f         1 0KB     -0.187667
     21 FAN         2.1710   -5.5320   -4.3140 f         1 0KB     -0.187667
     22 FAL         3.4940   -4.1440   -3.2330 f         1 0KB     -0.187667
     23 CAH        -0.1380   -4.2150   -3.4330 c2        1 0KB     -0.213000
     24 CAI        -1.2130   -3.2930   -3.2950 c1        1 0KB     -0.106000
     25 CAJ        -0.9880   -2.0330   -2.7090 c1        1 0KB     -0.179000
     26 H3         -1.7320    4.5360    4.1540 ha        1 0KB      0.144000
     27 H4          0.4380    5.4070    4.4720 ha        1 0KB      0.092500
     28 H5          2.2460    4.3560    3.3990 ha        1 0KB      0.092500
     29 H6          1.9180    2.4220    2.1290 ha        1 0KB      0.144000
     30 H7          1.0030    1.4390    0.1400 h1        1 0KB      0.196000
     31 H8         -0.4610    1.8880   -0.2250 h1        1 0KB      0.196000
     32 H9          1.0770    0.1710   -2.0230 hn        1 0KB      0.226000
     33 H10         2.2040   -2.3910   -2.0360 ha        1 0KB      0.136000
     34 H11        -0.3000   -5.1220   -3.8540 ha        1 0KB      0.114000
     35 H12        -2.1520   -3.5430   -3.6220 ha        1 0KB      0.108000
     36 H13        -1.7580   -1.4240   -2.5270 ha        1 0KB      0.193000
@<TRIPOS>BOND
     1    1    2 1   
     2    2    3 1   
     3    2    4 1   
     4    5    6 1   
     5    6   26 1   
     6    7    8 1   
     7    7   27 1   
     8    8   28 1   
     9    9   10 1   
    10    9   29 1   
    11   11   12 1   
    12   12   13 1   
    13   12   30 1   
    14   12   31 1   
    15   13   14 1   
    16   13   15 1   
    17   15   16 1   
    18   15   32 1   
    19   16   25 1   
    20   17   18 1   
    21   17   33 1   
    22   18   23 1   
    23   19   20 1   
    24   19   21 1   
    25   19   22 1   
    26   23   24 1   
    27   23   34 1   
    28   24   35 1   
    29   25   36 1   
@<TRIPOS>SUBSTRUCTURE
     1 0KB         1 TEMP              0 ****  ****    0 ROOT
