@<TRIPOS>MOLECULE
0KB
   36    37     1     0     0
SMALL
bcc


@<TRIPOS>ATOM
      1 OAW         2.0560    0.5610    1.5120 o         1 0KB     -0.878000
      2 PAV         3.1330    0.9820    0.5810 p5        1 0KB      1.391900
      3 OAY         4.1910    1.9180    1.0420 o         1 0KB     -0.878000
      4 OAX         3.8820   -0.4020    0.1080 oh        1 0KB     -0.793400
      5 CAQ         2.4650    1.5520   -0.8830 ca        1 0KB     -0.330500
      6 CAR         2.4090    2.9540   -0.8730 ca        1 0KB     -0.077000
      7 CAS         1.8970    3.6950   -1.9290 ca        1 0KB     -0.210000
      8 CAT         1.4180    3.0270   -3.0600 ca        1 0KB     -0.127000
      9 CAU         1.4640    1.6440   -3.1110 ca        1 0KB     -0.189000
     10 CAP         1.9820    0.9000   -2.0250 ca        1 0KB      0.194100
     11 OAO         1.9060   -0.4980   -2.1350 os        1 0KB     -0.228200
     12 CAA         2.5680   -1.0260   -3.2320 c2        1 0KB     -0.389900
     13 CAB         1.8690   -1.3400   -4.3960 c2        1 0KB      0.650300
     14 OAD         0.6650   -1.0910   -4.6950 o         1 0KB     -0.780300
     15 NAC         2.6690   -2.0630   -5.3790 n         1 0KB     -0.461100
     16 CAE         2.2910   -2.5920   -6.5770 ca        1 0KB      0.156600
     17 CAF         3.2540   -3.2850   -7.3750 ca        1 0KB     -0.239000
     18 CAG         2.8980   -3.8270   -8.6040 ca        1 0KB     -0.114300
     19 CAK         3.9430   -4.5730   -9.4190 c3        1 0KB      0.683200
     20 FAM         3.9830   -5.9340   -9.2060 f         1 0KB     -0.257967
     21 FAN         3.7970   -4.4800  -10.7860 f         1 0KB     -0.257967
     22 FAL         5.2470   -4.1860   -9.2180 f         1 0KB     -0.257967
     23 CAH         1.6030   -3.7210   -9.1040 ca        1 0KB     -0.206000
     24 CAI         0.6490   -3.0480   -8.3330 ca        1 0KB     -0.106000
     25 CAJ         0.9660   -2.4970   -7.1070 ca        1 0KB     -0.172000
     26 H3          2.8250    3.4710    0.0120 ha        1 0KB      0.147000
     27 H4          1.8730    4.7910   -1.8830 ha        1 0KB      0.091000
     28 H5          1.0060    3.5980   -3.9040 ha        1 0KB      0.089000
     29 H6          1.0930    1.0890   -3.9880 ha        1 0KB      0.160000
     30 H7          3.3030   -0.9910   -0.3630 ho        1 0KB      0.429000
     31 H8          3.6270   -1.2100   -3.0500 h4        1 0KB      0.115000
     32 H9          3.6170   -2.2190   -5.1180 hn        1 0KB      0.292500
     33 H10         4.2900   -3.3900   -7.0220 ha        1 0KB      0.130000
     34 H11         1.3420   -4.1510  -10.0780 ha        1 0KB      0.117000
     35 H12        -0.3780   -2.9570   -8.7150 ha        1 0KB      0.112000
     36 H13         0.1950   -1.9700   -6.5140 ha        1 0KB      0.197000
@<TRIPOS>BOND
     1    1    2 1   
     2    2    3 1   
     3    2    4 1   
     4    2    5 1   
     5    4   30 1   
     6    5    6 ar  
     7    5   10 ar  
     8    6    7 ar  
     9    6   26 1   
    10    7    8 ar  
    11    7   27 1   
    12    8    9 ar  
    13    8   28 1   
    14    9   10 ar  
    15    9   29 1   
    16   10   11 1   
    17   11   12 1   
    18   12   13 2   
    19   12   31 1   
    20   13   14 1   
    21   13   15 1   
    22   15   16 1   
    23   15   32 1   
    24   16   17 ar  
    25   16   25 ar  
    26   17   18 ar  
    27   17   33 1   
    28   18   19 1   
    29   18   23 ar  
    30   19   20 1   
    31   19   21 1   
    32   19   22 1   
    33   23   24 ar  
    34   23   34 1   
    35   24   25 ar  
    36   24   35 1   
    37   25   36 1   
@<TRIPOS>SUBSTRUCTURE
     1 0KB         1 TEMP              0 ****  ****    0 ROOT
