@<TRIPOS>MOLECULE
0KB
   36    37     1     0     0
SMALL
bcc


@<TRIPOS>ATOM
      1 OAW         5.9680   -1.5340   -1.0750 o         1 0KB     -0.878000
      2 PAV         5.3280   -0.3030   -1.6010 p5        1 0KB      1.391900
      3 OAY         6.1220    0.6620   -2.4070 o         1 0KB     -0.878000
      4 OAX         4.0820   -0.8120   -2.5430 oh        1 0KB     -0.793400
      5 CAQ         4.5190    0.5310   -0.3490 ca        1 0KB     -0.330500
      6 CAR         5.3230    1.5760    0.1310 ca        1 0KB     -0.077000
      7 CAS         4.9280    2.4160    1.1630 ca        1 0KB     -0.210000
      8 CAT         3.6750    2.2260    1.7540 ca        1 0KB     -0.127000
      9 CAU         2.8500    1.2110    1.3010 ca        1 0KB     -0.189000
     10 CAP         3.2660    0.3560    0.2530 ca        1 0KB      0.194100
     11 OAO         2.3980   -0.6970   -0.0760 os        1 0KB     -0.228200
     12 CAA         1.1310   -0.2960   -0.4720 c2        1 0KB     -0.389900
     13 CAB         0.0740   -0.2950    0.4350 c2        1 0KB      0.650300
     14 OAD         0.0950   -0.4900    1.6860 o         1 0KB     -0.780300
     15 NAC        -1.2230   -0.0360   -0.1810 n         1 0KB     -0.461100
     16 CAE        -2.4630   -0.0440    0.3840 ca        1 0KB      0.156600
     17 CAF        -3.6090    0.2220   -0.4300 ca        1 0KB     -0.239000
     18 CAG        -4.8840    0.2280    0.1220 ca        1 0KB     -0.114300
     19 CAK        -6.0820    0.4970   -0.7760 c3        1 0KB      0.683200
     20 FAM        -6.6770   -0.6290   -1.3020 f         1 0KB     -0.257967
     21 FAN        -7.1350    1.1470   -0.1700 f         1 0KB     -0.257967
     22 FAL        -5.8350    1.2700   -1.8870 f         1 0KB     -0.257967
     23 CAH        -5.0980   -0.0220    1.4740 ca        1 0KB     -0.206000
     24 CAI        -3.9870   -0.2860    2.2820 ca        1 0KB     -0.106000
     25 CAJ        -2.7050   -0.3010    1.7700 ca        1 0KB     -0.172000
     26 H3          6.2960    1.7380   -0.3700 ha        1 0KB      0.147000
     27 H4          5.5860    3.2240    1.5080 ha        1 0KB      0.091000
     28 H5          3.3480    2.8800    2.5740 ha        1 0KB      0.089000
     29 H6          1.8570    1.0350    1.7480 ha        1 0KB      0.160000
     30 H7          1.0660   -0.0590   -1.5340 h4        1 0KB      0.115000
     31 H8          3.4250   -1.2960   -2.0540 ho        1 0KB      0.429000
     32 H9         -1.1960    0.1360   -1.1620 hn        1 0KB      0.292500
     33 H10        -3.4870    0.4280   -1.5030 ha        1 0KB      0.130000
     34 H11        -6.1120   -0.0070    1.8930 ha        1 0KB      0.117000
     35 H12        -4.1420   -0.4860    3.3530 ha        1 0KB      0.112000
     36 H13        -1.8420   -0.5130    2.4280 ha        1 0KB      0.197000
@<TRIPOS>BOND
     1    1    2 1   
     2    2    3 1   
     3    2    4 1   
     4    2    5 1   
     5    4   31 1   
     6    5    6 ar  
     7    5   10 ar  
     8    6    7 ar  
     9    6   26 1   
    10    7    8 ar  
    11    7   27 1   
    12    8    9 ar  
    13    8   28 1   
    14    9   10 ar  
    15    9   29 1   
    16   10   11 1   
    17   11   12 1   
    18   12   13 2   
    19   12   30 1   
    20   13   14 1   
    21   13   15 1   
    22   15   16 1   
    23   15   32 1   
    24   16   17 ar  
    25   16   25 ar  
    26   17   18 ar  
    27   17   33 1   
    28   18   19 1   
    29   18   23 ar  
    30   19   20 1   
    31   19   21 1   
    32   19   22 1   
    33   23   24 ar  
    34   23   34 1   
    35   24   25 ar  
    36   24   35 1   
    37   25   36 1   
@<TRIPOS>SUBSTRUCTURE
     1 0KB         1 TEMP              0 ****  ****    0 ROOT
