@<TRIPOS>MOLECULE
0KC
   37    38     1     0     0
SMALL
bcc


@<TRIPOS>ATOM
      1 CAS         0.0000    0.0000    0.0000 c3        1 0KC     -0.022900
      2 CAR         1.5430    0.0000    0.0000 c3        1 0KC     -0.019400
      3 CAQ         1.9820    0.0000    1.4740 c3        1 0KC     -0.019400
      4 CAT         0.6920    0.0010    2.3190 c3        1 0KC     -0.022900
      5 CAP        -0.3830   -0.6020    1.3750 c3        1 0KC     -0.061500
      6 NAN        -1.7250   -0.1750    1.7760 ny        1 0KC      0.247200
      7 CAM        -2.7960   -0.9280    1.4570 c         1 0KC      0.067100
      8 OAO        -2.6480   -1.9610    0.8370 o         1 0KC     -0.467100
      9 CAL        -4.1770   -0.4880    1.8700 c3        1 0KC      0.193400
     10 OAK        -5.1370   -1.4470    1.4190 os        1 0KC     -0.201900
     11 CAB        -6.4410   -1.1970    1.7100 ca        1 0KC      0.166100
     12 CAA        -6.7890   -0.0560    2.4160 ca        1 0KC     -0.275000
     13 CAF        -8.1160    0.1940    2.7120 ca        1 0KC     -0.105000
     14 CAE        -9.0950   -0.6920    2.3050 ca        1 0KC     -0.188000
     15 CAD        -8.7510   -1.8320    1.6020 ca        1 0KC     -0.006000
     16 CAC        -7.4260   -2.0830    1.2980 ca        1 0KC     -0.035500
     17 PAG        -6.9750   -3.5740    0.3680 p5        1 0KC      0.524000
     18 OAI        -6.6960   -4.7830    1.3930 o         1 0KC     -0.595500
     19 OAJ        -8.1820   -3.9760   -0.6200 o         1 0KC     -0.595500
     20 OAH        -5.7550   -3.3100   -0.4270 o         1 0KC     -0.595500
     21 H1         -0.3770   -0.6220   -0.8030 hc        1 0KC      0.030450
     22 H2         -0.3770    1.0120   -0.0870 hc        1 0KC      0.030450
     23 H3          1.9130    0.8890   -0.4960 hc        1 0KC      0.022700
     24 H4          1.9130   -0.8890   -0.4960 hc        1 0KC      0.022700
     25 H5          2.5640    0.8890    1.6860 hc        1 0KC      0.022700
     26 H6          2.5620   -0.8900    1.6860 hc        1 0KC      0.022700
     27 H7          0.4240    1.0130    2.5980 hc        1 0KC      0.030450
     28 H8          0.8150   -0.6210    3.1970 hc        1 0KC      0.030450
     29 H9         -0.3080   -1.6830    1.3530 hx        1 0KC      0.113700
     30 H10        -1.8750    0.7290    1.3730 hn        1 0KC      0.184300
     31 H11        -4.3960    0.4770    1.4290 h1        1 0KC     -0.012300
     32 H12        -4.2240   -0.4110    2.9490 h1        1 0KC     -0.012300
     33 H13        -6.0220    0.6390    2.7360 ha        1 0KC      0.076000
     34 H14        -8.3890    1.0850    3.2640 ha        1 0KC      0.069000
     35 H15       -10.1340   -0.4950    2.5400 ha        1 0KC      0.079000
     36 H16        -9.5200   -2.5230    1.2820 ha        1 0KC      0.120000
     37 HAN2       -1.7170   -0.0880    2.7730 hn        1 0KC      0.184300
@<TRIPOS>BOND
     1    1    2 1   
     2    1    5 1   
     3    1   21 1   
     4    1   22 1   
     5    2    3 1   
     6    2   23 1   
     7    2   24 1   
     8    3    4 1   
     9    3   25 1   
    10    3   26 1   
    11    4    5 1   
    12    4   27 1   
    13    4   28 1   
    14    5    6 1   
    15    5   29 1   
    16    6    7 1   
    17    6   30 1   
    18    6   37 1   
    19    7    8 2   
    20    7    9 1   
    21    9   10 1   
    22    9   31 1   
    23    9   32 1   
    24   10   11 1   
    25   11   12 ar  
    26   11   16 ar  
    27   12   13 ar  
    28   12   33 1   
    29   13   14 ar  
    30   13   34 1   
    31   14   15 ar  
    32   14   35 1   
    33   15   16 ar  
    34   15   36 1   
    35   16   17 1   
    36   17   18 1   
    37   17   19 1   
    38   17   20 1   
@<TRIPOS>SUBSTRUCTURE
     1 0KC         1 TEMP              0 ****  ****    0 ROOT
