@<TRIPOS>MOLECULE
0KC
   36    33     1     0     0
SMALL
bcc


@<TRIPOS>ATOM
      1 CAS         3.0540   -0.6180   -2.3940 c3        1 0KC     -0.186000
      2 CAR         4.6380   -0.9620   -2.4760 c3        1 0KC     -0.149000
      3 CAQ         5.1130   -1.1340   -0.9790 c3        1 0KC     -0.149000
      4 CAT         4.0550   -0.6590   -0.2070 c3        1 0KC     -0.186000
      5 CAP         2.6990   -0.8690   -1.1080 c3        1 0KC      0.058000
      6 NAN         1.7220    0.0360   -0.7060 n3        1 0KC     -0.357000
      7 CAM         0.3550   -0.4300   -0.4380 c1        1 0KC      0.301000
      8 OAO         0.0590   -1.6850   -0.5750 o         1 0KC     -0.496000
      9 CAL        -0.7200    0.5690    0.0100 c2        1 0KC     -0.081000
     10 OAK        -1.9540   -0.1470    0.3000 os        1 0KC     -0.246000
     11 CAB        -2.9820    0.6700    0.7860 c2        1 0KC      0.114000
     12 CAA        -3.2240    1.9280    0.1900 c2        1 0KC     -0.203000
     13 CAF        -4.2470    2.7230    0.6570 c1        1 0KC     -0.167000
     14 CAE        -5.0530    2.2830    1.7280 c1        1 0KC     -0.158000
     15 CAD        -4.8090    1.0220    2.3240 c1        1 0KC     -0.158000
     16 CAC        -3.7890    0.2280    1.8600 c1        1 0KC     -0.572000
     17 PAG        -3.6200   -1.4200    2.4650 p3        1 0KC      2.588000
     18 OAI        -3.7700   -2.4050    1.3050 o         1 0KC     -1.231333
     19 OAJ        -2.2560   -1.5890    3.1000 o         1 0KC     -1.231333
     20 OAH        -4.6610   -1.6820    3.4690 o         1 0KC     -1.231333
     21 H1          2.5390   -1.2070   -3.0160 hc        1 0KC      0.103250
     22 H2          2.8980    0.3250   -2.6110 hc        1 0KC      0.103250
     23 H3          5.1320   -0.2100   -2.9080 hc        1 0KC      0.052500
     24 H4          4.7950   -1.8690   -3.0240 hc        1 0KC      0.052500
     25 H5          5.2890   -2.1210   -0.7720 hc        1 0KC      0.052500
     26 H6          5.9140   -0.6040   -0.8180 hc        1 0KC      0.052500
     27 H7          3.9830   -1.1970    0.6700 hc        1 0KC      0.103250
     28 H8          4.1790    0.2670   -0.0120 hc        1 0KC      0.103250
     29 H9          2.3580   -1.8300   -1.0150 h1        1 0KC      0.067000
     30 H10         1.9030    0.8930   -0.6920 hn        1 0KC      0.331000
     31 H11        -0.8770    1.2070   -0.6910 h4        1 0KC      0.140500
     32 H12        -0.3970    1.0660    0.8660 h4        1 0KC      0.140500
     33 H13        -2.6980    2.2050   -0.6820 ha        1 0KC      0.098000
     34 H14        -4.4190    3.6140    0.2340 ha        1 0KC      0.074000
     35 H15        -5.8330    2.8920    2.0830 ha        1 0KC      0.133000
     36 H16        -5.3750    0.7110    3.0770 ha        1 0KC      0.133000
@<TRIPOS>BOND
     1    1    2 1   
     2    1    5 1   
     3    1   21 1   
     4    1   22 1   
     5    2    3 1   
     6    2   23 1   
     7    2   24 1   
     8    3    4 1   
     9    3   25 1   
    10    3   26 1   
    11    4    5 1   
    12    4   27 1   
    13    4   28 1   
    14    5    6 1   
    15    5   29 1   
    16    6    7 1   
    17    6   30 1   
    18    7    8 1   
    19    9   10 1   
    20    9   31 1   
    21    9   32 1   
    22   10   11 1   
    23   11   12 1   
    24   11   16 1   
    25   12   13 1   
    26   12   33 1   
    27   13   34 1   
    28   14   15 1   
    29   14   35 1   
    30   15   36 1   
    31   17   18 1   
    32   17   19 1   
    33   17   20 1   
@<TRIPOS>SUBSTRUCTURE
     1 0KC         1 TEMP              0 ****  ****    0 ROOT
