@<TRIPOS>MOLECULE
0KC
   37    38     1     0     0
SMALL
bcc


@<TRIPOS>ATOM
      1 CAS         0.9120    0.1550    2.0440 c3        1 0KC     -0.101900
      2 CAR         1.6680   -0.5330    0.9180 c3        1 0KC     -0.074900
      3 CAQ         0.6370   -1.1740   -0.0030 c3        1 0KC     -0.074900
      4 CAT        -0.7420   -0.7970    0.5130 c3        1 0KC     -0.101900
      5 CAP        -0.5420    0.3260    1.5550 c3        1 0KC      0.173500
      6 NAN        -1.5100    0.3880    2.6310 n3        1 0KC     -0.896800
      7 CAM        -4.6290   -1.1290   -0.6340 c         1 0KC      0.773600
      8 OAO        -3.6950   -0.9590   -1.4270 o         1 0KC     -0.642500
      9 CAL        -5.8190   -0.1800   -0.6000 c3        1 0KC      0.038400
     10 OAK        -6.0550    0.4380    0.6590 os        1 0KC     -0.335900
     11 CAB        -6.5920   -0.3810    1.6550 ca        1 0KC      0.181100
     12 CAA        -7.7580    0.1800    2.2240 ca        1 0KC     -0.177000
     13 CAF        -8.3940   -0.4590    3.2780 ca        1 0KC     -0.104000
     14 CAE        -7.8920   -1.6700    3.7600 ca        1 0KC     -0.174000
     15 CAD        -6.7440   -2.2080    3.1900 ca        1 0KC     -0.064000
     16 CAC        -6.0580   -1.5740    2.1430 ca        1 0KC     -0.351500
     17 PAG        -4.6430   -2.4160    1.7500 p5        1 0KC      1.426900
     18 OAI        -3.4530   -1.6440    2.1520 o         1 0KC     -0.835500
     19 OAJ        -4.8200   -3.8540    2.0050 o         1 0KC     -0.835500
     20 OAH        -4.6760   -2.2550    0.0610 os        1 0KC     -0.566500
     21 H1          1.3610    1.1480    2.2890 hc        1 0KC      0.054700
     22 H2          0.9500   -0.4710    2.9700 hc        1 0KC      0.054700
     23 H3          2.3710   -1.3010    1.3260 hc        1 0KC      0.023950
     24 H4          2.2840    0.2110    0.3520 hc        1 0KC      0.023950
     25 H5          0.7580   -2.2860   -0.0180 hc        1 0KC      0.023950
     26 H6          0.7780   -0.8130   -1.0530 hc        1 0KC      0.023950
     27 H7         -1.4120   -0.4540   -0.3140 hc        1 0KC      0.054700
     28 H8         -1.2460   -1.6780    0.9900 hc        1 0KC      0.054700
     29 H9         -0.6060    1.3160    1.0120 h1        1 0KC      0.029700
     30 H10        -2.4320    0.4570    2.2330 hn        1 0KC      0.365300
     31 H11        -5.6120    0.6940   -1.2760 h1        1 0KC      0.067200
     32 H12        -6.7300   -0.7380   -0.9410 h1        1 0KC      0.067200
     33 H13        -8.1390    1.1310    1.8270 ha        1 0KC      0.131000
     34 H14        -9.2950   -0.0160    3.7270 ha        1 0KC      0.114000
     35 H15        -8.4010   -2.1920    4.5810 ha        1 0KC      0.120000
     36 H16        -6.3480   -3.1790    3.5470 ha        1 0KC      0.171000
     37 HAN2       -1.5000   -0.4780    3.1440 hn        1 0KC      0.365300
@<TRIPOS>BOND
     1    1    2 1   
     2    1    5 1   
     3    1   21 1   
     4    1   22 1   
     5    2    3 1   
     6    2   23 1   
     7    2   24 1   
     8    3    4 1   
     9    3   25 1   
    10    3   26 1   
    11    4    5 1   
    12    4   27 1   
    13    4   28 1   
    14    5    6 1   
    15    5   29 1   
    16    6   30 1   
    17    6   37 1   
    18    7    8 2   
    19    7    9 1   
    20    7   20 1   
    21    9   10 1   
    22    9   31 1   
    23    9   32 1   
    24   10   11 1   
    25   11   12 ar  
    26   11   16 ar  
    27   12   13 ar  
    28   12   33 1   
    29   13   14 ar  
    30   13   34 1   
    31   14   15 ar  
    32   14   35 1   
    33   15   16 ar  
    34   15   36 1   
    35   16   17 1   
    36   17   18 1   
    37   17   19 1   
    38   17   20 1   
@<TRIPOS>SUBSTRUCTURE
     1 0KC         1 TEMP              0 ****  ****    0 ROOT
