@<TRIPOS>MOLECULE
0KC
   36    37     1     0     0
SMALL
bcc


@<TRIPOS>ATOM
      1 CAS        -3.6750    1.3810   -0.5220 c3        1 0KC     -0.107400
      2 CAR        -4.9660    1.2100   -1.3060 c3        1 0KC     -0.070900
      3 CAQ        -5.6130   -0.0970   -0.8650 c3        1 0KC     -0.070900
      4 CAT        -4.5960   -0.8350   -0.0120 c3        1 0KC     -0.107400
      5 CAP        -3.6190    0.2420    0.5250 c3        1 0KC      0.122700
      6 NAN        -2.2880   -0.2490    0.7540 n         1 0KC     -0.542900
      7 CAM        -1.7570   -0.3670    2.0090 c         1 0KC      0.654100
      8 OAO        -2.4430   -0.2820    3.0620 o         1 0KC     -0.727100
      9 CAL        -0.2500   -0.6210    2.0890 c3        1 0KC      0.016400
     10 OAK         0.0410   -1.8500    1.4320 os        1 0KC     -0.364900
     11 CAB         1.1090   -1.8630    0.5370 ca        1 0KC      0.158100
     12 CAA         1.8330   -3.0710    0.6180 ca        1 0KC     -0.205000
     13 CAF         2.8790   -3.3120   -0.2660 ca        1 0KC     -0.167000
     14 CAE         3.2080   -2.3490   -1.2160 ca        1 0KC     -0.201000
     15 CAD         2.4820   -1.1580   -1.2740 ca        1 0KC     -0.118000
     16 CAC         1.4230   -0.8750   -0.4130 ca        1 0KC     -0.183500
     17 PAG         0.7790    0.8790   -0.9200 p5        1 0KC      1.240000
     18 OAI         1.7080    1.3470   -2.0000 o         1 0KC     -0.910833
     19 OAJ        -0.6340    0.5890   -1.3710 o         1 0KC     -0.910833
     20 OAH         0.8600    1.6110    0.3930 o         1 0KC     -0.910833
     21 H1         -2.7750    1.3270   -1.2040 hc        1 0KC      0.063950
     22 H2         -3.6460    2.3700   -0.0050 hc        1 0KC      0.063950
     23 H3         -5.6620    2.0680   -1.1260 hc        1 0KC      0.012950
     24 H4         -4.7500    1.1860   -2.4040 hc        1 0KC      0.012950
     25 H5         -6.5410    0.1110   -0.2740 hc        1 0KC      0.012950
     26 H6         -5.9150   -0.7120   -1.7490 hc        1 0KC      0.012950
     27 H7         -5.0850   -1.3740    0.8340 hc        1 0KC      0.063950
     28 H8         -4.0480   -1.5880   -0.6310 hc        1 0KC      0.063950
     29 H9         -4.0420    0.6230    1.5020 h1        1 0KC      0.039700
     30 H10        -1.6270   -0.1410   -0.0340 hn        1 0KC      0.408500
     31 H11         0.3050    0.2630    1.6220 h1        1 0KC      0.106200
     32 H12         0.0310   -0.7600    3.1660 h1        1 0KC      0.106200
     33 H13         1.5520   -3.8180    1.3720 ha        1 0KC      0.097000
     34 H14         3.4390   -4.2550   -0.2080 ha        1 0KC      0.074000
     35 H15         4.0350   -2.5290   -1.9150 ha        1 0KC      0.080000
     36 H16         2.7480   -0.3940   -2.0360 ha        1 0KC      0.184000
@<TRIPOS>BOND
     1    1    2 1   
     2    1    5 1   
     3    1   21 1   
     4    1   22 1   
     5    2    3 1   
     6    2   23 1   
     7    2   24 1   
     8    3    4 1   
     9    3   25 1   
    10    3   26 1   
    11    4    5 1   
    12    4   27 1   
    13    4   28 1   
    14    5    6 1   
    15    5   29 1   
    16    6    7 1   
    17    6   30 1   
    18    7    8 2   
    19    7    9 1   
    20    9   10 1   
    21    9   31 1   
    22    9   32 1   
    23   10   11 1   
    24   11   12 ar  
    25   11   16 ar  
    26   12   13 ar  
    27   12   33 1   
    28   13   14 ar  
    29   13   34 1   
    30   14   15 ar  
    31   14   35 1   
    32   15   16 ar  
    33   15   36 1   
    34   16   17 1   
    35   17   18 1   
    36   17   19 1   
    37   17   20 1   
@<TRIPOS>SUBSTRUCTURE
     1 0KC         1 TEMP              0 ****  ****    0 ROOT
