@<TRIPOS>MOLECULE
0KD
   34    37     1     0     0
SMALL
bcc


@<TRIPOS>ATOM
      1 C1         -2.6390    1.9610   -0.7440 cc        1 0KD     -0.101000
      2 C2         -3.6800    2.7150   -1.2370 cd        1 0KD     -0.186100
      3 S3         -4.9980    1.7700   -1.6320 ss        1 0KD      0.090200
      4 C4         -4.2700    0.3510   -1.1780 cd        1 0KD     -0.174100
      5 C5         -2.9830    0.5680   -0.7070 cc        1 0KD     -0.160900
      6 C6         -2.0670   -0.4500   -0.2310 cc        1 0KD      0.527400
      7 N7         -2.4900   -1.7780    0.0110 na        1 0KD     -0.371000
      8 C8         -1.3640   -2.4810    0.4650 ca        1 0KD      0.394800
      9 C9         -0.2680   -1.5040    0.4660 ca        1 0KD     -0.009900
     10 N10        -0.7470   -0.2630    0.0290 nd        1 0KD     -0.583100
     11 N11        -1.2490   -3.7850    0.8370 nb        1 0KD     -0.639000
     12 C12        -0.0200   -4.1410    1.2340 ca        1 0KD      0.400200
     13 C13         1.1060   -3.2800    1.2870 ca        1 0KD     -0.205300
     14 C14         0.9930   -1.9480    0.8980 ca        1 0KD     -0.062600
     15 C15         2.1920   -1.0630    1.0040 c         1 0KD      0.685700
     16 N16         2.3510   -0.1070    0.0140 n         1 0KD     -0.445100
     17 C17         3.3500    0.8730   -0.0440 ca        1 0KD     -0.043700
     18 C18         4.4870    0.9030    0.7920 ca        1 0KD     -0.124000
     19 C19         5.4240    1.9200    0.6190 ca        1 0KD     -0.219300
     20 C20         5.2170    2.8860   -0.3780 ca        1 0KD      0.359200
     21 N21         4.1410    2.8820   -1.1890 nb        1 0KD     -0.645000
     22 C22         3.2360    1.9080   -1.0260 ca        1 0KD      0.347200
     23 O23         3.0140   -1.2340    1.9250 o         1 0KD     -0.590100
     24 H1         -1.6690    2.3450   -0.4150 ha        1 0KD      0.179000
     25 H2         -3.6680    3.7970   -1.3630 h4        1 0KD      0.181000
     26 H3         -4.7650   -0.6150   -1.2610 h4        1 0KD      0.171000
     27 H4         -3.4050   -2.1330   -0.0790 hn        1 0KD      0.320700
     28 H6          0.0840   -5.1980    1.5410 h4        1 0KD      0.033100
     29 H7          2.0710   -3.6640    1.6530 ha        1 0KD      0.169000
     30 H8          1.6200   -0.0070   -0.6580 hn        1 0KD      0.339500
     31 H9          4.6400    0.1410    1.5740 ha        1 0KD      0.177000
     32 H10         6.3160    1.9640    1.2580 ha        1 0KD      0.144000
     33 H11         5.9390    3.7040   -0.5410 h4        1 0KD      0.022100
     34 H12         2.3700    1.9480   -1.7130 h4        1 0KD      0.021100
@<TRIPOS>BOND
     1    1    2 2   
     2    1    5 1   
     3    1   24 1   
     4    2    3 1   
     5    2   25 1   
     6    3    4 1   
     7    4    5 2   
     8    4   26 1   
     9    5    6 1   
    10    6    7 1   
    11    6   10 2   
    12    7    8 1   
    13    7   27 1   
    14    8    9 ar  
    15    8   11 ar  
    16    9   10 1   
    17    9   14 ar  
    18   11   12 ar  
    19   12   13 ar  
    20   12   28 1   
    21   13   14 ar  
    22   13   29 1   
    23   14   15 1   
    24   15   16 1   
    25   15   23 2   
    26   16   17 1   
    27   16   30 1   
    28   17   18 ar  
    29   17   22 ar  
    30   18   19 ar  
    31   18   31 1   
    32   19   20 ar  
    33   19   32 1   
    34   20   21 ar  
    35   20   33 1   
    36   21   22 ar  
    37   22   34 1   
@<TRIPOS>SUBSTRUCTURE
     1 0KD         1 TEMP              0 ****  ****    0 ROOT
