@<TRIPOS>MOLECULE
0KD
   35    38     1     0     0
SMALL
bcc


@<TRIPOS>ATOM
      1 C1         -0.7860   -1.0610   -0.1770 cc        1 0KD     -0.098000
      2 C2          0.4970   -1.5680   -0.1970 cd        1 0KD     -0.201100
      3 S3          1.1520   -1.6530    1.3270 ss        1 0KD      0.209200
      4 C4         -0.1810   -1.0430    2.0750 cd        1 0KD     -0.179100
      5 C5         -1.1920   -0.7490    1.1610 cc        1 0KD     -0.207900
      6 C6         -2.4900   -0.2020    1.4860 cc        1 0KD      0.607400
      7 N7         -2.8270    0.1990    2.7930 na        1 0KD     -0.356000
      8 C8         -4.1480    0.6780    2.7480 ca        1 0KD      0.402800
      9 C9         -4.5620    0.5340    1.3430 ca        1 0KD      0.006100
     10 N10        -3.5150   -0.0100    0.6000 nd        1 0KD     -0.680100
     11 N11        -4.9250    1.1770    3.7410 nb        1 0KD     -0.579000
     12 C12        -6.1540    1.5560    3.3580 ca        1 0KD      0.397200
     13 C13        -6.6610    1.4700    2.0400 ca        1 0KD     -0.153300
     14 C14        -5.8620    0.9520    1.0120 ca        1 0KD     -0.143600
     15 C15        -6.4280    0.8980   -0.3370 c         1 0KD      0.568700
     16 N16        -5.5970    0.1520   -1.3730 n4        1 0KD     -0.523200
     17 C17        -6.2690   -0.0650   -2.6460 ca        1 0KD     -0.178700
     18 C18        -6.2890    0.9380   -3.6360 ca        1 0KD     -0.050000
     19 C19        -6.9380    0.6670   -4.8370 ca        1 0KD     -0.221300
     20 C20        -7.5520   -0.5900   -5.0120 ca        1 0KD      0.454200
     21 N21        -7.5410   -1.5540   -4.0710 nb        1 0KD     -0.627000
     22 C22        -6.9170   -1.3010   -2.9100 ca        1 0KD      0.443200
     23 O23        -7.4830    1.3840   -0.7180 o         1 0KD     -0.413100
     24 H1         -1.4210   -0.9090   -1.0530 ha        1 0KD      0.164000
     25 H2          1.0320   -1.8790   -1.0960 h4        1 0KD      0.193000
     26 H3         -0.2390   -0.9020    3.1550 h4        1 0KD      0.179000
     27 H4         -2.2480    0.1630    3.5940 hn        1 0KD      0.340700
     28 H6         -6.7900    1.9650    4.1700 h4        1 0KD      0.061100
     29 H7         -7.6860    1.8160    1.8280 ha        1 0KD      0.181000
     30 H8         -4.7340    0.6930   -1.5360 hn        1 0KD      0.477300
     31 H9         -5.8110    1.9180   -3.4730 ha        1 0KD      0.162000
     32 H10        -6.9780    1.4220   -5.6370 ha        1 0KD      0.180000
     33 H11        -8.0840   -0.8420   -5.9520 h4        1 0KD      0.061100
     34 H12        -6.9380   -2.1250   -2.1700 h4        1 0KD      0.044100
     35 H162       -5.3300   -0.7600   -0.9760 hn        1 0KD      0.477300
@<TRIPOS>BOND
     1    1    2 2   
     2    1    5 1   
     3    1   24 1   
     4    2    3 1   
     5    2   25 1   
     6    3    4 1   
     7    4    5 2   
     8    4   26 1   
     9    5    6 1   
    10    6    7 1   
    11    6   10 2   
    12    7    8 1   
    13    7   27 1   
    14    8    9 ar  
    15    8   11 ar  
    16    9   10 1   
    17    9   14 ar  
    18   11   12 ar  
    19   12   13 ar  
    20   12   28 1   
    21   13   14 ar  
    22   13   29 1   
    23   14   15 1   
    24   15   16 1   
    25   15   23 2   
    26   16   17 1   
    27   16   30 1   
    28   16   35 1   
    29   17   18 ar  
    30   17   22 ar  
    31   18   19 ar  
    32   18   31 1   
    33   19   20 ar  
    34   19   32 1   
    35   20   21 ar  
    36   20   33 1   
    37   21   22 ar  
    38   22   34 1   
@<TRIPOS>SUBSTRUCTURE
     1 0KD         1 TEMP              0 ****  ****    0 ROOT
