@<TRIPOS>MOLECULE
0KD
   34    25     1     0     0
SMALL
bcc


@<TRIPOS>ATOM
      1 C1          4.7920   -1.1110    0.8750 cg        1 0KD     -0.111500
      2 C2          6.1380   -0.6870    0.5360 c1        1 0KD     -0.200400
      3 S3          6.1750    0.8640    0.5810 ss        1 0KD      0.177800
      4 C4          4.7560    1.3550    0.9710 c1        1 0KD     -0.200400
      5 C5          3.9140    0.1880    1.1510 cg        1 0KD     -0.111500
      6 C6          2.4510    0.2020    1.5360 c1        1 0KD      0.280900
      7 N7          2.0480    0.2360    2.8330 ne        1 0KD     -0.491400
      8 C8          0.6910    0.2630    2.8510 cg        1 0KD      0.438300
      9 C9          0.2540    0.2450    1.5590 c1        1 0KD     -0.085000
     10 N10         1.3420    0.2070    0.7500 n1        1 0KD     -0.135500
     11 N11        -0.2230    0.3050    3.8910 n1        1 0KD     -0.461300
     12 C12        -1.5590    0.3280    3.6250 c1        1 0KD     -0.070000
     13 C13        -2.0050    0.3100    2.3140 c1        1 0KD     -0.070000
     14 C14        -1.1070    0.2680    1.2880 cg        1 0KD     -0.011200
     15 C15        -1.7700    0.5140   -0.0490 c         1 0KD      0.634300
     16 N16        -2.1490   -0.5820   -0.8640 n         1 0KD     -0.459700
     17 C17        -2.7280   -0.3510   -2.1380 c1        1 0KD      0.034200
     18 C18        -2.5920   -1.2810   -3.1270 c1        1 0KD     -0.070000
     19 C19        -3.1890   -1.0800   -4.3380 c1        1 0KD     -0.070000
     20 C20        -3.9320    0.0680   -4.5610 c1        1 0KD      0.280300
     21 N21        -4.0670    0.9960   -3.5730 n1        1 0KD     -0.444800
     22 C22        -3.4720    0.7960   -2.3640 c1        1 0KD     -0.033500
     23 O23        -1.9400    1.6510   -0.4420 o         1 0KD     -0.585100
     24 H1          4.4790   -2.0340    0.9240 DU        1 0KD      0.200000
     25 H2          6.8870   -1.2740    0.3180 DU        1 0KD      0.200000
     26 H3          4.4790    2.2860    1.0770 DU        1 0KD      0.200000
     27 H4          2.5930    0.2320    3.5640 DU        1 0KD      0.200000
     28 H6         -2.2010    0.3580    4.3590 ha        1 0KD      0.096750
     29 H7         -2.9630    0.3260    2.1240 ha        1 0KD      0.096750
     30 H8         -2.0140   -1.4350   -0.5720 hn        1 0KD      0.337500
     31 H9         -2.0680   -2.0900   -2.9690 ha        1 0KD      0.096750
     32 H10        -3.0920   -1.7450   -5.0460 ha        1 0KD      0.096750
     33 H11        -4.3590    0.2120   -5.4270 ha        1 0KD      0.101500
     34 H12        -3.5690    1.4620   -1.6560 ha        1 0KD      0.141500
@<TRIPOS>BOND
     1    1    2 3   
     2    1    5 1   
     3    2    3 1   
     4    3    4 1   
     5    4    5 3   
     6    6    7 2   
     7    6   10 2   
     8    7    8 1   
     9    8   11 3   
    10    9   14 3   
    11   12   13 3   
    12   12   28 1   
    13   13   29 1   
    14   14   15 1   
    15   15   16 1   
    16   15   23 2   
    17   16   17 1   
    18   16   30 1   
    19   17   22 3   
    20   18   19 3   
    21   18   31 1   
    22   19   32 1   
    23   20   21 3   
    24   20   33 1   
    25   22   34 1   
@<TRIPOS>SUBSTRUCTURE
     1 0KD         1 TEMP              0 ****  ****    0 ROOT
