@<TRIPOS>MOLECULE
0KD
   34    37     1     0     0
SMALL
bcc


@<TRIPOS>ATOM
      1 C1         -0.6730    0.7780   -0.2770 cc        1 0KD     -0.101000
      2 C2          0.6150    1.2590   -0.3440 cd        1 0KD     -0.186100
      3 S3          1.2360    1.5860    1.1700 ss        1 0KD      0.090200
      4 C4         -0.1390    1.1150    1.9690 cd        1 0KD     -0.174100
      5 C5         -1.1210    0.6910    1.0850 cc        1 0KD     -0.160900
      6 C6         -2.4430    0.2160    1.4430 cc        1 0KD      0.527400
      7 N7         -2.7920   -0.0740    2.7820 na        1 0KD     -0.371000
      8 C8         -4.1250   -0.5130    2.7630 ca        1 0KD      0.394800
      9 C9         -4.5350   -0.4540    1.3540 ca        1 0KD     -0.009900
     10 N10        -3.4650    0.0020    0.5750 nd        1 0KD     -0.583100
     11 N11        -4.9200   -0.9150    3.7920 nb        1 0KD     -0.639000
     12 C12        -6.1540   -1.2840    3.4260 ca        1 0KD      0.400200
     13 C13        -6.6520   -1.2800    2.0990 ca        1 0KD     -0.205300
     14 C14        -5.8440   -0.8600    1.0460 ca        1 0KD     -0.062600
     15 C15        -6.3910   -0.9050   -0.3440 c         1 0KD      0.685700
     16 N16        -6.0070    0.1150   -1.2000 n         1 0KD     -0.445100
     17 C17        -6.3320    0.2300   -2.5570 ca        1 0KD     -0.043700
     18 C18        -7.2870   -0.5730   -3.2190 ca        1 0KD     -0.124000
     19 C19        -7.5390   -0.3440   -4.5700 ca        1 0KD     -0.219300
     20 C20        -6.8420    0.6750   -5.2390 ca        1 0KD      0.359200
     21 N21        -5.9260    1.4550   -4.6320 nb        1 0KD     -0.645000
     22 C22        -5.6780    1.2390   -3.3340 ca        1 0KD      0.347200
     23 O23        -7.1890   -1.8060   -0.6710 o         1 0KD     -0.590100
     24 H1         -1.2950    0.4910   -1.1290 ha        1 0KD      0.179000
     25 H2          1.1800    1.4160   -1.2630 h4        1 0KD      0.181000
     26 H3         -0.2310    1.1560    3.0540 h4        1 0KD      0.171000
     27 H4         -2.2040   -0.0210    3.5720 hn        1 0KD      0.320700
     28 H6         -6.8070   -1.6160    4.2550 h4        1 0KD      0.033100
     29 H7         -7.6770   -1.6270    1.8980 ha        1 0KD      0.169000
     30 H8         -5.3270    0.7670   -0.8700 hn        1 0KD      0.339500
     31 H9         -7.8270   -1.3720   -2.6860 ha        1 0KD      0.177000
     32 H10        -8.2770   -0.9560   -5.1060 ha        1 0KD      0.144000
     33 H11        -7.0180    0.8820   -6.3080 h4        1 0KD      0.022100
     34 H12        -4.9180    1.9010   -2.8810 h4        1 0KD      0.021100
@<TRIPOS>BOND
     1    1    2 2   
     2    1    5 1   
     3    1   24 1   
     4    2    3 1   
     5    2   25 1   
     6    3    4 1   
     7    4    5 2   
     8    4   26 1   
     9    5    6 1   
    10    6    7 1   
    11    6   10 2   
    12    7    8 1   
    13    7   27 1   
    14    8    9 ar  
    15    8   11 ar  
    16    9   10 1   
    17    9   14 ar  
    18   11   12 ar  
    19   12   13 ar  
    20   12   28 1   
    21   13   14 ar  
    22   13   29 1   
    23   14   15 1   
    24   15   16 1   
    25   15   23 2   
    26   16   17 1   
    27   16   30 1   
    28   17   18 ar  
    29   17   22 ar  
    30   18   19 ar  
    31   18   31 1   
    32   19   20 ar  
    33   19   32 1   
    34   20   21 ar  
    35   20   33 1   
    36   21   22 ar  
    37   22   34 1   
@<TRIPOS>SUBSTRUCTURE
     1 0KD         1 TEMP              0 ****  ****    0 ROOT
