@<TRIPOS>MOLECULE
0KD
   34    37     1     0     0
SMALL
bcc


@<TRIPOS>ATOM
      1 C1         -0.6960    0.8890   -0.2560 cc        1 0KD     -0.101000
      2 C2          0.5770    1.4110   -0.3100 cd        1 0KD     -0.186100
      3 S3          1.1890    1.7110    1.2140 ss        1 0KD      0.090200
      4 C4         -0.1710    1.1750    1.9990 cd        1 0KD     -0.174100
      5 C5         -1.1400    0.7480    1.1020 cc        1 0KD     -0.160900
      6 C6         -2.4460    0.2220    1.4460 cc        1 0KD      0.527400
      7 N7         -2.7840   -0.1200    2.7760 na        1 0KD     -0.371000
      8 C8         -4.1030   -0.5980    2.7440 ca        1 0KD      0.394800
      9 C9         -4.5170   -0.5080    1.3380 ca        1 0KD     -0.009900
     10 N10        -3.4630    0.0040    0.5720 nd        1 0KD     -0.583100
     11 N11        -4.8830   -1.0570    3.7610 nb        1 0KD     -0.639000
     12 C12        -6.1070   -1.4510    3.3840 ca        1 0KD      0.400200
     13 C13        -6.6060   -1.4210    2.0580 ca        1 0KD     -0.205300
     14 C14        -5.8140   -0.9430    1.0180 ca        1 0KD     -0.062600
     15 C15        -6.3620   -0.9620   -0.3720 c         1 0KD      0.685700
     16 N16        -6.0100    0.0950   -1.1960 ns        1 0KD     -0.445100
     17 C17        -6.3400    0.2420   -2.5490 ca        1 0KD     -0.043700
     18 C18        -7.2740   -0.5660   -3.2330 ca        1 0KD     -0.124000
     19 C19        -7.5350   -0.3030   -4.5770 ca        1 0KD     -0.219300
     20 C20        -6.8680    0.7540   -5.2150 ca        1 0KD      0.359200
     21 N21        -5.9720    1.5410   -4.5860 nb        1 0KD     -0.645000
     22 C22        -5.7160    1.2920   -3.2960 ca        1 0KD      0.347200
     23 O23        -7.1330   -1.8750   -0.7270 o         1 0KD     -0.590100
     24 H1         -1.3100    0.6090   -1.1170 ha        1 0KD      0.179000
     25 H2          1.1360    1.6120   -1.2230 h4        1 0KD      0.181000
     26 H3         -0.2620    1.1800    3.0840 h4        1 0KD      0.171000
     27 H4         -2.1970   -0.0750    3.5660 hn        1 0KD      0.320700
     28 H6         -6.7480   -1.8290    4.2030 h4        1 0KD      0.033100
     29 H7         -7.6210   -1.7920    1.8470 ha        1 0KD      0.169000
     30 H8         -5.3490    0.7560   -0.8470 hn        1 0KD      0.339500
     31 H9         -7.7910   -1.3960   -2.7250 ha        1 0KD      0.177000
     32 H10        -8.2570   -0.9190   -5.1310 ha        1 0KD      0.144000
     33 H11        -7.0520    0.9890   -6.2780 h4        1 0KD      0.022100
     34 H12        -4.9730    1.9610   -2.8240 h4        1 0KD      0.021100
@<TRIPOS>BOND
     1    1    2 2   
     2    1    5 1   
     3    1   24 1   
     4    2    3 1   
     5    2   25 1   
     6    3    4 1   
     7    4    5 2   
     8    4   26 1   
     9    5    6 1   
    10    6    7 1   
    11    6   10 2   
    12    7    8 1   
    13    7   27 1   
    14    8    9 ar  
    15    8   11 ar  
    16    9   10 1   
    17    9   14 ar  
    18   11   12 ar  
    19   12   13 ar  
    20   12   28 1   
    21   13   14 ar  
    22   13   29 1   
    23   14   15 1   
    24   15   16 1   
    25   15   23 2   
    26   16   17 1   
    27   16   30 1   
    28   17   18 ar  
    29   17   22 ar  
    30   18   19 ar  
    31   18   31 1   
    32   19   20 ar  
    33   19   32 1   
    34   20   21 ar  
    35   20   33 1   
    36   21   22 ar  
    37   22   34 1   
@<TRIPOS>SUBSTRUCTURE
     1 0KD         1 TEMP              0 ****  ****    0 ROOT
