@<TRIPOS>MOLECULE
0KE
   48    50     1     0     0
SMALL
bcc


@<TRIPOS>ATOM
      1 C14        -5.0960    2.1130    0.5370 ca        1 0KE     -0.220000
      2 C13        -6.3880    1.6600    0.3730 ca        1 0KE     -0.099000
      3 C15        -5.5410   -0.5070   -0.3550 ca        1 0KE     -0.085000
      4 C21         4.5940    1.2500    0.5050 ca        1 0KE      0.368200
      5 C1         -3.9690    1.2810    0.2880 ca        1 0KE      0.097000
      6 C22         3.3600    0.6100    0.2640 ca        1 0KE     -0.158600
      7 C17         2.1670    1.3180    0.5120 ca        1 0KE     -0.112300
      8 C16        -4.2310   -0.0510   -0.1880 ca        1 0KE     -0.082000
      9 C12        -6.6110    0.3480   -0.0720 ca        1 0KE     -0.061900
     10 C18         2.2920    2.6450    0.9740 ca        1 0KE      0.044800
     11 C19         3.5880    3.2090    1.1800 ca        1 0KE      0.326600
     12 C2         -2.6710    1.7380    0.5000 cc        1 0KE     -0.494600
     13 C3         -1.5200    0.9160    0.3050 cc        1 0KE      0.558600
     14 C4         -1.8290   -0.5300   -0.0270 c         1 0KE      0.514200
     15 C24         3.6620    4.6170    1.6710 c3        1 0KE     -0.117400
     16 C10        -8.4300   -0.8910    0.7380 c3        1 0KE      0.120700
     17 C11         0.8700    0.5860    0.2860 c3        1 0KE      0.181100
     18 N20         4.7200    2.5090    0.9500 nb        1 0KE     -0.675000
     19 N5         -3.1090   -0.8550   -0.5750 n         1 0KE     -0.168900
     20 N8         -0.3080    1.3780    0.4620 n2        1 0KE     -0.750900
     21 O29         6.4580   -2.6010   -1.4480 o         1 0KE     -0.837500
     22 O30         4.3170   -1.7540   -2.7410 o         1 0KE     -0.837500
     23 O7         -0.9870   -1.4490    0.0430 o         1 0KE     -0.651500
     24 O28         4.1170   -3.6100   -1.1940 oh        1 0KE     -0.784400
     25 O23         1.2590    3.4950    1.2680 oh        1 0KE     -0.542100
     26 O6         -3.4000   -2.1690   -0.5470 oh        1 0KE     -0.446100
     27 O9         -7.9200   -0.0750   -0.3090 os        1 0KE     -0.347900
     28 O26         4.6110   -1.3650   -0.2520 os        1 0KE     -0.577200
     29 P27         5.0210   -2.2950   -1.5580 p5        1 0KE      1.429800
     30 H1         -4.9100    3.1410    0.8760 ha        1 0KE      0.113000
     31 H2         -7.2470    2.3130    0.5770 ha        1 0KE      0.104000
     32 H3         -5.7420   -1.5300   -0.7050 ha        1 0KE      0.129000
     33 H4          5.5360    0.6960    0.3300 h4        1 0KE      0.044100
     34 H5         -2.5190    2.7750    0.8220 ha        1 0KE      0.123000
     35 H6          3.1390    4.6890    2.6570 hc        1 0KE      0.032700
     36 H7          4.7130    4.9730    1.7880 hc        1 0KE      0.032700
     37 H8          3.1290    5.2840    0.9480 hc        1 0KE      0.032700
     38 H9         -9.4520   -1.1850    0.3950 h1        1 0KE      0.017367
     39 H10        -7.7880   -1.7950    0.8820 h1        1 0KE      0.017367
     40 H11        -8.4880   -0.3140    1.6930 h1        1 0KE      0.017367
     41 H12         0.9070    0.1430   -0.7570 h1        1 0KE      0.055200
     42 H13         0.8640   -0.3010    0.9960 h1        1 0KE      0.055200
     43 H14         2.6770   -1.4070    0.4550 h1        1 0KE      0.048200
     44 H15         2.8960   -0.8210   -1.2800 h1        1 0KE      0.048200
     45 H16         3.2760   -3.5900   -1.6360 ho        1 0KE      0.423000
     46 H19         0.4130    3.0440    1.0670 ho        1 0KE      0.474000
     47 H20        -2.6820   -2.5990   -1.0530 ho        1 0KE      0.423000
     48 C25         3.3360   -0.8020   -0.2390 c3        1 0KE      0.219700
@<TRIPOS>BOND
     1    1    2 ar  
     2    1    5 ar  
     3    1   30 1   
     4    2    9 ar  
     5    2   31 1   
     6    3    8 ar  
     7    3    9 ar  
     8    3   32 1   
     9    4    6 ar  
    10    4   18 ar  
    11    4   33 1   
    12    5    8 ar  
    13    5   12 2   
    14    6    7 ar  
    15    6   48 1   
    16    7   10 ar  
    17    7   17 1   
    18    8   19 2   
    19    9   27 1   
    20   10   11 ar  
    21   10   25 1   
    22   11   15 1   
    23   11   18 ar  
    24   12   13 1   
    25   12   34 1   
    26   13   14 1   
    27   13   20 2   
    28   14   19 1   
    29   14   23 2   
    30   15   35 1   
    31   15   36 1   
    32   15   37 1   
    33   16   27 1   
    34   16   38 1   
    35   16   39 1   
    36   16   40 1   
    37   17   20 1   
    38   17   41 1   
    39   17   42 1   
    40   19   26 1   
    41   21   29 1   
    42   22   29 1   
    43   24   29 1   
    44   24   45 1   
    45   25   46 1   
    46   26   47 1   
    47   28   29 1   
    48   28   48 1   
    49   43   48 1   
    50   44   48 1   
@<TRIPOS>SUBSTRUCTURE
     1 0KE         1 TEMP              0 ****  ****    0 ROOT
