@<TRIPOS>MOLECULE
0KE
   48    41     1     0     0
SMALL
bcc


@<TRIPOS>ATOM
      1 C14         3.1760    2.9090   -0.8060 c1        1 0KE     -0.149500
      2 C13         4.5430    3.1860   -0.8220 c1        1 0KE     -0.098000
      3 C15         5.0400    0.8130   -0.7270 c1        1 0KE     -0.149500
      4 C21        -5.0840   -1.3770    0.4790 c1        1 0KE     -0.047000
      5 C1          2.7320    1.5830   -0.7500 c1        1 0KE      0.001000
      6 C22        -3.7080   -1.5430    0.6260 c1        1 0KE     -0.184000
      7 C17        -2.8700   -0.4680    0.4800 c1        1 0KE      0.048000
      8 C16         3.6640    0.5310   -0.7100 c1        1 0KE      0.001000
      9 C12         5.4790    2.1300   -0.7820 c1        1 0KE     -0.106000
     10 C18        -3.3830    0.7630    0.1890 c1        1 0KE     -0.059000
     11 C19        -4.7600    0.9260    0.0420 c1        1 0KE     -0.047000
     12 C2          1.2480    1.2820   -0.6940 c1        1 0KE     -0.364000
     13 C3          0.7910   -0.0920   -0.4520 c1        1 0KE     -0.049000
     14 C4          1.7790   -1.1790   -0.3380 c2        1 0KE      0.287000
     15 C24        -5.7700    1.9730   -0.3330 c2        1 0KE     -0.145000
     16 C10         7.6600    2.9920   -1.2300 c3        1 0KE     -0.069000
     17 C11        -1.3570   -0.4680    0.7740 c3        1 0KE     -0.397000
     18 C25        -3.1390   -2.9070    1.0420 c3        1 0KE      0.075000
     19 N20        -5.5950   -0.1460    0.1890 n1        1 0KE     -0.203000
     20 N5          3.2010   -0.8860   -0.4640 n2        1 0KE     -0.086000
     21 N8         -0.6270   -0.3990   -0.4640 n2        1 0KE     -0.001000
     22 O29        -5.0880   -6.0460    2.2150 o         1 0KE     -0.722833
     23 O30        -3.3200   -4.9300    3.5180 o         1 0KE     -0.722833
     24 O7          1.4090   -2.3150   -0.1370 o         1 0KE     -0.389000
     25 O28        -2.7780   -5.9190    1.3180 o         1 0KE     -0.722833
     26 O23        -2.5370    1.8890    0.1780 oh        1 0KE     -0.286000
     27 O6          4.1070   -1.8850   -0.3680 oh        1 0KE     -0.250000
     28 O9          6.8870    1.9350   -0.6730 os        1 0KE     -0.232000
     29 O26        -4.2050   -3.7750    1.4090 os        1 0KE     -0.744000
     30 P27        -3.8420   -5.1910    2.1310 p5        1 0KE      1.575500
     31 H1          2.5270    3.6380   -0.9470 ha        1 0KE      0.121500
     32 H2          4.8520    4.1090   -0.8610 ha        1 0KE      0.106000
     33 H3          5.6790    0.0930   -0.6990 ha        1 0KE      0.121500
     34 H4         -5.8810   -1.9490    0.5840 ha        1 0KE      0.176000
     35 H5          0.6110    1.9930   -0.7690 ha        1 0KE      0.126000
     36 H6         -6.0850    1.8100   -1.2570 ha        1 0KE      0.069333
     37 H7         -6.5320    1.9290    0.2850 ha        1 0KE      0.069333
     38 H8         -5.3500    2.8730   -0.2800 ha        1 0KE      0.069333
     39 H9          7.5580    3.7880   -0.6860 h1        1 0KE      0.057667
     40 H10         8.6140    2.7270   -1.2540 h1        1 0KE      0.057667
     41 H11         7.3520    3.1760   -2.1340 h1        1 0KE      0.057667
     42 H12        -1.1150   -1.2980    1.2550 h1        1 0KE      0.183000
     43 H13        -1.1350    0.2980    1.3220 h1        1 0KE      0.183000
     44 H14        -2.6530   -3.2890    0.3070 h1        1 0KE      0.078000
     45 H15        -2.5390   -2.7910    1.8030 h1        1 0KE      0.078000
     46 H16        -1.0420   -0.6030   -1.2500 hn        1 0KE      0.248000
     47 H19        -2.7030    2.3940    0.9010 ho        1 0KE      0.211000
     48 H20         4.1890   -2.2870   -1.1570 ho        1 0KE      0.223000
@<TRIPOS>BOND
     1    1    5 1   
     2    1   31 1   
     3    2    9 1   
     4    2   32 1   
     5    3    8 1   
     6    3   33 1   
     7    4    6 1   
     8    4   34 1   
     9    5    8 1   
    10    6   18 1   
    11    7   10 1   
    12    7   17 1   
    13    9   28 1   
    14   10   26 1   
    15   11   19 1   
    16   12   13 1   
    17   12   35 1   
    18   13   14 1   
    19   14   20 1   
    20   14   24 1   
    21   15   36 1   
    22   15   37 1   
    23   15   38 1   
    24   16   28 1   
    25   16   39 1   
    26   16   40 1   
    27   16   41 1   
    28   17   21 1   
    29   17   42 1   
    30   17   43 1   
    31   18   29 1   
    32   18   44 1   
    33   18   45 1   
    34   20   27 1   
    35   21   46 1   
    36   22   30 1   
    37   23   30 1   
    38   25   30 1   
    39   26   47 1   
    40   27   48 1   
    41   29   30 1   
@<TRIPOS>SUBSTRUCTURE
     1 0KE         1 TEMP              0 ****  ****    0 ROOT
