@<TRIPOS>MOLECULE
0KF
   53    58     1     0     0
SMALL
bcc


@<TRIPOS>ATOM
      1 C3          0.7990    1.5270   -0.2870 c3        1 0KF     -0.226000
      2 C4          2.2290    1.0340   -0.1070 cx        1 0KF     -0.239000
      3 C2          0.2720    1.7930    1.0960 c1        1 0KF      0.048000
      4 C6          2.2680    0.6580    1.3450 cu        1 0KF     -0.126000
      5 C11         6.9560   -1.4360   -0.1390 c2        1 0KF     -0.184000
      6 C23         0.3010    5.5160    4.6600 c2        1 0KF     -0.071000
      7 C5          2.7110   -0.3610    0.3650 cx        1 0KF      0.107000
      8 C1          1.2140    1.1600    2.0360 c2        1 0KF     -0.040000
      9 C10         5.8610   -2.3220   -0.1970 c2        1 0KF     -0.146000
     10 C12         8.1150   -2.2640   -0.3520 c2        1 0KF     -0.122000
     11 C24        -0.2680    5.9880    5.8680 c2        1 0KF     -0.032000
     12 C21        -0.0130    3.8340    6.1930 c2        1 0KF     -0.023000
     13 C20         0.2600    2.4160    6.4160 c2        1 0KF     -0.063000
     14 C19        -0.2730    1.7060    5.3520 c2        1 0KF     -0.174000
     15 C18         0.5650    1.9400    4.1510 c2        1 0KF      0.123000
     16 C8          4.4180   -2.0620   -0.0500 c2        1 0KF      0.390000
     17 C27        -0.4090    8.3810    5.3230 c2        1 0KF      0.339000
     18 C30        -1.4040   10.6970    4.8190 cx        1 0KF     -0.179000
     19 C31        -0.0380   10.9240    5.3830 cx        1 0KF     -0.179000
     20 C29        -0.8410    9.7240    5.8280 cx        1 0KF     -0.214000
     21 C16         9.5130   -1.7970   -0.3810 c3        1 0KF     -0.145000
     22 N13         7.7240   -3.5680   -0.5270 n2        1 0KF     -0.052000
     23 N25        -0.4530    4.9240    6.8080 n2        1 0KF     -0.090000
     24 N32         0.8360    3.2280    3.8870 n2        1 0KF     -0.049000
     25 N22         0.5390    4.1440    4.8390 na        1 0KF     -0.140000
     26 N14         6.3980   -3.6040   -0.4360 na        1 0KF     -0.065000
     27 N7          4.0510   -0.7370    0.1560 n         1 0KF     -0.345000
     28 O9          3.5600   -2.9650   -0.1170 o         1 0KF     -0.362000
     29 O28         0.1050    8.2340    4.1960 o         1 0KF     -0.370000
     30 O17         0.9190    0.8770    3.3560 os        1 0KF     -0.084000
     31 H1          0.7470    2.4520   -0.9140 hc        1 0KF      0.148000
     32 H2          2.9940    1.6790   -0.5750 hc        1 0KF      0.152000
     33 H3          0.1410    0.7510   -0.7610 hc        1 0KF      0.148000
     34 H4          2.0200   -1.2430    0.2800 h1        1 0KF      0.178000
     35 H5          6.9530   -0.3660    0.0300 ha        1 0KF      0.163000
     36 H6          0.5750    6.0640    3.7550 h4        1 0KF      0.225000
     37 H7          1.2170    2.1680    6.8980 ha        1 0KF      0.157000
     38 H8         -1.3520    1.6450    5.1430 ha        1 0KF      0.168000
     39 H10        -1.2650    9.7320    6.8510 hc        1 0KF      0.130000
     40 H11         0.8400   10.7520    4.7320 hc        1 0KF      0.123750
     41 H12        -2.2400   11.3470    5.1300 hc        1 0KF      0.123750
     42 H13         0.1260   11.7400    6.1080 hc        1 0KF      0.123750
     43 H14         9.9880   -2.0270   -1.3680 hc        1 0KF      0.091667
     44 H15         9.5430   -0.6920   -0.2160 hc        1 0KF      0.091667
     45 H16        10.1130   -2.2960    0.4210 hc        1 0KF      0.091667
     46 H20         4.7530   -0.0370    0.2200 hn        1 0KF      0.241000
     47 N26        -0.6150    7.3070    6.1760 n         1 0KF     -0.288000
     48 C15         5.6020   -4.8060   -0.5600 c3        1 0KF     -0.067000
     49 H9         -1.4940   10.3650    3.7670 hc        1 0KF      0.123750
     50 H17         5.0180   -4.9510    0.3890 h1        1 0KF      0.113333
     51 H18         6.2580   -5.6950   -0.7480 h1        1 0KF      0.113333
     52 H19         4.8790   -4.6730   -1.4090 h1        1 0KF      0.113333
     53 H21        -1.0240    7.4650    7.0690 hn        1 0KF      0.247000
@<TRIPOS>BOND
     1    1    2 1   
     2    1    3 1   
     3    1   31 1   
     4    1   33 1   
     5    2    4 1   
     6    2    7 1   
     7    2   32 1   
     8    3    8 1   
     9    4    7 1   
    10    4    8 1   
    11    5    9 1   
    12    5   10 1   
    13    5   35 1   
    14    6   11 1   
    15    6   25 1   
    16    6   36 1   
    17    7   27 1   
    18    7   34 1   
    19    8   30 1   
    20    9   16 1   
    21    9   26 1   
    22   10   21 1   
    23   10   22 1   
    24   11   23 1   
    25   11   47 1   
    26   12   13 1   
    27   12   23 1   
    28   12   25 1   
    29   13   14 1   
    30   13   37 1   
    31   14   15 1   
    32   14   38 1   
    33   15   24 1   
    34   15   30 1   
    35   16   27 1   
    36   16   28 1   
    37   17   20 1   
    38   17   29 1   
    39   17   47 1   
    40   18   19 1   
    41   18   20 1   
    42   18   41 1   
    43   18   49 1   
    44   19   20 1   
    45   19   40 1   
    46   19   42 1   
    47   20   39 1   
    48   21   43 1   
    49   21   44 1   
    50   21   45 1   
    51   22   26 1   
    52   24   25 1   
    53   26   48 1   
    54   27   46 1   
    55   47   53 1   
    56   48   50 1   
    57   48   51 1   
    58   48   52 1   
@<TRIPOS>SUBSTRUCTURE
     1 0KF         1 TEMP              0 ****  ****    0 ROOT
