@<TRIPOS>MOLECULE
0KF
   53    57     1     0     0
SMALL
bcc


@<TRIPOS>ATOM
      1 C3          2.0060    3.4420    2.4400 ca        1 0KF     -0.097000
      2 C4          2.7650    2.3690    1.9790 ca        1 0KF     -0.150000
      3 C2          0.8890    3.8930    1.7410 ca        1 0KF     -0.146000
      4 C6          1.2950    2.1740    0.0470 ca        1 0KF     -0.178000
      5 C11         4.2390   -1.8890   -0.9380 cc        1 0KF     -0.255300
      6 C23        -3.2610   -0.1250    0.0190 cc        1 0KF     -0.164100
      7 C5          2.4200    1.7160    0.7760 ca        1 0KF      0.083600
      8 C1          0.5580    3.2470    0.5440 ca        1 0KF      0.114100
      9 C10         4.8890   -1.0190   -0.0400 cd        1 0KF     -0.188900
     10 C12         5.2320   -2.8750   -1.2850 cc        1 0KF      0.299600
     11 C24        -4.5520   -0.2880   -0.5710 cd        1 0KF      0.168200
     12 C21        -3.9220    1.7500   -1.1050 cc        1 0KF     -0.084300
     13 C20        -3.7460    3.0950   -1.5790 cc        1 0KF     -0.033000
     14 C19        -2.5900    3.7460   -1.2670 cd        1 0KF     -0.234300
     15 C18        -1.6000    3.0440   -0.4680 cd        1 0KF      0.586600
     16 C8          4.3840    0.1790    0.6650 c         1 0KF      0.714700
     17 C27        -4.9780   -2.6100    0.1250 c         1 0KF      0.698100
     18 C30        -6.1140   -4.5720    1.3370 cx        1 0KF     -0.099900
     19 C31        -5.4420   -5.1380    0.1280 cx        1 0KF     -0.099900
     20 C29        -5.9760   -3.7260    0.0930 cx        1 0KF     -0.226700
     21 C16         5.0320   -4.0100   -2.2040 c3        1 0KF     -0.120400
     22 N13         6.4040   -2.6000   -0.6260 nd        1 0KF     -0.488800
     23 N25        -4.9490    0.8730   -1.2600 nd        1 0KF     -0.290600
     24 N32        -1.7230    1.7890   -0.0020 nc        1 0KF     -0.522800
     25 N22        -2.8550    1.1680   -0.3170 na        1 0KF      0.189200
     26 N14         6.2030   -1.5080    0.1070 na        1 0KF      0.145400
     27 N7          3.1270    0.6130    0.2700 n         1 0KF     -0.460100
     28 O9          5.0550    0.7480    1.5490 o         1 0KF     -0.602100
     29 O28        -3.8700   -2.7320    0.6830 o         1 0KF     -0.602100
     30 O17        -0.4780    3.8130   -0.2100 os        1 0KF     -0.356400
     31 H1          2.2920    3.9370    3.3810 ha        1 0KF      0.142000
     32 H2          3.6390    2.0380    2.5650 ha        1 0KF      0.175000
     33 H3          0.2860    4.7360    2.1020 ha        1 0KF      0.151000
     34 H4          0.9880    1.6950   -0.8940 ha        1 0KF      0.148000
     35 H5          3.2170   -1.8550   -1.2960 ha        1 0KF      0.164000
     36 H6         -2.6630   -0.8160    0.6150 h4        1 0KF      0.228000
     37 H7         -4.5490    3.5500   -2.1770 ha        1 0KF      0.171000
     38 H8         -2.3680    4.7730   -1.5850 ha        1 0KF      0.171000
     39 H9         -7.1210   -4.9240    1.6200 hc        1 0KF      0.085200
     40 H10        -5.4940   -4.3140    2.2160 hc        1 0KF      0.085200
     41 H11        -4.3450   -5.2800    0.1480 hc        1 0KF      0.085200
     42 H12        -5.9570   -5.9070   -0.4750 hc        1 0KF      0.085200
     43 H13        -6.8870   -3.5300   -0.5060 hc        1 0KF      0.090700
     44 H14         5.7370   -3.9460   -3.0700 hc        1 0KF      0.051700
     45 H15         5.2090   -4.9810   -1.6780 hc        1 0KF      0.051700
     46 H16         3.9840   -3.9980   -2.5930 hc        1 0KF      0.051700
     47 H17         7.3230    0.1720    0.6730 h1        1 0KF      0.072700
     48 H18         6.8410   -0.9530    2.0270 h1        1 0KF      0.072700
     49 H19         8.1800   -1.4440    0.8660 h1        1 0KF      0.072700
     50 H20         2.6880    0.1290   -0.4830 hn        1 0KF      0.326500
     51 H21        -6.2470   -1.3760   -0.9410 hn        1 0KF      0.334500
     52 N26        -5.3560   -1.4280   -0.4990 n         1 0KF     -0.448100
     53 C15         7.2020   -0.9060    0.9640 c3        1 0KF      0.033600
@<TRIPOS>BOND
     1    1    2 ar  
     2    1    3 ar  
     3    1   31 1   
     4    2    7 ar  
     5    2   32 1   
     6    3    8 ar  
     7    3   33 1   
     8    4    7 ar  
     9    4    8 ar  
    10    4   34 1   
    11    5    9 2   
    12    5   10 1   
    13    5   35 1   
    14    6   11 2   
    15    6   25 1   
    16    6   36 1   
    17    7   27 1   
    18    8   30 1   
    19    9   16 1   
    20    9   26 1   
    21   10   21 1   
    22   10   22 2   
    23   11   23 1   
    24   11   52 1   
    25   12   13 1   
    26   12   23 2   
    27   12   25 1   
    28   13   14 2   
    29   13   37 1   
    30   14   15 1   
    31   14   38 1   
    32   15   24 2   
    33   15   30 1   
    34   16   27 1   
    35   16   28 2   
    36   17   20 1   
    37   17   29 2   
    38   17   52 1   
    39   18   19 1   
    40   18   20 1   
    41   18   39 1   
    42   18   40 1   
    43   19   20 1   
    44   19   41 1   
    45   19   42 1   
    46   20   43 1   
    47   21   44 1   
    48   21   45 1   
    49   21   46 1   
    50   22   26 1   
    51   24   25 1   
    52   26   53 1   
    53   27   50 1   
    54   47   53 1   
    55   48   53 1   
    56   49   53 1   
    57   51   52 1   
@<TRIPOS>SUBSTRUCTURE
     1 0KF         1 TEMP              0 ****  ****    0 ROOT
