@<TRIPOS>MOLECULE
0KF
   53    41     1     0     0
SMALL
bcc


@<TRIPOS>ATOM
      1 C3          0.6090    0.7460   -3.0100 c1        1 0KF     -0.111250
      2 C4          2.0000    0.7090   -2.9510 c1        1 0KF     -0.164000
      3 C2         -0.1450    0.3250   -1.9180 c1        1 0KF     -0.111250
      4 C6          1.8810   -0.1700   -0.7110 c1        1 0KF     -0.164000
      5 C11         7.1270    0.0860   -1.7740 c1        1 0KF     -0.190000
      6 C23        -4.7200    0.1430    1.7040 c1        1 0KF     -0.139000
      7 C5          2.6350    0.2510   -1.8030 c1        1 0KF      0.080000
      8 C1          0.4910   -0.1330   -0.7690 c1        1 0KF      0.080000
      9 C10         6.3980    1.2300   -1.9600 c1        1 0KF     -0.144000
     10 C12         8.4550    0.4140   -1.8540 c1        1 0KF     -0.123000
     11 C24        -5.6280   -0.8290    2.0670 c1        1 0KF      0.024000
     12 C21        -3.7930   -1.8180    1.3530 c1        1 0KF     -0.060000
     13 C20        -2.7970   -2.6980    0.9340 c1        1 0KF     -0.111250
     14 C19        -1.6190   -2.2110    0.4340 c1        1 0KF     -0.111250
     15 C18        -1.4180   -0.8430    0.3460 c1        1 0KF      0.089000
     16 C8          4.8690    1.3380   -1.9360 c1        1 0KF      0.388000
     17 C27        -7.8780   -1.3640    2.9860 c1        1 0KF      0.339000
     18 C30        -9.5780   -1.0510    4.0140 cx        1 0KF     -0.193000
     19 C31        -9.1760   -0.5090    3.8530 cx        1 0KF     -0.193000
     20 C29        -9.4040   -0.9180    3.2920 cx        1 0KF     -0.202000
     21 C16         9.8710   -0.1650   -1.7880 c2        1 0KF     -0.144000
     22 C15         7.6510    3.6310   -2.1850 c3        1 0KF     -0.065000
     23 N13         8.5440    1.7440   -2.0860 n2        1 0KF     -0.056000
     24 N25        -5.0600   -2.0290    1.8530 n1        1 0KF     -0.149000
     25 N32        -2.3930    0.0180    0.7560 n1        1 0KF     -0.090000
     26 N22        -3.5940   -0.4780    1.2660 n2        1 0KF     -0.031000
     27 N14         7.2660    2.2520   -2.1520 n3        1 0KF     -0.068000
     28 N7          4.0690    0.1590   -1.7640 n2        1 0KF     -0.314000
     29 N26        -6.9450   -0.4070    2.4530 n1        1 0KF     -0.295000
     30 O9          4.3320    2.4180   -2.1160 o         1 0KF     -0.362000
     31 O28        -7.5490   -2.5330    3.1100 o         1 0KF     -0.348000
     32 O17        -0.2360   -0.0620    0.4510 os        1 0KF     -0.141000
     33 H1          0.1610    1.0700   -3.8200 ha        1 0KF      0.158750
     34 H2          2.5310    1.0060   -3.7200 ha        1 0KF      0.161500
     35 H3         -1.1230    0.3520   -1.9600 ha        1 0KF      0.158750
     36 H4          2.3290   -0.4930    0.1000 ha        1 0KF      0.161500
     37 H5          6.7630   -0.8040   -1.5830 DU        1 0KF      0.196000
     38 H6         -4.8630    1.1130    1.7530 DU        1 0KF      0.196000
     39 H7         -2.9400   -3.6670    0.9970 ha        1 0KF      0.158750
     40 H8         -0.9180   -2.8300    0.1390 ha        1 0KF      0.158750
     41 H9        -10.5080   -0.8340    4.2800 hc        1 0KF      0.120500
     42 H10        -9.1150   -1.8190    4.4320 hc        1 0KF      0.120500
     43 H11        -9.6080    0.3800    3.9360 hc        1 0KF      0.120500
     44 H12        -8.2230   -0.6040    4.0870 hc        1 0KF      0.120500
     45 H13        -9.7940   -0.9120    2.3850 hc        1 0KF      0.151000
     46 H14        10.4160    0.3700   -1.1690 ha        1 0KF      0.091000
     47 H15         9.8310   -1.0940   -1.4700 ha        1 0KF      0.091000
     48 H16        10.2770   -0.1430   -2.6840 ha        1 0KF      0.091000
     49 H17         8.0590    3.8770   -1.3250 h1        1 0KF      0.112000
     50 H18         8.3010    3.7720   -2.9080 h1        1 0KF      0.112000
     51 H19         6.8590    4.1890   -2.3430 h1        1 0KF      0.112000
     52 H20         4.4720   -0.6540   -1.6390 hn        1 0KF      0.240000
     53 H21        -7.1700    0.4800    2.4160 hn        1 0KF      0.250000
@<TRIPOS>BOND
     1    1    3 1   
     2    1   33 1   
     3    2    7 1   
     4    2   34 1   
     5    3   35 1   
     6    4    8 1   
     7    4   36 1   
     8    5    9 1   
     9    5   10 1   
    10    6   11 1   
    11    6   26 1   
    12    9   27 1   
    13   10   23 1   
    14   11   24 1   
    15   12   26 1   
    16   13   14 1   
    17   13   39 1   
    18   14   40 1   
    19   15   25 1   
    20   16   28 1   
    21   16   30 1   
    22   17   20 1   
    23   17   31 1   
    24   18   19 1   
    25   18   20 1   
    26   18   41 1   
    27   18   42 1   
    28   19   20 1   
    29   19   43 1   
    30   19   44 1   
    31   20   45 1   
    32   21   46 1   
    33   21   47 1   
    34   21   48 1   
    35   22   27 1   
    36   22   49 1   
    37   22   50 1   
    38   22   51 1   
    39   23   27 1   
    40   28   52 1   
    41   29   53 1   
@<TRIPOS>SUBSTRUCTURE
     1 0KF         1 TEMP              0 ****  ****    0 ROOT
