@<TRIPOS>MOLECULE
0KF
   55    59     1     0     0
SMALL
bcc


@<TRIPOS>ATOM
      1 C3          2.5060   -0.7580    1.8980 cx        1 0KF     -0.147000
      2 C4          3.8350   -0.1300    2.0160 cu        1 0KF     -0.195000
      3 C2          2.7210    0.4460    2.7490 cx        1 0KF     -0.004000
      4 C6          2.4040    0.9680    4.0930 cu        1 0KF     -0.094000
      5 C11         7.6500   -3.0000   -0.3760 c2        1 0KF     -0.111000
      6 C23        -0.3460    5.0300    6.2520 c2        1 0KF      0.031000
      7 C5          5.1340   -0.0690    1.7730 c2        1 0KF     -0.025000
      8 C1          2.1250    1.7400    3.0540 cu        1 0KF     -0.016000
      9 C10         6.3760   -2.5160   -0.8170 c2        1 0KF     -0.218000
     10 C12         8.0720   -3.9100   -1.3860 c2        1 0KF     -0.091000
     11 C24        -1.1420    6.2090    6.2410 c2        1 0KF     -0.249000
     12 C21        -0.7890    5.7900    4.1280 c2        1 0KF      0.015000
     13 C20        -0.6880    5.3750    2.7280 c2        1 0KF     -0.047000
     14 C19         0.6390    5.0760    2.4720 c2        1 0KF     -0.152000
     15 C18         0.9800    3.7830    3.1180 c2        1 0KF      0.159000
     16 C8          5.5240   -1.5750   -0.1560 c2        1 0KF      0.387000
     17 C27        -1.2770    8.3930    7.3960 c2        1 0KF      0.237000
     18 C30        -2.0470    9.9960    5.4480 c3        1 0KF     -0.167000
     19 C31        -3.0180   11.1580    5.4290 c3        1 0KF     -0.208000
     20 C29        -2.0960    9.2280    6.6280 c1        1 0KF      0.028000
     21 C16         9.3260   -4.6840   -1.4100 c3        1 0KF     -0.166000
     22 N13         7.1040   -3.9710   -2.3820 n2        1 0KF      0.035000
     23 N25        -1.3980    6.6640    4.9200 n2        1 0KF     -0.069000
     24 N32         0.6620    3.7110    4.4220 n2        1 0KF     -0.079000
     25 N22        -0.1120    4.7170    4.9260 na        1 0KF     -0.113000
     26 N14         6.1210   -3.1670   -2.0560 na        1 0KF     -0.016000
     27 N7          5.8940   -0.9710    0.9950 n3        1 0KF     -0.231000
     28 O9          4.3450   -1.3270   -0.7750 oh        1 0KF     -0.206000
     29 O28        -0.4950    8.7000    8.2980 o         1 0KF     -0.229000
     30 O17         1.6830    2.8440    2.4090 os        1 0KF     -0.026000
     31 H1          2.3300   -1.7400    2.3840 hc        1 0KF      0.149000
     32 H2          5.7730    0.7200    2.2280 h4        1 0KF      0.195000
     33 H3          1.9330   -0.6600    0.9540 hc        1 0KF      0.149000
     34 H4          2.4140    0.7570    5.1450 ha        1 0KF      0.226000
     35 H5          8.1900   -2.7420    0.5320 ha        1 0KF      0.182000
     36 H6          0.0240    4.4280    7.0900 h4        1 0KF      0.225000
     37 H7         -1.5530    4.8440    2.3000 ha        1 0KF      0.191000
     38 H8          1.4510    5.8240    2.4980 ha        1 0KF      0.191000
     39 H9         -2.3310    9.2550    4.6180 hc        1 0KF      0.184000
     40 H10        -1.0010   10.3430    5.1890 hc        1 0KF      0.184000
     41 H11        -3.0170   11.6220    4.4120 hc        1 0KF      0.110667
     42 H12        -4.0540   10.8200    5.6730 hc        1 0KF      0.110667
     43 H13        -2.7120   11.9320    6.1740 hc        1 0KF      0.110667
     44 H14         9.9330   -4.4240   -2.3150 hc        1 0KF      0.117333
     45 H15         9.9280   -4.4590   -0.4950 hc        1 0KF      0.117333
     46 H16         9.1110   -5.7840   -1.4390 hc        1 0KF      0.117333
     47 H17         4.8520   -1.8750   -3.1200 h1        1 0KF      0.131000
     48 H18         4.9730   -3.5810   -3.7960 h1        1 0KF      0.131000
     49 H19         4.0320   -3.2680   -2.2470 h1        1 0KF      0.131000
     50 H20         6.8070   -1.1870    1.3580 hn        1 0KF      0.293000
     51 H21        -1.2470    6.4710    8.2450 hn        1 0KF      0.264000
     52 C15         4.9250   -2.9640   -2.8560 c3        1 0KF     -0.081000
     53 H72         3.8090   -0.6480   -0.3160 ho        1 0KF      0.279000
     54 H262       -2.6780    6.7980    7.4310 hn        1 0KF      0.264000
     55 N26        -1.6550    6.8970    7.3990 n4        1 0KF     -0.004000
@<TRIPOS>BOND
     1    1    2 1   
     2    1    3 1   
     3    1   31 1   
     4    1   33 1   
     5    2    3 1   
     6    2    7 1   
     7    3    4 1   
     8    3    8 1   
     9    4    8 1   
    10    4   34 1   
    11    5    9 1   
    12    5   10 1   
    13    5   35 1   
    14    6   11 1   
    15    6   25 1   
    16    6   36 1   
    17    7   27 1   
    18    7   32 1   
    19    8   30 1   
    20    9   16 1   
    21    9   26 1   
    22   10   21 1   
    23   10   22 1   
    24   11   23 1   
    25   11   55 1   
    26   12   13 1   
    27   12   23 1   
    28   12   25 1   
    29   13   14 1   
    30   13   37 1   
    31   14   15 1   
    32   14   38 1   
    33   15   24 1   
    34   15   30 1   
    35   16   27 1   
    36   16   28 1   
    37   17   20 1   
    38   17   29 1   
    39   17   55 1   
    40   18   19 1   
    41   18   20 1   
    42   18   39 1   
    43   18   40 1   
    44   19   41 1   
    45   19   42 1   
    46   19   43 1   
    47   21   44 1   
    48   21   45 1   
    49   21   46 1   
    50   22   26 1   
    51   24   25 1   
    52   26   52 1   
    53   27   50 1   
    54   28   53 1   
    55   47   52 1   
    56   48   52 1   
    57   49   52 1   
    58   51   55 1   
    59   54   55 1   
@<TRIPOS>SUBSTRUCTURE
     1 0KF         1 TEMP              0 ****  ****    0 ROOT
