@<TRIPOS>MOLECULE
0KF
   53    57     1     0     0
SMALL
bcc


@<TRIPOS>ATOM
      1 C3          0.6090    1.5570   -0.4100 c3        1 0KF     -0.226000
      2 C4          2.0550    1.1310   -0.1910 cx        1 0KF     -0.239000
      3 C2          0.0320    1.7960    0.9590 c1        1 0KF      0.049000
      4 C6          2.0710    0.7520    1.2620 cu        1 0KF     -0.124000
      5 C11         6.8940   -1.1110   -0.0900 c2        1 0KF     -0.184000
      6 C23         0.4090    5.4920    4.5770 c2        1 0KF     -0.038000
      7 C5          2.5900   -0.2410    0.2910 cx        1 0KF      0.107000
      8 C1          0.9760    1.2030    1.9230 c2        1 0KF     -0.036000
      9 C10         5.8460   -2.0480   -0.1780 c2        1 0KF     -0.147000
     10 C12         8.0980   -1.8810   -0.2720 c2        1 0KF     -0.122000
     11 C24        -0.0970    6.0170    5.8330 c2        1 0KF     -0.030000
     12 C21        -0.3410    3.8270    5.9650 c2        1 0KF     -0.173000
     13 C20        -0.6210    2.5010    6.3330 c1        1 0KF      0.000000
     14 C19        -0.2920    1.4580    5.3550 c3        1 0KF     -0.194000
     15 C18         0.3250    1.9520    4.0690 c2        1 0KF      0.091000
     16 C8          4.3890   -1.8580   -0.0690 c2        1 0KF      0.390000
     17 C27         0.5710    8.3570    5.5150 c2        1 0KF      0.274000
     18 C30        -1.2700   10.6560    4.8330 c3        1 0KF     -0.244000
     19 C31        -0.1140   10.8250    5.7860 c3        1 0KF     -0.212000
     20 C29         0.6580    9.6710    6.1430 c1        1 0KF     -0.005000
     21 C16         9.4720   -1.3470   -0.2630 c3        1 0KF     -0.145000
     22 N13         7.7750   -3.2030   -0.4580 n2        1 0KF     -0.052000
     23 N25        -0.5390    4.9980    6.6580 n2        1 0KF     -0.038000
     24 N32         0.5890    3.2100    3.7400 n2        1 0KF     -0.111000
     25 N22         0.2590    4.1330    4.6610 na        1 0KF     -0.044000
     26 N14         6.4500   -3.3020   -0.4030 na        1 0KF     -0.065000
     27 N7          3.9520   -0.5520    0.1190 ns        1 0KF     -0.346000
     28 O9          3.5770   -2.8020   -0.1510 o         1 0KF     -0.362000
     29 O28         1.2260    8.1240    4.4720 o         1 0KF     -0.377000
     30 O17         0.6510    0.9010    3.2310 os        1 0KF     -0.108000
     31 H1          0.5310    2.4790   -1.0380 hc        1 0KF      0.147500
     32 H2          2.8010    1.8130   -0.6340 hc        1 0KF      0.152000
     33 H3          0.0010    0.7520   -0.9010 hc        1 0KF      0.147500
     34 H4          1.9460   -1.1550    0.1870 h1        1 0KF      0.178000
     35 H5          6.8350   -0.0420    0.0800 ha        1 0KF      0.163000
     36 H6          0.8430    6.0350    3.7300 h4        1 0KF      0.229000
     37 H7          0.4070    0.7200    5.8430 hc        1 0KF      0.173500
     38 H8         -1.2390    0.8930    5.1120 hc        1 0KF      0.173500
     39 H10        -0.9330   10.1550    3.8930 hc        1 0KF      0.089000
     40 H11         0.6500   11.5480    5.3550 hc        1 0KF      0.163500
     41 H12        -2.0750   10.0350    5.2930 hc        1 0KF      0.089000
     42 H13        -0.4620   11.3050    6.7510 hc        1 0KF      0.163500
     43 H14         9.9820   -1.5490   -1.2380 hc        1 0KF      0.092333
     44 H15         9.4440   -0.2430   -0.0930 hc        1 0KF      0.092333
     45 H16        10.0740   -1.8210    0.5530 hc        1 0KF      0.092333
     46 H20         4.6170    0.1820    0.1960 hn        1 0KF      0.241000
     47 N26        -0.1780    7.3760    6.1650 ns        1 0KF     -0.283000
     48 C15         5.7160   -4.5410   -0.5480 c3        1 0KF     -0.067000
     49 H9         -1.7030   11.6510    4.5680 hc        1 0KF      0.089000
     50 H17         6.4200   -5.3970   -0.7210 h1        1 0KF      0.113000
     51 H18         5.1170   -4.7160    0.3860 h1        1 0KF      0.113000
     52 H19         5.0100   -4.4410   -1.4150 h1        1 0KF      0.113000
     53 H21        -0.5140    7.5750    7.0830 hn        1 0KF      0.245000
@<TRIPOS>BOND
     1    1    2 1   
     2    1    3 1   
     3    1   31 1   
     4    1   33 1   
     5    2    4 1   
     6    2    7 1   
     7    2   32 1   
     8    3    8 1   
     9    4    7 1   
    10    4    8 1   
    11    5    9 1   
    12    5   10 1   
    13    5   35 1   
    14    6   11 1   
    15    6   25 1   
    16    6   36 1   
    17    7   27 1   
    18    7   34 1   
    19    8   30 1   
    20    9   16 1   
    21    9   26 1   
    22   10   21 1   
    23   10   22 1   
    24   11   23 1   
    25   11   47 1   
    26   12   13 1   
    27   12   23 1   
    28   12   25 1   
    29   13   14 1   
    30   14   15 1   
    31   14   37 1   
    32   14   38 1   
    33   15   24 1   
    34   15   30 1   
    35   16   27 1   
    36   16   28 1   
    37   17   20 1   
    38   17   29 1   
    39   17   47 1   
    40   18   19 1   
    41   18   39 1   
    42   18   41 1   
    43   18   49 1   
    44   19   20 1   
    45   19   40 1   
    46   19   42 1   
    47   21   43 1   
    48   21   44 1   
    49   21   45 1   
    50   22   26 1   
    51   24   25 1   
    52   26   48 1   
    53   27   46 1   
    54   47   53 1   
    55   48   50 1   
    56   48   51 1   
    57   48   52 1   
@<TRIPOS>SUBSTRUCTURE
     1 0KF         1 TEMP              0 ****  ****    0 ROOT
