@<TRIPOS>MOLECULE
0KG
   40    41     1     0     0
SMALL
bcc


@<TRIPOS>ATOM
      1 CAT        -0.7540    1.2940    0.9830 c3        1 0KG     -0.098900
      2 CAS         0.1450    1.8060   -0.1200 c3        1 0KG     -0.070900
      3 CAR         1.3790    0.9400   -0.2730 c3        1 0KG     -0.076400
      4 CAQ         2.1220    0.8080    1.0410 c3        1 0KG     -0.070900
      5 CAU         1.2190    0.2970    2.1440 c3        1 0KG     -0.098900
      6 CAP         0.0040    1.2230    2.3190 c3        1 0KG      0.169500
      7 NAN        -0.8110    0.8390    3.4600 n8        1 0KG     -0.903800
      8 CAM        -4.3000    1.8780    1.7850 c2        1 0KG      0.463100
      9 OAO        -3.5820    1.4010    2.7000 o         1 0KG     -0.501000
     10 CAL        -5.5020    1.3870    1.2950 c2        1 0KG     -0.454900
     11 OAK        -6.1660    1.8640    0.1750 os        1 0KG     -0.206200
     12 CAB        -6.5880    3.1750    0.1560 ca        1 0KG      0.257100
     13 CAA        -7.8120    3.3080   -0.5690 ca        1 0KG     -0.202000
     14 CAF        -8.3670    4.5460   -0.8020 ca        1 0KG     -0.068000
     15 CAE        -7.7240    5.7040   -0.3320 ca        1 0KG     -0.212000
     16 CAD        -6.5330    5.5770    0.3510 ca        1 0KG     -0.030000
     17 CAC        -5.9310    4.3270    0.6170 ca        1 0KG     -0.519500
     18 PAG        -4.4960    4.4920    1.3600 py        1 0KG      1.665600
     19 OAI        -3.7550    3.0720    1.2930 os        1 0KG     -0.673500
     20 OAJ        -3.6750    5.6260    0.9470 o         1 0KG     -0.857300
     21 OAH        -4.7520    4.5350    2.9510 oh        1 0KG     -0.804400
     22 H1         -1.6540    1.9620    1.0950 hc        1 0KG      0.051700
     23 H2         -1.1340    0.2740    0.7160 hc        1 0KG      0.051700
     24 H3          0.4530    2.8610    0.1070 hc        1 0KG      0.031200
     25 H4         -0.4230    1.8250   -1.0860 hc        1 0KG      0.031200
     26 H5          2.0590    1.3810   -1.0470 hc        1 0KG      0.025200
     27 H6          1.0760   -0.0790   -0.6320 hc        1 0KG      0.025200
     28 H7          2.9890    0.1090    0.9130 hc        1 0KG      0.031200
     29 H8          2.5380    1.8080    1.3330 hc        1 0KG      0.031200
     30 H9          0.8700   -0.7390    1.8960 hc        1 0KG      0.051700
     31 H10         1.7970    0.2410    3.1020 hc        1 0KG      0.051700
     32 H11         0.3980    2.2610    2.5430 h1        1 0KG      0.043700
     33 H12        -1.5460    1.5170    3.5780 hn        1 0KG      0.359800
     34 H13        -4.4300    3.7880    3.4530 ho        1 0KG      0.477000
     35 H14        -5.9870    0.5020    1.7010 h4        1 0KG      0.157000
     36 H15        -8.2950    2.3890   -0.9300 ha        1 0KG      0.137000
     37 H16        -9.3150    4.6350   -1.3520 ha        1 0KG      0.113000
     38 H17        -8.1660    6.6920   -0.5160 ha        1 0KG      0.120000
     39 H18        -5.9960    6.4810    0.6960 ha        1 0KG      0.146000
     40 HAN2       -1.2550   -0.0420    3.2760 hn        1 0KG      0.359800
@<TRIPOS>BOND
     1    1    2 1   
     2    1    6 1   
     3    1   22 1   
     4    1   23 1   
     5    2    3 1   
     6    2   24 1   
     7    2   25 1   
     8    3    4 1   
     9    3   26 1   
    10    3   27 1   
    11    4    5 1   
    12    4   28 1   
    13    4   29 1   
    14    5    6 1   
    15    5   30 1   
    16    5   31 1   
    17    6    7 1   
    18    6   32 1   
    19    7   33 1   
    20    7   40 1   
    21    8    9 1   
    22    8   10 2   
    23    8   19 1   
    24   10   11 1   
    25   10   35 1   
    26   11   12 1   
    27   12   13 ar  
    28   12   17 ar  
    29   13   14 ar  
    30   13   36 1   
    31   14   15 ar  
    32   14   37 1   
    33   15   16 ar  
    34   15   38 1   
    35   16   17 ar  
    36   16   39 1   
    37   17   18 1   
    38   18   19 1   
    39   18   20 2   
    40   18   21 1   
    41   21   34 1   
@<TRIPOS>SUBSTRUCTURE
     1 0KG         1 TEMP              0 ****  ****    0 ROOT
