@<TRIPOS>MOLECULE
0KG
   39    36     1     0     0
SMALL
bcc


@<TRIPOS>ATOM
      1 CAT        -0.9560    2.9860    1.1460 c3        1 0KG     -0.153000
      2 CAS        -1.1340    3.3440   -0.3190 c3        1 0KG     -0.180000
      3 CAR        -0.1300    4.3420   -0.7920 c3        1 0KG     -0.130000
      4 CAQ         1.3310    3.9190   -0.4680 c3        1 0KG     -0.180000
      5 CAU         1.5220    3.5580    1.0040 c3        1 0KG     -0.153000
      6 CAP         0.5110    2.5530    1.4800 c3        1 0KG      0.044000
      7 NAN         0.7720    1.3150    0.8730 n3        1 0KG     -0.362000
      8 CAM         0.5780    0.0850    1.6220 c1        1 0KG      0.301000
      9 OAO         0.1700    0.1320    2.8330 o         1 0KG     -0.496000
     10 CAL         0.9200   -1.2980    0.9620 c2        1 0KG     -0.082000
     11 OAK        -0.2800   -1.9660    0.6040 os        1 0KG     -0.247000
     12 CAB        -0.1120   -2.9810   -0.4190 c2        1 0KG      0.119000
     13 CAA         0.8460   -2.8060   -1.4200 c2        1 0KG     -0.204000
     14 CAF         0.9210   -3.7030   -2.4710 c1        1 0KG     -0.163000
     15 CAE         0.0400   -4.7820   -2.5320 c1        1 0KG     -0.156500
     16 CAD        -0.9050   -4.9520   -1.5420 c1        1 0KG     -0.156500
     17 CAC        -0.9780   -4.0380   -0.4750 c1        1 0KG     -0.581000
     18 PAG        -2.2780   -4.2330    0.8350 p3        1 0KG      2.596000
     19 OAI        -1.8060   -5.2290    1.8740 o         1 0KG     -1.235333
     20 OAJ        -3.5350   -4.7190    0.2180 o         1 0KG     -1.235333
     21 OAH        -2.5350   -2.8330    1.5280 o         1 0KG     -1.235333
     22 H1         -1.1960    3.7810    1.7060 hc        1 0KG      0.055750
     23 H2         -1.5460    2.2730    1.3600 hc        1 0KG      0.055750
     24 H3         -2.0210    3.7100   -0.4500 hc        1 0KG      0.110750
     25 H4         -1.0400    2.5130   -0.8640 hc        1 0KG      0.110750
     26 H5         -0.2200    4.4440   -1.7180 hc        1 0KG      0.044000
     27 H6         -0.3260    5.2570   -0.3310 hc        1 0KG      0.044000
     28 H7          1.5640    3.1570   -1.0100 hc        1 0KG      0.110750
     29 H8          1.9140    4.6410   -0.6840 hc        1 0KG      0.110750
     30 H9          1.4410    4.3710    1.5440 hc        1 0KG      0.055750
     31 H10         2.4040    3.1920    1.1230 hc        1 0KG      0.055750
     32 H11         0.5980    2.4560    2.4310 h1        1 0KG      0.080000
     33 H12         1.0630    1.2840    0.0550 hn        1 0KG      0.330000
     34 H13         1.3830   -1.8040    1.5490 h4        1 0KG      0.143000
     35 H14         1.4420   -1.1570    0.1930 h4        1 0KG      0.143000
     36 H15         1.4730   -2.1410   -1.3410 ha        1 0KG      0.100000
     37 H16         1.6070   -3.5770   -3.1840 ha        1 0KG      0.075000
     38 H17         0.0920   -5.4300   -3.2890 ha        1 0KG      0.134000
     39 H18        -1.5950   -5.6660   -1.6310 ha        1 0KG      0.134000
@<TRIPOS>BOND
     1    1    2 1   
     2    1    6 1   
     3    1   22 1   
     4    1   23 1   
     5    2    3 1   
     6    2   24 1   
     7    2   25 1   
     8    3    4 1   
     9    3   26 1   
    10    3   27 1   
    11    4    5 1   
    12    4   28 1   
    13    4   29 1   
    14    5    6 1   
    15    5   30 1   
    16    5   31 1   
    17    6    7 1   
    18    6   32 1   
    19    7    8 1   
    20    7   33 1   
    21    8    9 1   
    22   10   11 1   
    23   10   34 1   
    24   10   35 1   
    25   11   12 1   
    26   12   13 1   
    27   12   17 1   
    28   13   14 1   
    29   13   36 1   
    30   14   37 1   
    31   15   16 1   
    32   15   38 1   
    33   16   39 1   
    34   18   19 1   
    35   18   20 1   
    36   18   21 1   
@<TRIPOS>SUBSTRUCTURE
     1 0KG         1 TEMP              0 ****  ****    0 ROOT
