@<TRIPOS>MOLECULE
0KG
   39    40     1     0     0
SMALL
bcc


@<TRIPOS>ATOM
      1 CAT        -4.4500   -0.8680    0.4670 c3        1 0KG     -0.099900
      2 CAS        -5.7740   -0.1620    0.2630 c3        1 0KG     -0.067900
      3 CAR        -5.8350    0.5430   -1.0770 c3        1 0KG     -0.074400
      4 CAQ        -4.6640    1.4900   -1.2540 c3        1 0KG     -0.067900
      5 CAU        -3.3450    0.7740   -1.0680 c3        1 0KG     -0.099900
      6 CAP        -3.2860    0.1330    0.3310 c3        1 0KG      0.127700
      7 NAN        -1.9900   -0.4550    0.5750 n         1 0KG     -0.540900
      8 CAM        -1.5730   -0.7770    1.8390 c         1 0KG      0.651100
      9 OAO        -2.3570   -0.8760    2.8210 o         1 0KG     -0.725100
     10 CAL        -0.0750   -1.0290    2.0220 c3        1 0KG      0.015400
     11 OAK         0.3230   -2.0960    1.1690 os        1 0KG     -0.364900
     12 CAB         1.4590   -1.9060    0.3870 ca        1 0KG      0.158100
     13 CAA         2.2190   -3.0900    0.2850 ca        1 0KG     -0.205000
     14 CAF         3.3430   -3.1240   -0.5330 ca        1 0KG     -0.167000
     15 CAE         3.7130   -1.9800   -1.2350 ca        1 0KG     -0.201000
     16 CAD         2.9500   -0.8170   -1.1150 ca        1 0KG     -0.119000
     17 CAC         1.8140   -0.7380   -0.3120 ca        1 0KG     -0.182500
     18 PAG         1.1500    1.0780   -0.5170 p5        1 0KG      1.239000
     19 OAI         1.0750    1.5260    0.9170 o         1 0KG     -0.910167
     20 OAJ         2.1590    1.7740   -1.3800 o         1 0KG     -0.910167
     21 OAH        -0.1990    0.8550   -1.1590 o         1 0KG     -0.910167
     22 H1         -4.4180   -1.3300    1.4880 hc        1 0KG      0.067450
     23 H2         -4.3370   -1.6870   -0.2890 hc        1 0KG      0.067450
     24 H3         -6.6120   -0.9050    0.3320 hc        1 0KG      0.019700
     25 H4         -5.9250    0.5890    1.0830 hc        1 0KG      0.019700
     26 H5         -5.8200   -0.2210   -1.8990 hc        1 0KG      0.013700
     27 H6         -6.8000    1.1080   -1.1630 hc        1 0KG      0.013700
     28 H7         -4.7020    1.9440   -2.2790 hc        1 0KG      0.019700
     29 H8         -4.7480    2.3280   -0.5130 hc        1 0KG      0.019700
     30 H9         -3.2320   -0.0220   -1.8490 hc        1 0KG      0.067450
     31 H10        -2.4700    1.4740   -1.1980 hc        1 0KG      0.067450
     32 H11        -3.4710    0.9460    1.1010 h1        1 0KG      0.024700
     33 H12        -1.2560   -0.1850   -0.1030 hn        1 0KG      0.407500
     34 H13         0.4910   -0.0610    1.7990 h1        1 0KG      0.106200
     35 H14         0.1030   -1.3780    3.0730 h1        1 0KG      0.106200
     36 H15         1.9050   -3.9810    0.8440 ha        1 0KG      0.097000
     37 H16         3.9310   -4.0480   -0.6180 ha        1 0KG      0.073000
     38 H17         4.6010   -1.9960   -1.8800 ha        1 0KG      0.080000
     39 H18         3.2510    0.0910   -1.6790 ha        1 0KG      0.184000
@<TRIPOS>BOND
     1    1    2 1   
     2    1    6 1   
     3    1   22 1   
     4    1   23 1   
     5    2    3 1   
     6    2   24 1   
     7    2   25 1   
     8    3    4 1   
     9    3   26 1   
    10    3   27 1   
    11    4    5 1   
    12    4   28 1   
    13    4   29 1   
    14    5    6 1   
    15    5   30 1   
    16    5   31 1   
    17    6    7 1   
    18    6   32 1   
    19    7    8 1   
    20    7   33 1   
    21    8    9 2   
    22    8   10 1   
    23   10   11 1   
    24   10   34 1   
    25   10   35 1   
    26   11   12 1   
    27   12   13 ar  
    28   12   17 ar  
    29   13   14 ar  
    30   13   36 1   
    31   14   15 ar  
    32   14   37 1   
    33   15   16 ar  
    34   15   38 1   
    35   16   17 ar  
    36   16   39 1   
    37   17   18 1   
    38   18   19 1   
    39   18   20 1   
    40   18   21 1   
@<TRIPOS>SUBSTRUCTURE
     1 0KG         1 TEMP              0 ****  ****    0 ROOT
