@<TRIPOS>MOLECULE
0KG
   40    41     1     0     0
SMALL
bcc


@<TRIPOS>ATOM
      1 CAT        -0.3280    1.8890    0.9290 c3        1 0KG     -0.097400
      2 CAS         0.9020    1.9190    1.8080 c3        1 0KG     -0.070900
      3 CAR         2.0130    1.0650    1.2310 c3        1 0KG     -0.075400
      4 CAQ         1.5390   -0.3510    0.9770 c3        1 0KG     -0.070900
      5 CAU         0.3050   -0.3790    0.0990 c3        1 0KG     -0.097400
      6 CAP        -0.8270    0.4470    0.7320 c3        1 0KG      0.174500
      7 NAN        -2.0690    0.3330   -0.0130 n3        1 0KG     -0.904800
      8 CAM        -3.7250    5.0780    2.5620 c         1 0KG      0.774600
      9 OAO        -2.6770    5.2680    3.1910 o         1 0KG     -0.643500
     10 CAL        -5.0480    4.8670    3.2850 c3        1 0KG      0.038400
     11 OAK        -5.7290    3.6620    2.9570 os        1 0KG     -0.335900
     12 CAB        -6.3410    3.6300    1.7020 ca        1 0KG      0.180100
     13 CAA        -7.7070    3.2740    1.7900 ca        1 0KG     -0.177000
     14 CAF        -8.4620    3.1270    0.6360 ca        1 0KG     -0.104000
     15 CAE        -7.8760    3.3540   -0.6110 ca        1 0KG     -0.174000
     16 CAD        -6.5330    3.7010   -0.6800 ca        1 0KG     -0.064000
     17 CAC        -5.7300    3.8290    0.4640 ca        1 0KG     -0.351500
     18 PAG        -4.1200    4.1380    0.0420 p5        1 0KG      1.429900
     19 OAI        -3.2800    2.9610    0.3270 o         1 0KG     -0.837000
     20 OAJ        -4.0620    4.9010   -1.2150 o         1 0KG     -0.837000
     21 OAH        -3.7130    5.2540    1.2500 os        1 0KG     -0.566500
     22 H1         -1.1520    2.5080    1.3780 hc        1 0KG      0.052450
     23 H2         -0.0910    2.3400   -0.0690 hc        1 0KG      0.052450
     24 H3          0.6410    1.5480    2.8340 hc        1 0KG      0.027950
     25 H4          1.2590    2.9760    1.9160 hc        1 0KG      0.027950
     26 H5          2.3650    1.5170    0.2670 hc        1 0KG      0.024200
     27 H6          2.8860    1.0490    1.9340 hc        1 0KG      0.024200
     28 H7          1.3100   -0.8470    1.9570 hc        1 0KG      0.027950
     29 H8          2.3590   -0.9390    0.4880 hc        1 0KG      0.027950
     30 H9         -0.0290   -1.4400   -0.0410 hc        1 0KG      0.052450
     31 H10         0.5530    0.0360   -0.9130 hc        1 0KG      0.052450
     32 H11        -1.0290    0.0120    1.7580 h1        1 0KG      0.036700
     33 H12        -2.7890    0.8370    0.4820 hn        1 0KG      0.365300
     34 H13        -4.8480    4.7520    4.3860 h1        1 0KG      0.067700
     35 H14        -5.7040    5.7550    3.0920 h1        1 0KG      0.067700
     36 H15        -8.1500    3.1050    2.7810 ha        1 0KG      0.130000
     37 H16        -9.5210    2.8400    0.7060 ha        1 0KG      0.114000
     38 H17        -8.4730    3.2590   -1.5280 ha        1 0KG      0.120000
     39 H18        -6.0600    3.9050   -1.6610 ha        1 0KG      0.171000
     40 HAN2       -1.9650    0.7870   -0.9030 hn        1 0KG      0.365300
@<TRIPOS>BOND
     1    1    2 1   
     2    1    6 1   
     3    1   22 1   
     4    1   23 1   
     5    2    3 1   
     6    2   24 1   
     7    2   25 1   
     8    3    4 1   
     9    3   26 1   
    10    3   27 1   
    11    4    5 1   
    12    4   28 1   
    13    4   29 1   
    14    5    6 1   
    15    5   30 1   
    16    5   31 1   
    17    6    7 1   
    18    6   32 1   
    19    7   33 1   
    20    7   40 1   
    21    8    9 2   
    22    8   10 1   
    23    8   21 1   
    24   10   11 1   
    25   10   34 1   
    26   10   35 1   
    27   11   12 1   
    28   12   13 ar  
    29   12   17 ar  
    30   13   14 ar  
    31   13   36 1   
    32   14   15 ar  
    33   14   37 1   
    34   15   16 ar  
    35   15   38 1   
    36   16   17 ar  
    37   16   39 1   
    38   17   18 1   
    39   18   19 1   
    40   18   20 1   
    41   18   21 1   
@<TRIPOS>SUBSTRUCTURE
     1 0KG         1 TEMP              0 ****  ****    0 ROOT
