@<TRIPOS>MOLECULE
0KG
   40    41     1     0     0
SMALL
bcc


@<TRIPOS>ATOM
      1 CAT        -0.3500    1.9210    0.6450 c3        1 0KG     -0.097400
      2 CAS         0.9740    2.0100    1.3710 c3        1 0KG     -0.070900
      3 CAR         2.0270    1.1490    0.7030 c3        1 0KG     -0.075400
      4 CAQ         1.5560   -0.2850    0.5670 c3        1 0KG     -0.070900
      5 CAU         0.2290   -0.3710   -0.1570 c3        1 0KG     -0.097400
      6 CAP        -0.8380    0.4650    0.5700 c3        1 0KG      0.174500
      7 NAN        -2.1570    0.2990   -0.0180 n3        1 0KG     -0.904800
      8 CAM        -3.5740    5.1370    2.5290 c         1 0KG      0.774600
      9 OAO        -2.4580    5.3740    3.0070 o         1 0KG     -0.643500
     10 CAL        -4.7880    4.9430    3.4260 c3        1 0KG      0.038400
     11 OAK        -5.4810    3.7130    3.2460 os        1 0KG     -0.335900
     12 CAB        -6.2480    3.6100    2.0840 ca        1 0KG      0.180100
     13 CAA        -7.5830    3.2390    2.3640 ca        1 0KG     -0.177000
     14 CAF        -8.4770    3.0240    1.3260 ca        1 0KG     -0.104000
     15 CAE        -8.0610    3.1970    0.0040 ca        1 0KG     -0.174000
     16 CAD        -6.7450    3.5600   -0.2550 ca        1 0KG     -0.064000
     17 CAC        -5.8050    3.7570    0.7690 ca        1 0KG     -0.351500
     18 PAG        -4.2690    4.0680    0.1280 p5        1 0KG      1.429900
     19 OAI        -3.3750    2.9190    0.3570 o         1 0KG     -0.837000
     20 OAJ        -4.3890    4.7690   -1.1610 o         1 0KG     -0.837000
     21 OAH        -3.7340    5.2480    1.2200 os        1 0KG     -0.566500
     22 H1         -0.2400    2.3310   -0.3930 hc        1 0KG      0.052700
     23 H2         -1.1280    2.5480    1.1610 hc        1 0KG      0.052700
     24 H3          1.3190    3.0770    1.3910 hc        1 0KG      0.027950
     25 H4          0.8420    1.6810    2.4350 hc        1 0KG      0.027950
     26 H5          2.2550    1.5620   -0.3140 hc        1 0KG      0.024200
     27 H6          2.9760    1.1780    1.2980 hc        1 0KG      0.024200
     28 H7          1.4540   -0.7400    1.5870 hc        1 0KG      0.027950
     29 H8          2.3250   -0.8810    0.0100 hc        1 0KG      0.027950
     30 H9          0.3470    0.0020   -1.2070 hc        1 0KG      0.052700
     31 H10        -0.0970   -1.4420   -0.2120 hc        1 0KG      0.052700
     32 H11        -0.9090    0.0730    1.6300 h1        1 0KG      0.036700
     33 H12        -2.1670    0.7140   -0.9320 hn        1 0KG      0.365300
     34 H13        -4.4460    4.8860    4.4960 h1        1 0KG      0.067700
     35 H14        -5.4820    5.8110    3.2780 h1        1 0KG      0.067700
     36 H15        -7.8910    3.1130    3.4110 ha        1 0KG      0.130000
     37 H16        -9.5130    2.7250    1.5450 ha        1 0KG      0.114000
     38 H17        -8.7690    3.0480   -0.8220 ha        1 0KG      0.120000
     39 H18        -6.4070    3.7220   -1.2970 ha        1 0KG      0.171000
     40 HAN2       -2.8240    0.8120    0.5370 hn        1 0KG      0.365300
@<TRIPOS>BOND
     1    1    2 1   
     2    1    6 1   
     3    1   22 1   
     4    1   23 1   
     5    2    3 1   
     6    2   24 1   
     7    2   25 1   
     8    3    4 1   
     9    3   26 1   
    10    3   27 1   
    11    4    5 1   
    12    4   28 1   
    13    4   29 1   
    14    5    6 1   
    15    5   30 1   
    16    5   31 1   
    17    6    7 1   
    18    6   32 1   
    19    7   33 1   
    20    7   40 1   
    21    8    9 2   
    22    8   10 1   
    23    8   21 1   
    24   10   11 1   
    25   10   34 1   
    26   10   35 1   
    27   11   12 1   
    28   12   13 ar  
    29   12   17 ar  
    30   13   14 ar  
    31   13   36 1   
    32   14   15 ar  
    33   14   37 1   
    34   15   16 ar  
    35   15   38 1   
    36   16   17 ar  
    37   16   39 1   
    38   17   18 1   
    39   18   19 1   
    40   18   20 1   
    41   18   21 1   
@<TRIPOS>SUBSTRUCTURE
     1 0KG         1 TEMP              0 ****  ****    0 ROOT
