@<TRIPOS>MOLECULE
0KH
   33    34     1     0     0
SMALL
bcc


@<TRIPOS>ATOM
      1 OAC        -0.1960   -0.0310   -1.9910 oh        1 0KH     -0.789400
      2 PAW         1.3620    0.3940   -2.2840 p5        1 0KH      1.391900
      3 OAD         2.1780   -0.6390   -1.6000 o         1 0KH     -0.878000
      4 OAB         1.4970    0.6090   -3.7490 o         1 0KH     -0.878000
      5 CAV         1.5060    1.8890   -1.4670 ca        1 0KH     -0.340500
      6 CAM         2.3940    2.7230   -2.1590 ca        1 0KH     -0.068000
      7 CAH         2.7860    3.9710   -1.6910 ca        1 0KH     -0.225000
      8 CAG         2.2740    4.4270   -0.4750 ca        1 0KH     -0.108000
      9 CAL         1.3770    3.6440    0.2310 ca        1 0KH     -0.223000
     10 CAU         0.9710    2.3810   -0.2620 ca        1 0KH      0.202100
     11 OAP         0.0100    1.6650    0.4500 os        1 0KH     -0.233200
     12 CAN        -0.1680    2.0320    1.7760 c2        1 0KH     -0.398900
     13 CAQ        -1.2440    2.8010    2.2190 c2        1 0KH      0.653300
     14 OAA        -1.4860    3.0480    3.4420 o         1 0KH     -0.802300
     15 NAO        -2.1420    3.3220    1.2120 ns        1 0KH     -0.447100
     16 CAS        -3.2360    4.1180    1.3710 ca        1 0KH      0.177600
     17 CAT        -4.0260    4.5130    0.2370 ca        1 0KH     -0.122600
     18 Cl1        -3.5980    3.9710   -1.3200 cl        1 0KH     -0.092400
     19 CAR        -5.1410    5.3360    0.3990 ca        1 0KH      0.080400
     20 Cl2        -6.0820    5.8060   -0.9570 cl        1 0KH     -0.148400
     21 CAJ        -5.5310    5.8020    1.6510 ca        1 0KH     -0.243000
     22 CAI        -4.7730    5.4250    2.7640 ca        1 0KH     -0.097000
     23 CAK        -3.6650    4.6140    2.6430 ca        1 0KH     -0.201000
     24 H3          2.7790    2.3570   -3.1310 ha        1 0KH      0.153000
     25 H4          3.4850    4.5900   -2.2670 ha        1 0KH      0.093000
     26 H5          2.5770    5.4070   -0.0810 ha        1 0KH      0.089000
     27 H6          0.9640    3.9950    1.1900 ha        1 0KH      0.144000
     28 H7         -0.3690   -0.1580   -1.0660 ho        1 0KH      0.426000
     29 H8          0.5520    1.6110    2.4740 h4        1 0KH      0.136000
     30 H9         -1.9220    3.0300    0.2800 hn        1 0KH      0.330500
     31 H10        -6.4100    6.4480    1.7630 ha        1 0KH      0.117000
     32 H11        -5.0720    5.7870    3.7590 ha        1 0KH      0.107000
     33 H12        -3.0870    4.3310    3.5410 ha        1 0KH      0.193000
@<TRIPOS>BOND
     1    1    2 1   
     2    1   28 1   
     3    2    3 1   
     4    2    4 1   
     5    2    5 1   
     6    5    6 ar  
     7    5   10 ar  
     8    6    7 ar  
     9    6   24 1   
    10    7    8 ar  
    11    7   25 1   
    12    8    9 ar  
    13    8   26 1   
    14    9   10 ar  
    15    9   27 1   
    16   10   11 1   
    17   11   12 1   
    18   12   13 2   
    19   12   29 1   
    20   13   14 1   
    21   13   15 1   
    22   15   16 1   
    23   15   30 1   
    24   16   17 ar  
    25   16   23 ar  
    26   17   18 1   
    27   17   19 ar  
    28   19   20 1   
    29   19   21 ar  
    30   21   22 ar  
    31   21   31 1   
    32   22   23 ar  
    33   22   32 1   
    34   23   33 1   
@<TRIPOS>SUBSTRUCTURE
     1 0KH         1 TEMP              0 ****  ****    0 ROOT
