@<TRIPOS>MOLECULE
0KH
   33    25     1     0     0
SMALL
bcc


@<TRIPOS>ATOM
      1 OAC        -1.6000   -4.3050    0.3910 o         1 0KH     -1.067000
      2 PAW        -0.8700   -3.5030    1.4150 p3        1 0KH      2.647000
      3 OAD        -1.0010   -4.1600    2.7560 o         1 0KH     -1.067000
      4 OAB        -1.4520   -2.1310    1.4740 o         1 0KH     -1.067000
      5 CAV         0.8930   -3.4020    0.9620 c1        1 0KH     -0.278500
      6 CAM         1.7480   -4.4680    1.2490 c1        1 0KH     -0.142000
      7 CAH         3.0970   -4.3890    0.9110 c1        1 0KH     -0.158500
      8 CAG         3.5930   -3.2490    0.2890 c1        1 0KH     -0.158500
      9 CAL         2.7350   -2.1800    0.0020 c1        1 0KH     -0.142000
     10 CAU         1.3890   -2.2600    0.3390 c1        1 0KH     -0.278500
     11 OAP         0.5090   -1.1370    0.0870 o         1 0KH     -0.222000
     12 CAN         0.9650   -0.2550   -0.9390 c3        1 0KH     -0.024000
     13 CAQ        -0.0620    0.9100   -1.1200 c2        1 0KH      0.281000
     14 OAA        -0.5780    1.0940   -2.1910 o         1 0KH     -0.450000
     15 NAO        -0.2910    1.8250   -0.0570 n         1 0KH     -0.443000
     16 CAS        -1.1600    2.9950   -0.2710 c1        1 0KH      0.217000
     17 CAT        -1.9090    3.1020   -1.4520 c1        1 0KH     -0.207000
     18 CL1        -1.7770    1.8660   -2.6830 cl        1 0KH     -0.073000
     19 CAR        -2.8280    4.1290   -1.5990 c1        1 0KH      0.017000
     20 CL2        -3.7030    4.3030   -3.0850 cl        1 0KH     -0.073000
     21 CAJ        -3.0070    5.0530   -0.5780 c2        1 0KH     -0.283000
     22 CAI        -2.2640    4.9490    0.5970 c1        1 0KH     -0.089000
     23 CAK        -1.3390    3.9150    0.7470 c1        1 0KH     -0.227000
     24 H3          1.3940   -5.2780    1.5840 ha        1 0KH      0.169500
     25 H4          3.7160   -5.1610    1.1190 ha        1 0KH      0.099000
     26 H5          4.5380   -3.1940    0.0530 ha        1 0KH      0.099000
     27 H6          3.0800   -1.3810   -0.4340 ha        1 0KH      0.169500
     28 H7          1.8270    0.1110   -0.6900 h1        1 0KH      0.099000
     29 H8          1.0520   -0.7590   -1.8000 h1        1 0KH      0.099000
     30 H9          0.1740    1.7390    0.7260 hn        1 0KH      0.225000
     31 H10        -3.6540    5.7750   -0.6830 ha        1 0KH      0.109000
     32 H11        -2.3920    5.6020    1.3180 ha        1 0KH      0.091000
     33 H12        -0.8220    3.8420    1.5630 ha        1 0KH      0.125000
@<TRIPOS>BOND
     1    1    2 1   
     2    2    3 1   
     3    2    4 1   
     4    5    6 1   
     5    6   24 1   
     6    7    8 1   
     7    7   25 1   
     8    8   26 1   
     9    9   10 1   
    10    9   27 1   
    11   11   12 1   
    12   12   13 1   
    13   12   28 1   
    14   12   29 1   
    15   13   14 1   
    16   13   15 1   
    17   15   16 1   
    18   15   30 1   
    19   16   23 1   
    20   17   19 1   
    21   19   21 1   
    22   21   22 1   
    23   21   31 1   
    24   22   32 1   
    25   23   33 1   
@<TRIPOS>SUBSTRUCTURE
     1 0KH         1 TEMP              0 ****  ****    0 ROOT
