@<TRIPOS>MOLECULE
0KH
   33    34     1     0     0
SMALL
bcc


@<TRIPOS>ATOM
      1 OAC         0.7300   -0.4370   -1.8920 oh        1 0KH     -0.793400
      2 PAW         2.3090   -0.0770   -1.6210 p5        1 0KH      1.391900
      3 OAD         2.7450   -0.9770   -0.5240 o         1 0KH     -0.878000
      4 OAB         3.0010   -0.1190   -2.9360 o         1 0KH     -0.878000
      5 CAV         2.2280    1.5380   -1.0710 ca        1 0KH     -0.332500
      6 CAM         3.3940    2.2260   -1.4380 ca        1 0KH     -0.075000
      7 CAH         3.6200    3.5560   -1.1100 ca        1 0KH     -0.213000
      8 CAG         2.6480    4.2530   -0.3870 ca        1 0KH     -0.124000
      9 CAL         1.4800    3.6110   -0.0140 ca        1 0KH     -0.191000
     10 CAU         1.2610    2.2540   -0.3500 ca        1 0KH      0.197100
     11 OAP         0.0840    1.6630    0.1320 os        1 0KH     -0.225200
     12 CAN        -1.0790    2.3570   -0.1640 c2        1 0KH     -0.385900
     13 CAQ        -1.6550    3.2030    0.7810 c2        1 0KH      0.648300
     14 OAA        -1.1940    3.5820    1.8970 o         1 0KH     -0.774300
     15 NAO        -2.9720    3.7040    0.3880 n         1 0KH     -0.451100
     16 CAS        -3.8700    4.4210    1.1140 ca        1 0KH      0.178600
     17 CAT        -5.1220    4.8270    0.5390 ca        1 0KH     -0.133600
     18 CL1        -5.4910    4.4020   -1.0760 cl        1 0KH     -0.127400
     19 CAR        -6.0460    5.5660    1.2810 ca        1 0KH      0.084400
     20 CL2        -7.5390    6.0460    0.5850 cl        1 0KH     -0.151400
     21 CAJ        -5.7930    5.9350    2.5970 ca        1 0KH     -0.242000
     22 CAI        -4.5770    5.5450    3.1740 ca        1 0KH     -0.094000
     23 CAK        -3.6440    4.8170    2.4730 ca        1 0KH     -0.191000
     24 H3          4.1410    1.6740   -2.0390 ha        1 0KH      0.147000
     25 H4          4.5460    4.0580   -1.4180 ha        1 0KH      0.091000
     26 H5          2.8120    5.3040   -0.1130 ha        1 0KH      0.089000
     27 H6          0.7000    4.1350    0.5620 ha        1 0KH      0.156000
     28 H7         -1.4940    2.1080   -1.1400 h4        1 0KH      0.116000
     29 H8          0.1800   -0.2750   -1.1330 ho        1 0KH      0.429000
     30 H9         -3.2520    3.4500   -0.5350 hn        1 0KH      0.303500
     31 H10        -6.5240    6.5150    3.1710 ha        1 0KH      0.119000
     32 H11        -4.3690    5.8320    4.2160 ha        1 0KH      0.112000
     33 H12        -2.6910    4.5220    2.9520 ha        1 0KH      0.200000
@<TRIPOS>BOND
     1    1    2 1   
     2    1   29 1   
     3    2    3 1   
     4    2    4 1   
     5    2    5 1   
     6    5    6 ar  
     7    5   10 ar  
     8    6    7 ar  
     9    6   24 1   
    10    7    8 ar  
    11    7   25 1   
    12    8    9 ar  
    13    8   26 1   
    14    9   10 ar  
    15    9   27 1   
    16   10   11 1   
    17   11   12 1   
    18   12   13 2   
    19   12   28 1   
    20   13   14 1   
    21   13   15 1   
    22   15   16 1   
    23   15   30 1   
    24   16   17 ar  
    25   16   23 ar  
    26   17   18 1   
    27   17   19 ar  
    28   19   20 1   
    29   19   21 ar  
    30   21   22 ar  
    31   21   31 1   
    32   22   23 ar  
    33   22   32 1   
    34   23   33 1   
@<TRIPOS>SUBSTRUCTURE
     1 0KH         1 TEMP              0 ****  ****    0 ROOT
