@<TRIPOS>MOLECULE
0KH
   33    34     1     0     0
SMALL
bcc


@<TRIPOS>ATOM
      1 OAC         0.6860   -0.4610   -1.8860 oh        1 0KH     -0.793400
      2 PAW         2.2690   -0.1170   -1.6180 p5        1 0KH      1.391900
      3 OAD         2.6970   -1.0200   -0.5210 o         1 0KH     -0.878000
      4 OAB         2.9580   -0.1680   -2.9350 o         1 0KH     -0.878000
      5 CAV         2.2060    1.5000   -1.0700 ca        1 0KH     -0.332500
      6 CAM         3.3780    2.1760   -1.4410 ca        1 0KH     -0.075000
      7 CAH         3.6190    3.5040   -1.1160 ca        1 0KH     -0.213000
      8 CAG         2.6550    4.2110   -0.3910 ca        1 0KH     -0.124000
      9 CAL         1.4810    3.5820   -0.0150 ca        1 0KH     -0.191000
     10 CAU         1.2480    2.2260   -0.3490 ca        1 0KH      0.197100
     11 OAP         0.0660    1.6480    0.1380 os        1 0KH     -0.225200
     12 CAN        -1.0910    2.3520   -0.1580 c2        1 0KH     -0.385900
     13 CAQ        -1.6570    3.2070    0.7850 c2        1 0KH      0.648300
     14 OAA        -1.1900    3.5860    1.8980 o         1 0KH     -0.774300
     15 NAO        -2.9700    3.7170    0.3940 n         1 0KH     -0.451100
     16 CAS        -3.8570    4.4530    1.1150 ca        1 0KH      0.178600
     17 CAT        -5.1070    4.8650    0.5430 ca        1 0KH     -0.133600
     18 CL1        -5.4910    4.4240   -1.0640 cl        1 0KH     -0.127400
     19 CAR        -6.0200    5.6220    1.2810 ca        1 0KH      0.084400
     20 CL2        -7.5110    6.1100    0.5870 cl        1 0KH     -0.151400
     21 CAJ        -5.7550    6.0050    2.5900 ca        1 0KH     -0.242000
     22 CAI        -4.5400    5.6100    3.1650 ca        1 0KH     -0.094000
     23 CAK        -3.6180    4.8630    2.4690 ca        1 0KH     -0.191000
     24 H3          4.1170    1.6150   -2.0430 ha        1 0KH      0.147000
     25 H4          4.5490    3.9950   -1.4260 ha        1 0KH      0.091000
     26 H5          2.8300    5.2610   -0.1190 ha        1 0KH      0.089000
     27 H6          0.7080    4.1140    0.5630 ha        1 0KH      0.156000
     28 H7         -1.5100    2.1040   -1.1330 h4        1 0KH      0.116000
     29 H8          0.1390   -0.2920   -1.1270 ho        1 0KH      0.429000
     30 H9         -3.2580    3.4570   -0.5250 hn        1 0KH      0.303500
     31 H10        -6.4770    6.6000    3.1620 ha        1 0KH      0.119000
     32 H11        -4.3220    5.9070    4.2020 ha        1 0KH      0.112000
     33 H12        -2.6660    4.5640    2.9460 ha        1 0KH      0.200000
@<TRIPOS>BOND
     1    1    2 1   
     2    1   29 1   
     3    2    3 1   
     4    2    4 1   
     5    2    5 1   
     6    5    6 ar  
     7    5   10 ar  
     8    6    7 ar  
     9    6   24 1   
    10    7    8 ar  
    11    7   25 1   
    12    8    9 ar  
    13    8   26 1   
    14    9   10 ar  
    15    9   27 1   
    16   10   11 1   
    17   11   12 1   
    18   12   13 2   
    19   12   28 1   
    20   13   14 1   
    21   13   15 1   
    22   15   16 1   
    23   15   30 1   
    24   16   17 ar  
    25   16   23 ar  
    26   17   18 1   
    27   17   19 ar  
    28   19   20 1   
    29   19   21 ar  
    30   21   22 ar  
    31   21   31 1   
    32   22   23 ar  
    33   22   32 1   
    34   23   33 1   
@<TRIPOS>SUBSTRUCTURE
     1 0KH         1 TEMP              0 ****  ****    0 ROOT
