@<TRIPOS>MOLECULE
0KH
   33    34     1     0     0
SMALL
bcc


@<TRIPOS>ATOM
      1 OAC         4.0460   -0.8450   -2.4880 oh        1 0KH     -0.793400
      2 PAW         5.2070   -0.3320   -1.4470 p5        1 0KH      1.391900
      3 OAD         5.7920   -1.5610   -0.8560 o         1 0KH     -0.878000
      4 OAB         6.0730    0.6210   -2.1900 o         1 0KH     -0.878000
      5 CAV         4.2990    0.5180   -0.2760 ca        1 0KH     -0.332500
      6 CAM         5.0700    1.5610    0.2620 ca        1 0KH     -0.075000
      7 CAH         4.6000    2.4140    1.2510 ca        1 0KH     -0.213000
      8 CAG         3.3030    2.2390    1.7400 ca        1 0KH     -0.124000
      9 CAL         2.5080    1.2270    1.2280 ca        1 0KH     -0.191000
     10 CAU         2.9980    0.3620    0.2220 ca        1 0KH      0.197100
     11 OAP         2.1520   -0.6810   -0.1830 os        1 0KH     -0.225200
     12 CAN         0.8790   -0.2850   -0.5620 c2        1 0KH     -0.385900
     13 CAQ        -0.1840   -0.3780    0.3330 c2        1 0KH      0.648300
     14 OAA        -0.1640   -0.6530    1.5670 o         1 0KH     -0.774300
     15 NAO        -1.4850   -0.1080   -0.2790 n         1 0KH     -0.451100
     16 CAS        -2.7290   -0.2400    0.2520 ca        1 0KH      0.178600
     17 CAT        -3.8960    0.0840   -0.5200 ca        1 0KH     -0.133600
     18 CL1        -3.7220    0.6380   -2.1280 cl        1 0KH     -0.127400
     19 CAR        -5.1760   -0.0490    0.0250 ca        1 0KH      0.084400
     20 CL2        -6.5630    0.3420   -0.9060 cl        1 0KH     -0.151400
     21 CAJ        -5.3700   -0.4960    1.3250 ca        1 0KH     -0.242000
     22 CAI        -4.2420   -0.8180    2.0920 ca        1 0KH     -0.094000
     23 CAK        -2.9660   -0.7010    1.5890 ca        1 0KH     -0.191000
     24 H3          6.0830    1.7100   -0.1580 ha        1 0KH      0.147000
     25 H4          5.2360    3.2180    1.6430 ha        1 0KH      0.091000
     26 H5          2.9160    2.9010    2.5270 ha        1 0KH      0.089000
     27 H6          1.4830    1.0630    1.6000 ha        1 0KH      0.156000
     28 H7          0.8140    0.0150   -1.6080 h4        1 0KH      0.116000
     29 H8          3.3530   -1.3310   -2.0550 ho        1 0KH      0.429000
     30 H9         -1.4410    0.1850   -1.2320 hn        1 0KH      0.303500
     31 H10        -6.3770   -0.5960    1.7440 ha        1 0KH      0.119000
     32 H11        -4.3850   -1.1750    3.1240 ha        1 0KH      0.112000
     33 H12        -2.0930   -0.9620    2.2160 ha        1 0KH      0.200000
@<TRIPOS>BOND
     1    1    2 1   
     2    1   29 1   
     3    2    3 1   
     4    2    4 1   
     5    2    5 1   
     6    5    6 ar  
     7    5   10 ar  
     8    6    7 ar  
     9    6   24 1   
    10    7    8 ar  
    11    7   25 1   
    12    8    9 ar  
    13    8   26 1   
    14    9   10 ar  
    15    9   27 1   
    16   10   11 1   
    17   11   12 1   
    18   12   13 2   
    19   12   28 1   
    20   13   14 1   
    21   13   15 1   
    22   15   16 1   
    23   15   30 1   
    24   16   17 ar  
    25   16   23 ar  
    26   17   18 1   
    27   17   19 ar  
    28   19   20 1   
    29   19   21 ar  
    30   21   22 ar  
    31   21   31 1   
    32   22   23 ar  
    33   22   32 1   
    34   23   33 1   
@<TRIPOS>SUBSTRUCTURE
     1 0KH         1 TEMP              0 ****  ****    0 ROOT
