@<TRIPOS>MOLECULE
0KJ
   76    79     1     0     0
SMALL
bcc


@<TRIPOS>ATOM
      1 O28        -9.2900    0.9520    0.0250 o         1 0KJ     -0.621500
      2 C27        -8.6440    0.0160   -0.4660 c         1 0KJ      0.688500
      3 N29        -7.4600   -0.4840    0.0700 n         1 0KJ     -0.561900
      4 C24        -6.8570   -1.4900   -0.7850 c3        1 0KJ      0.088700
      5 C25        -7.8620   -1.7470   -1.9420 c3        1 0KJ     -0.091400
      6 C26        -9.0270   -0.7910   -1.7020 c3        1 0KJ     -0.163400
      7 C22        -5.4910   -1.0990   -1.3700 c3        1 0KJ      0.127400
      8 O23        -4.6040   -0.9760   -0.2470 os        1 0KJ     -0.450900
      9 C21        -3.2950   -0.6650   -0.5750 c         1 0KJ      0.743100
     10 O22        -3.0070   -0.4950   -1.7720 o         1 0KJ     -0.593000
     11 N20        -2.4630   -0.6460    0.5210 n         1 0KJ     -0.528900
     12 C19        -1.1390   -0.0720    0.4280 c3        1 0KJ      0.084700
     13 C32        -0.9750    1.1840    1.3060 c3        1 0KJ     -0.064100
     14 C38        -1.8110    2.3230    0.8460 ca        1 0KJ     -0.090300
     15 C37        -2.8450    2.8120    1.6530 ca        1 0KJ     -0.124000
     16 C36        -3.6160    3.8940    1.2300 ca        1 0KJ     -0.125000
     17 C35        -3.3610    4.4970   -0.0010 ca        1 0KJ     -0.126000
     18 C34        -2.3300    4.0160   -0.8090 ca        1 0KJ     -0.125000
     19 C33        -1.5580    2.9360   -0.3880 ca        1 0KJ     -0.124000
     20 C17        -0.0610   -1.1290    0.8180 c3        1 0KJ      0.111100
     21 O18         0.0810   -1.2350    2.2150 oh        1 0KJ     -0.597800
     22 C16         1.2540   -0.7840    0.0800 c3        1 0KJ      0.190800
     23 N11         2.4040   -1.5420    0.4870 n3        1 0KJ     -0.799500
     24 C12         2.4670   -2.9170    0.0600 c3        1 0KJ      0.216800
     25 C13         2.7040   -3.1560   -1.4420 c3        1 0KJ     -0.080700
     26 C14         4.1000   -2.7410   -1.8480 c3        1 0KJ     -0.096100
     27 C15         2.4670   -4.6330   -1.7330 c3        1 0KJ     -0.077400
     28 C18         2.3180   -4.9100   -3.2070 c3        1 0KJ     -0.093100
     29 S8          3.4490   -0.9050    1.5690 sy        1 0KJ      1.505200
     30 O10         2.7170   -0.0670    2.4500 o         1 0KJ     -0.653800
     31 O9          4.2450   -1.9140    2.1460 o         1 0KJ     -0.653800
     32 C5          4.4380    0.1010    0.6350 ca        1 0KJ     -0.368500
     33 C6          5.6280   -0.4080    0.0740 ca        1 0KJ     -0.031000
     34 C7          6.4920    0.3840   -0.6590 ca        1 0KJ     -0.098000
     35 C4          4.1200    1.4440    0.4570 ca        1 0KJ      0.037000
     36 C3          4.9630    2.2730   -0.2780 ca        1 0KJ     -0.130100
     37 S1          4.8380    3.9200   -0.6530 ss        1 0KJ     -0.000100
     38 C1          6.3200    3.8510   -1.5250 cc        1 0KJ      0.366100
     39 N1          6.9290    2.6830   -1.5680 nd        1 0KJ     -0.525100
     40 C2          6.1700    1.7410   -0.8520 ca        1 0KJ      0.135400
     41 H1         -6.8980    0.0250    0.7050 hn        1 0KJ      0.331500
     42 H2         -6.7150   -2.4260   -0.1710 h1        1 0KJ      0.073700
     43 H3         -7.3840   -1.5570   -2.9330 hc        1 0KJ      0.060200
     44 H4         -8.2010   -2.8110   -1.9170 hc        1 0KJ      0.060200
     45 H5         -9.9830   -1.3360   -1.5080 hc        1 0KJ      0.082200
     46 H6         -9.1840   -0.0950   -2.5620 hc        1 0KJ      0.082200
     47 H7         -5.1150   -1.9050   -2.0520 h1        1 0KJ      0.064200
     48 H8         -5.5200   -0.1240   -1.9220 h1        1 0KJ      0.064200
     49 H9         -2.8650   -0.7410    1.4240 hn        1 0KJ      0.332500
     50 H10        -0.9640    0.2190   -0.6530 h1        1 0KJ      0.088700
     51 H11        -1.2170    0.9300    2.3740 hc        1 0KJ      0.064200
     52 H12         0.1070    1.4870    1.2780 hc        1 0KJ      0.064200
     53 H13        -3.0490    2.3440    2.6280 ha        1 0KJ      0.130000
     54 H14        -4.4270    4.2710    1.8700 ha        1 0KJ      0.134500
     55 H15        -3.9710    5.3490   -0.3350 ha        1 0KJ      0.134000
     56 H16        -2.1280    4.4890   -1.7810 ha        1 0KJ      0.134500
     57 H17        -0.7480    2.5580   -1.0300 ha        1 0KJ      0.130000
     58 H18        -0.3990   -2.1590    0.5020 h1        1 0KJ      0.090700
     59 H19         0.5820   -0.4690    2.5350 ho        1 0KJ      0.428000
     60 H20         1.0690   -0.9360   -1.0220 h1        1 0KJ      0.057200
     61 H21         1.4860    0.3100    0.2430 h1        1 0KJ      0.057200
     62 H22         3.2950   -3.4290    0.6340 h1        1 0KJ      0.064200
     63 H23         1.4940   -3.4180    0.3450 h1        1 0KJ      0.064200
     64 H24         1.9620   -2.5550   -2.0380 hc        1 0KJ      0.053700
     65 H25         4.2630   -2.9380   -2.9350 hc        1 0KJ      0.037700
     66 H26         4.2580   -1.6500   -1.6640 hc        1 0KJ      0.037700
     67 H27         4.8670   -3.3120   -1.2680 hc        1 0KJ      0.037700
     68 H28         3.3190   -5.2340   -1.3180 hc        1 0KJ      0.043200
     69 H29         1.5350   -4.9710   -1.2060 hc        1 0KJ      0.043200
     70 H30         3.2560   -4.6600   -3.7590 hc        1 0KJ      0.035700
     71 H31         2.0940   -5.9920   -3.3710 hc        1 0KJ      0.035700
     72 H32         1.4840   -4.3080   -3.6410 hc        1 0KJ      0.035700
     73 H33         5.8780   -1.4720    0.2450 ha        1 0KJ      0.159000
     74 H34         7.4200   -0.0290   -1.0850 ha        1 0KJ      0.162000
     75 H35         3.2050    1.8560    0.9210 ha        1 0KJ      0.157000
     76 H36         6.7410    4.7340   -2.0210 h5        1 0KJ      0.068800
@<TRIPOS>BOND
     1    1    2 2   
     2    2    3 1   
     3    2    6 1   
     4    3    4 1   
     5    3   41 1   
     6    4    5 1   
     7    4    7 1   
     8    4   42 1   
     9    5    6 1   
    10    5   43 1   
    11    5   44 1   
    12    6   45 1   
    13    6   46 1   
    14    7    8 1   
    15    7   47 1   
    16    7   48 1   
    17    8    9 1   
    18    9   10 2   
    19    9   11 1   
    20   11   12 1   
    21   11   49 1   
    22   12   13 1   
    23   12   20 1   
    24   12   50 1   
    25   13   14 1   
    26   13   51 1   
    27   13   52 1   
    28   14   15 ar  
    29   14   19 ar  
    30   15   16 ar  
    31   15   53 1   
    32   16   17 ar  
    33   16   54 1   
    34   17   18 ar  
    35   17   55 1   
    36   18   19 ar  
    37   18   56 1   
    38   19   57 1   
    39   20   21 1   
    40   20   22 1   
    41   20   58 1   
    42   21   59 1   
    43   22   23 1   
    44   22   60 1   
    45   22   61 1   
    46   23   24 1   
    47   23   29 1   
    48   24   25 1   
    49   24   62 1   
    50   24   63 1   
    51   25   26 1   
    52   25   27 1   
    53   25   64 1   
    54   26   65 1   
    55   26   66 1   
    56   26   67 1   
    57   27   28 1   
    58   27   68 1   
    59   27   69 1   
    60   28   70 1   
    61   28   71 1   
    62   28   72 1   
    63   29   30 2   
    64   29   31 2   
    65   29   32 1   
    66   32   33 ar  
    67   32   35 ar  
    68   33   34 ar  
    69   33   73 1   
    70   34   40 ar  
    71   34   74 1   
    72   35   36 ar  
    73   35   75 1   
    74   36   37 1   
    75   36   40 ar  
    76   37   38 1   
    77   38   39 2   
    78   38   76 1   
    79   39   40 1   
@<TRIPOS>SUBSTRUCTURE
     1 0KJ         1 TEMP              0 ****  ****    0 ROOT
