@<TRIPOS>MOLECULE
0KJ
   78    80     1     0     0
SMALL
bcc


@<TRIPOS>ATOM
      1 O28         7.0620    2.4230    4.1090 o         1 0KJ     -0.616500
      2 C27         6.6430    1.6040    3.2800 c         1 0KJ      0.687500
      3 N29         5.2620    1.5190    2.9660 n         1 0KJ     -0.594900
      4 C24         5.0170    0.4030    2.0550 c3        1 0KJ      0.031700
      5 C25         6.4010   -0.1980    1.6820 c3        1 0KJ     -0.096400
      6 C26         7.4240    0.5280    2.5530 c3        1 0KJ     -0.165400
      7 C22         4.1240   -0.6820    2.6990 c3        1 0KJ      0.139400
      8 O23         3.2500   -0.1270    3.7180 os        1 0KJ     -0.386900
      9 C21         3.8610    0.1810    4.8890 c         1 0KJ      0.644100
     10 O22         4.7460   -0.4740    5.4210 o         1 0KJ     -0.435000
     11 N20         3.2570    1.3900    5.5210 n4        1 0KJ     -0.639800
     12 C19         4.2870    2.2630    6.2090 c3        1 0KJ      0.141500
     13 C32         3.7650    3.7070    6.2800 c3        1 0KJ     -0.053100
     14 C38         3.3630    4.2220    4.9440 ca        1 0KJ     -0.170300
     15 C37         2.0170    4.4950    4.6700 ca        1 0KJ     -0.136000
     16 C36         1.6490    5.0340    3.4380 ca        1 0KJ     -0.121000
     17 C35         2.6200    5.3040    2.4740 ca        1 0KJ     -0.094000
     18 C34         3.9630    5.0320    2.7430 ca        1 0KJ     -0.121000
     19 C33         4.3360    4.4950    3.9730 ca        1 0KJ     -0.136000
     20 C17         4.6020    1.7020    7.6250 c3        1 0KJ      0.123100
     21 O18         3.3680    1.7590    8.3190 oh        1 0KJ     -0.623800
     22 C16         5.6790    2.5730    8.3040 c3        1 0KJ      0.100800
     23 N11         6.7150    1.8570    9.0550 n3        1 0KJ     -0.910200
     24 C12         7.6100    1.0460    8.2260 c3        1 0KJ      0.108800
     25 C13         8.5220    1.7940    7.2430 c3        1 0KJ     -0.091700
     26 C14         9.2660    2.9250    7.9190 c3        1 0KJ     -0.106100
     27 C15         9.4950    0.7830    6.6420 c3        1 0KJ     -0.074400
     28 C18        10.0660    1.2600    5.3310 c3        1 0KJ     -0.101100
     29 S8          6.0760    0.4980   10.9330 s4        1 0KJ      1.691300
     30 O10         4.7570    0.8020   10.7660 o         1 0KJ     -0.452900
     31 O9          6.6140   -0.6290   10.4040 o         1 0KJ     -0.452900
     32 C5          6.8750    1.2900   11.9930 ca        1 0KJ     -0.641500
     33 C6          8.2470    0.9440   12.2490 ca        1 0KJ     -0.027000
     34 C7          8.9990    1.5600   13.2120 ca        1 0KJ     -0.079000
     35 C4          6.2970    2.3140   12.7820 ca        1 0KJ      0.129000
     36 C3          7.0220    2.9530   13.7640 ca        1 0KJ     -0.200100
     37 S1          6.5850    4.1730   14.8540 ss        1 0KJ      0.167900
     38 C1          8.1430    4.1590   15.5330 cc        1 0KJ      0.400100
     39 N1          9.0210    3.2970   15.0170 nd        1 0KJ     -0.508100
     40 C2          8.4100    2.5830   14.0010 ca        1 0KJ      0.217400
     41 H1          4.7790    2.3710    2.7750 hn        1 0KJ      0.318500
     42 H2          4.4950    0.7680    1.1240 h1        1 0KJ      0.089700
     43 H3          6.6040   -0.0210    0.5960 hc        1 0KJ      0.084700
     44 H4          6.4310   -1.3010    1.8570 hc        1 0KJ      0.084700
     45 H5          8.2310    1.0070    1.9410 hc        1 0KJ      0.106200
     46 H6          7.9120   -0.1550    3.2930 hc        1 0KJ      0.106200
     47 H7          4.7240   -1.5140    3.1510 h1        1 0KJ      0.108200
     48 H8          3.3780   -1.0790    1.9560 h1        1 0KJ      0.108200
     49 H9          2.7830    1.9500    4.7890 hn        1 0KJ      0.487300
     50 H10         5.2340    2.2290    5.5860 hx        1 0KJ      0.139700
     51 H11         4.5950    4.3440    6.6910 hc        1 0KJ      0.094700
     52 H12         2.9090    3.7630    7.0080 hc        1 0KJ      0.094700
     53 H13         1.2480    4.3190    5.4390 ha        1 0KJ      0.146500
     54 H14         0.5900    5.2610    3.2330 ha        1 0KJ      0.159500
     55 H15         2.3300    5.7460    1.5060 ha        1 0KJ      0.164000
     56 H16         4.7330    5.2680    1.9900 ha        1 0KJ      0.159500
     57 H17         5.4010    4.3040    4.1910 ha        1 0KJ      0.146500
     58 H18         4.9390    0.6280    7.5300 h1        1 0KJ      0.078700
     59 H19         3.4810    1.3710    9.1980 ho        1 0KJ      0.460000
     60 H20         6.1770    3.2130    7.5160 h1        1 0KJ      0.086700
     61 H21         5.1470    3.2620    9.0250 h1        1 0KJ      0.086700
     62 H22         6.9900    0.3030    7.6490 h1        1 0KJ      0.076700
     63 H23         8.2640    0.4600    8.9380 h1        1 0KJ      0.076700
     64 H24         7.8930    2.2190    6.4090 hc        1 0KJ      0.071700
     65 H25         8.5820    3.7770    8.1510 hc        1 0KJ      0.046367
     66 H26         9.7480    2.5780    8.8650 hc        1 0KJ      0.046367
     67 H27        10.0690    3.3100    7.2420 hc        1 0KJ      0.046367
     68 H28        10.3260    0.5900    7.3700 hc        1 0KJ      0.048200
     69 H29         8.9640   -0.1920    6.4760 hc        1 0KJ      0.048200
     70 H30        10.7540    0.4860    4.9120 hc        1 0KJ      0.047367
     71 H31        10.6460    2.2050    5.4650 hc        1 0KJ      0.047367
     72 H32         9.2500    1.4530    4.5900 hc        1 0KJ      0.047367
     73 H33         8.6990    0.1330   11.6450 ha        1 0KJ      0.172000
     74 H34        10.0510    1.2720   13.3940 ha        1 0KJ      0.202000
     75 H35         5.2370    2.5880   12.6080 ha        1 0KJ      0.169000
     76 H36         8.4430    4.8200   16.3640 h5        1 0KJ      0.108800
     77 H202        2.5570    1.0950    6.2180 hn        1 0KJ      0.487300
     78 H111        7.2780    2.5710    9.5070 hn        1 0KJ      0.397800
@<TRIPOS>BOND
     1    1    2 2   
     2    2    3 1   
     3    2    6 1   
     4    3    4 1   
     5    3   41 1   
     6    4    5 1   
     7    4    7 1   
     8    4   42 1   
     9    5    6 1   
    10    5   43 1   
    11    5   44 1   
    12    6   45 1   
    13    6   46 1   
    14    7    8 1   
    15    7   47 1   
    16    7   48 1   
    17    8    9 1   
    18    9   10 2   
    19    9   11 1   
    20   11   12 1   
    21   11   49 1   
    22   11   77 1   
    23   12   13 1   
    24   12   20 1   
    25   12   50 1   
    26   13   14 1   
    27   13   51 1   
    28   13   52 1   
    29   14   15 ar  
    30   14   19 ar  
    31   15   16 ar  
    32   15   53 1   
    33   16   17 ar  
    34   16   54 1   
    35   17   18 ar  
    36   17   55 1   
    37   18   19 ar  
    38   18   56 1   
    39   19   57 1   
    40   20   21 1   
    41   20   22 1   
    42   20   58 1   
    43   21   59 1   
    44   22   23 1   
    45   22   60 1   
    46   22   61 1   
    47   23   24 1   
    48   23   78 1   
    49   24   25 1   
    50   24   62 1   
    51   24   63 1   
    52   25   26 1   
    53   25   27 1   
    54   25   64 1   
    55   26   65 1   
    56   26   66 1   
    57   26   67 1   
    58   27   28 1   
    59   27   68 1   
    60   27   69 1   
    61   28   70 1   
    62   28   71 1   
    63   28   72 1   
    64   29   30 1   
    65   29   31 1   
    66   29   32 1   
    67   32   33 ar  
    68   32   35 ar  
    69   33   34 ar  
    70   33   73 1   
    71   34   40 ar  
    72   34   74 1   
    73   35   36 ar  
    74   35   75 1   
    75   36   37 1   
    76   36   40 ar  
    77   37   38 1   
    78   38   39 2   
    79   38   76 1   
    80   39   40 1   
@<TRIPOS>SUBSTRUCTURE
     1 0KJ         1 TEMP              0 ****  ****    0 ROOT
