@<TRIPOS>MOLECULE
0KJ
   76    70     1     0     0
SMALL
bcc


@<TRIPOS>ATOM
      1 O28         4.8010   -2.9820   -4.9760 o         1 0KJ     -0.348000
      2 C27         3.8750   -3.1880   -4.2040 c1        1 0KJ      0.304000
      3 N29         2.6090   -3.4330   -4.5390 n2        1 0KJ     -0.391000
      4 C24         1.8130   -3.0420   -3.3700 c3        1 0KJ     -0.002000
      5 C25         2.8420   -2.8730   -2.1940 c3        1 0KJ     -0.178000
      6 C26         3.9950   -3.4070   -2.6520 c3        1 0KJ     -0.187000
      7 C22         1.1150   -1.7720   -3.6250 c3        1 0KJ     -0.028000
      8 O23        -0.3150   -1.9450   -3.3860 os        1 0KJ     -0.278000
      9 C21        -0.9270   -0.8400   -2.7580 c2        1 0KJ      0.380000
     10 O22        -0.6140    0.2910   -3.0810 o         1 0KJ     -0.402000
     11 N20        -2.0510   -1.0520   -1.8540 n         1 0KJ     -0.333000
     12 C19        -2.4790   -0.0200   -1.0220 c3        1 0KJ     -0.005000
     13 C32        -3.9750   -0.1770   -0.7400 c3        1 0KJ     -0.137000
     14 C38        -4.7990    0.5590   -1.8650 c1        1 0KJ     -0.092000
     15 C37        -5.7360   -0.1430   -2.6160 c1        1 0KJ     -0.127000
     16 C36        -6.5810    0.5480   -3.5090 c1        1 0KJ     -0.127000
     17 C35        -6.4770    1.9260   -3.6370 c1        1 0KJ     -0.127000
     18 C34        -5.5410    2.6230   -2.8860 c1        1 0KJ     -0.127000
     19 C33        -4.6990    1.9380   -1.9970 c1        1 0KJ     -0.123000
     20 C17        -1.6930   -0.0730    0.3110 c3        1 0KJ     -0.001000
     21 O18        -2.5540   -0.4040    1.3430 oh        1 0KJ     -0.333000
     22 C16        -1.0800    1.2640    0.5850 c3        1 0KJ     -0.016000
     23 N11        -0.1230    1.1450    1.7190 n3        1 0KJ     -0.819000
     24 C12         1.3350    0.9910    1.4530 c3        1 0KJ     -0.013000
     25 C13         1.8130    2.1300    0.6010 c3        1 0KJ     -0.119000
     26 C14         2.6860    3.1150    1.4870 c3        1 0KJ     -0.218000
     27 C15         2.6310    1.6050   -0.5180 c3        1 0KJ     -0.158000
     28 C18         2.9520    2.7370   -1.4800 c3        1 0KJ     -0.209000
     29 S8         -0.6890    1.2630    3.3200 s4        1 0KJ      2.060800
     30 O10        -0.7070    2.6270    3.7640 o         1 0KJ     -0.537900
     31 O9         -2.0840    0.9200    3.4060 o         1 0KJ     -0.537900
     32 C5          0.3100    0.2240    4.4210 c1        1 0KJ     -0.815000
     33 C6         -0.2990   -0.9350    4.9810 c2        1 0KJ     -0.021000
     34 C7          0.3590   -1.6580    5.9720 c1        1 0KJ     -0.106000
     35 C4          1.5550    0.6310    4.8620 c1        1 0KJ      0.035000
     36 C3          2.2160   -0.1010    5.8610 c1        1 0KJ     -0.357000
     37 S1          3.6300    0.0360    6.5010 s         1 0KJ      0.444000
     38 C1          3.8070   -1.1150    7.4690 c1        1 0KJ     -0.277000
     39 N1          2.6060   -1.9090    7.4400 n2        1 0KJ     -0.101000
     40 C2          1.6020   -1.2560    6.4150 c1        1 0KJ     -0.005000
     41 H1          2.2960   -3.5590   -5.3740 hn        1 0KJ      0.241000
     42 H2          1.1600   -3.7500   -3.1510 h1        1 0KJ      0.108000
     43 H3          2.5400   -3.3490   -1.4150 hc        1 0KJ      0.109000
     44 H4          2.9660   -1.9210   -1.9850 hc        1 0KJ      0.109000
     45 H5          4.8040   -2.9960   -2.2750 hc        1 0KJ      0.121500
     46 H6          4.1060   -4.3730   -2.3910 hc        1 0KJ      0.121500
     47 H7          1.4680   -1.0740   -3.0190 h1        1 0KJ      0.116000
     48 H8          1.2580   -1.5010   -4.5490 h1        1 0KJ      0.116000
     49 H9         -2.5310   -1.8420   -1.8940 hn        1 0KJ      0.242000
     50 H10        -2.3210    0.8290   -1.4550 h1        1 0KJ      0.103000
     51 H11        -4.1830    0.2160    0.1230 hc        1 0KJ      0.114000
     52 H12        -4.2070   -1.1160   -0.7310 hc        1 0KJ      0.114000
     53 H13        -5.8050   -1.0770   -2.5290 ha        1 0KJ      0.135250
     54 H14        -7.2680    0.0370   -4.0590 ha        1 0KJ      0.135250
     55 H15        -7.0810    2.4210   -4.2760 ha        1 0KJ      0.135250
     56 H16        -5.4690    3.5850   -2.9750 ha        1 0KJ      0.135250
     57 H17        -4.0290    2.4400   -1.4610 ha        1 0KJ      0.133000
     58 H18        -0.9870   -0.7460    0.2480 h1        1 0KJ      0.110000
     59 H19        -2.4530   -1.2390    1.5450 ho        1 0KJ      0.212000
     60 H20        -1.7630    1.8840    0.8090 h1        1 0KJ      0.113500
     61 H21        -0.6150    1.5710   -0.1970 h1        1 0KJ      0.113500
     62 H22         1.8300    0.9970    2.3160 h1        1 0KJ      0.089000
     63 H23         1.5010    0.1200    0.9770 h1        1 0KJ      0.089000
     64 H24         1.0640    2.5990    0.2490 hc        1 0KJ      0.089000
     65 H25         3.3510    2.5830    2.0170 hc        1 0KJ      0.083333
     66 H26         3.1810    3.7770    0.8790 hc        1 0KJ      0.083333
     67 H27         2.0830    3.6250    2.1200 hc        1 0KJ      0.083333
     68 H28         3.4660    1.2270   -0.1660 hc        1 0KJ      0.081500
     69 H29         2.1340    0.9120   -0.9860 hc        1 0KJ      0.081500
     70 H30         2.9270    2.4020   -2.4000 hc        1 0KJ      0.073667
     71 H31         2.2910    3.4520   -1.3740 hc        1 0KJ      0.073667
     72 H32         3.8280    3.0810   -1.2880 hc        1 0KJ      0.073667
     73 H33        -1.1860   -1.1430    4.7680 ha        1 0KJ      0.170000
     74 H34        -0.0690   -2.4660    6.3630 ha        1 0KJ      0.158000
     75 H35         1.9450    1.4570    4.5250 ha        1 0KJ      0.165000
     76 H36         4.6340   -1.3120    8.0080 DU        1 0KJ      0.196000
@<TRIPOS>BOND
     1    1    2 1   
     2    2    6 1   
     3    3    4 1   
     4    3   41 1   
     5    4    5 1   
     6    4    7 1   
     7    4   42 1   
     8    5    6 1   
     9    5   43 1   
    10    5   44 1   
    11    6   45 1   
    12    6   46 1   
    13    7    8 1   
    14    7   47 1   
    15    7   48 1   
    16    8    9 1   
    17    9   10 1   
    18    9   11 1   
    19   11   12 1   
    20   11   49 1   
    21   12   13 1   
    22   12   20 1   
    23   12   50 1   
    24   13   14 1   
    25   13   51 1   
    26   13   52 1   
    27   14   19 1   
    28   15   16 1   
    29   15   53 1   
    30   16   54 1   
    31   17   18 1   
    32   17   55 1   
    33   18   56 1   
    34   19   57 1   
    35   20   21 1   
    36   20   22 1   
    37   20   58 1   
    38   21   59 1   
    39   22   23 1   
    40   22   60 1   
    41   22   61 1   
    42   23   24 1   
    43   23   29 1   
    44   24   25 1   
    45   24   62 1   
    46   24   63 1   
    47   25   26 1   
    48   25   27 1   
    49   25   64 1   
    50   26   65 1   
    51   26   66 1   
    52   26   67 1   
    53   27   28 1   
    54   27   68 1   
    55   27   69 1   
    56   28   70 1   
    57   28   71 1   
    58   28   72 1   
    59   29   30 1   
    60   29   31 1   
    61   32   33 1   
    62   32   35 1   
    63   33   34 1   
    64   33   73 1   
    65   34   74 1   
    66   35   75 1   
    67   36   40 1   
    68   37   38 1   
    69   38   39 1   
    70   39   40 1   
@<TRIPOS>SUBSTRUCTURE
     1 0KJ         1 TEMP              0 ****  ****    0 ROOT
