@<TRIPOS>MOLECULE
0KJ
   78    80     1     0     0
SMALL
bcc


@<TRIPOS>ATOM
      1 O28         7.0910    2.3140    4.1030 o         1 0KJ     -0.616500
      2 C27         6.6300    1.5030    3.2890 c         1 0KJ      0.687500
      3 N29         5.2480    1.4880    2.9720 n         1 0KJ     -0.594900
      4 C24         4.9440    0.3690    2.0830 c3        1 0KJ      0.031700
      5 C25         6.2940   -0.3150    1.7270 c3        1 0KJ     -0.096400
      6 C26         7.3520    0.3710    2.5870 c3        1 0KJ     -0.165400
      7 C22         3.9900   -0.6520    2.7440 c3        1 0KJ      0.139400
      8 O23         3.1460   -0.0290    3.7490 os        1 0KJ     -0.386900
      9 C21         3.7690    0.2690    4.9160 c         1 0KJ      0.644100
     10 O22         4.6150   -0.4230    5.4640 o         1 0KJ     -0.435000
     11 N20         3.2310    1.5220    5.5200 n4        1 0KJ     -0.639800
     12 C19         4.3050    2.3510    6.1950 c3        1 0KJ      0.141500
     13 C32         3.8630    3.8220    6.2350 c3        1 0KJ     -0.053100
     14 C38         3.4940    4.3320    4.8880 ca        1 0KJ     -0.170300
     15 C37         2.1660    4.6730    4.6040 ca        1 0KJ     -0.135500
     16 C36         1.8310    5.2070    3.3590 ca        1 0KJ     -0.121000
     17 C35         2.8190    5.4030    2.3930 ca        1 0KJ     -0.094000
     18 C34         4.1440    5.0630    2.6720 ca        1 0KJ     -0.121000
     19 C33         4.4830    4.5310    3.9150 ca        1 0KJ     -0.135500
     20 C17         4.5850    1.8020    7.6230 c3        1 0KJ      0.123100
     21 O18         3.3540    1.9400    8.3100 oh        1 0KJ     -0.623800
     22 C16         5.7060    2.6270    8.2890 c3        1 0KJ      0.100800
     23 N11         6.6990    1.8710    9.0590 n3        1 0KJ     -0.910200
     24 C12         7.5500    0.9940    8.2500 c3        1 0KJ      0.108800
     25 C13         8.5040    1.6690    7.2560 c3        1 0KJ     -0.091700
     26 C14         9.3070    2.7720    7.9100 c3        1 0KJ     -0.106100
     27 C15         9.4210    0.5940    6.6790 c3        1 0KJ     -0.074400
     28 C18        10.0220    1.0110    5.3620 c3        1 0KJ     -0.101100
     29 S8          5.9810    0.5900   10.9620 s4        1 0KJ      1.691300
     30 O10         4.6800    0.9600   10.7830 o         1 0KJ     -0.452900
     31 O9          6.4580   -0.5770   10.4610 o         1 0KJ     -0.452900
     32 C5          6.8170    1.3590   12.0090 ca        1 0KJ     -0.641500
     33 C6          8.1670    0.9460   12.2790 ca        1 0KJ     -0.027000
     34 C7          8.9490    1.5410   13.2310 ca        1 0KJ     -0.079000
     35 C4          6.2930    2.4310   12.7730 ca        1 0KJ      0.129000
     36 C3          7.0480    3.0510   13.7440 ca        1 0KJ     -0.200100
     37 S1          6.6740    4.3170   14.8050 ss        1 0KJ      0.167900
     38 C1          8.2280    4.2330   15.4910 cc        1 0KJ      0.400100
     39 N1          9.0590    3.3140   14.9990 nd        1 0KJ     -0.508100
     40 C2          8.4140    2.6120   13.9950 ca        1 0KJ      0.217400
     41 H1          4.8130    2.3620    2.7610 hn        1 0KJ      0.318500
     42 H2          4.4460    0.7430    1.1420 h1        1 0KJ      0.089700
     43 H3          6.5100   -0.1710    0.6390 hc        1 0KJ      0.084700
     44 H4          6.2610   -1.4140    1.9240 hc        1 0KJ      0.084700
     45 H5          8.1870    0.7920    1.9690 hc        1 0KJ      0.106200
     46 H6          7.8000   -0.3230    3.3420 hc        1 0KJ      0.106200
     47 H7          4.5420   -1.5060    3.2160 h1        1 0KJ      0.108200
     48 H8          3.2260   -1.0220    2.0070 h1        1 0KJ      0.108200
     49 H9          2.7910    2.0920    4.7750 hn        1 0KJ      0.487300
     50 H10         5.2510    2.2520    5.5760 hx        1 0KJ      0.139700
     51 H11         3.0100    3.9400    6.9590 hc        1 0KJ      0.094700
     52 H12         4.7260    4.4220    6.6360 hc        1 0KJ      0.094700
     53 H13         1.3870    4.5560    5.3730 ha        1 0KJ      0.146500
     54 H14         0.7870    5.4890    3.1460 ha        1 0KJ      0.159500
     55 H15         2.5550    5.8410    1.4160 ha        1 0KJ      0.164000
     56 H16         4.9270    5.2400    1.9180 ha        1 0KJ      0.159500
     57 H17         5.5360    4.2850    4.1400 ha        1 0KJ      0.146500
     58 H18         4.8630    0.7100    7.5510 h1        1 0KJ      0.078700
     59 H19         3.4430    1.5650    9.1980 ho        1 0KJ      0.460000
     60 H20         6.2410    3.2220    7.4900 h1        1 0KJ      0.086700
     61 H21         5.2110    3.3590    8.9930 h1        1 0KJ      0.086700
     62 H22         8.1690    0.3880    8.9770 h1        1 0KJ      0.076700
     63 H23         6.8910    0.2740    7.6870 h1        1 0KJ      0.076700
     64 H24         7.9020    2.1100    6.4100 hc        1 0KJ      0.071700
     65 H25         8.6710    3.6650    8.1210 hc        1 0KJ      0.046367
     66 H26         9.7680    2.4200    8.8650 hc        1 0KJ      0.046367
     67 H27        10.1320    3.0980    7.2280 hc        1 0KJ      0.046367
     68 H28         8.8380   -0.3540    6.5320 hc        1 0KJ      0.048200
     69 H29        10.2390    0.3700    7.4150 hc        1 0KJ      0.048200
     70 H30        10.6670    0.1910    4.9620 hc        1 0KJ      0.047367
     71 H31         9.2200    1.2330    4.6130 hc        1 0KJ      0.047367
     72 H32        10.6530    1.9250    5.4780 hc        1 0KJ      0.047367
     73 H33         8.5770    0.0980   11.6950 ha        1 0KJ      0.172000
     74 H34         9.9820    1.2000   13.4250 ha        1 0KJ      0.202000
     75 H35         5.2500    2.7590   12.5880 ha        1 0KJ      0.169000
     76 H36         8.5590    4.8960   16.3090 h5        1 0KJ      0.108800
     77 H202        2.5130    1.2800    6.2200 hn        1 0KJ      0.487300
     78 H111        7.2990    2.5620    9.4970 hn        1 0KJ      0.397800
@<TRIPOS>BOND
     1    1    2 2   
     2    2    3 1   
     3    2    6 1   
     4    3    4 1   
     5    3   41 1   
     6    4    5 1   
     7    4    7 1   
     8    4   42 1   
     9    5    6 1   
    10    5   43 1   
    11    5   44 1   
    12    6   45 1   
    13    6   46 1   
    14    7    8 1   
    15    7   47 1   
    16    7   48 1   
    17    8    9 1   
    18    9   10 2   
    19    9   11 1   
    20   11   12 1   
    21   11   49 1   
    22   11   77 1   
    23   12   13 1   
    24   12   20 1   
    25   12   50 1   
    26   13   14 1   
    27   13   51 1   
    28   13   52 1   
    29   14   15 ar  
    30   14   19 ar  
    31   15   16 ar  
    32   15   53 1   
    33   16   17 ar  
    34   16   54 1   
    35   17   18 ar  
    36   17   55 1   
    37   18   19 ar  
    38   18   56 1   
    39   19   57 1   
    40   20   21 1   
    41   20   22 1   
    42   20   58 1   
    43   21   59 1   
    44   22   23 1   
    45   22   60 1   
    46   22   61 1   
    47   23   24 1   
    48   23   78 1   
    49   24   25 1   
    50   24   62 1   
    51   24   63 1   
    52   25   26 1   
    53   25   27 1   
    54   25   64 1   
    55   26   65 1   
    56   26   66 1   
    57   26   67 1   
    58   27   28 1   
    59   27   68 1   
    60   27   69 1   
    61   28   70 1   
    62   28   71 1   
    63   28   72 1   
    64   29   30 1   
    65   29   31 1   
    66   29   32 1   
    67   32   33 ar  
    68   32   35 ar  
    69   33   34 ar  
    70   33   73 1   
    71   34   40 ar  
    72   34   74 1   
    73   35   36 ar  
    74   35   75 1   
    75   36   37 1   
    76   36   40 ar  
    77   37   38 1   
    78   38   39 2   
    79   38   76 1   
    80   39   40 1   
@<TRIPOS>SUBSTRUCTURE
     1 0KJ         1 TEMP              0 ****  ****    0 ROOT
