@<TRIPOS>MOLECULE
0KJ
   78    80     1     0     0
SMALL
bcc


@<TRIPOS>ATOM
      1 O28         7.0950    2.3120    4.1040 o         1 0KJ     -0.616500
      2 C27         6.6560    1.4830    3.2960 c         1 0KJ      0.687500
      3 N29         5.2760    1.4310    2.9750 ns        1 0KJ     -0.594900
      4 C24         5.0020    0.2970    2.0960 c3        1 0KJ      0.031700
      5 C25         6.3690   -0.3580    1.7510 c3        1 0KJ     -0.096400
      6 C26         7.4080    0.3620    2.6070 c3        1 0KJ     -0.165400
      7 C22         4.0710   -0.7410    2.7640 c3        1 0KJ      0.139400
      8 O23         3.2080   -0.1290    3.7600 os        1 0KJ     -0.386900
      9 C21         3.8210    0.1950    4.9260 c         1 0KJ      0.644100
     10 O22         4.6820   -0.4710    5.4830 o         1 0KJ     -0.435000
     11 N20         3.2500    1.4400    5.5170 ny        1 0KJ     -0.639800
     12 C19         4.3020    2.3000    6.1880 c3        1 0KJ      0.141500
     13 C32         3.8250    3.7610    6.2130 c3        1 0KJ     -0.053100
     14 C38         3.4480    4.2490    4.8590 ca        1 0KJ     -0.170300
     15 C37         2.1130    4.5550    4.5680 ca        1 0KJ     -0.135500
     16 C36         1.7690    5.0690    3.3180 ca        1 0KJ     -0.121000
     17 C35         2.7540    5.2800    2.3530 ca        1 0KJ     -0.094000
     18 C34         4.0870    4.9740    2.6390 ca        1 0KJ     -0.121000
     19 C33         4.4350    4.4630    3.8870 ca        1 0KJ     -0.135500
     20 C17         4.5910    1.7720    7.6210 c3        1 0KJ      0.123100
     21 O18         3.3550    1.8870    8.3040 oh        1 0KJ     -0.623800
     22 C16         5.6890    2.6300    8.2830 c3        1 0KJ      0.100800
     23 N11         6.6970    1.9060    9.0630 n7        1 0KJ     -0.910200
     24 C12         7.5720    1.0420    8.2650 c3        1 0KJ      0.108800
     25 C13         8.5130    1.7310    7.2670 c3        1 0KJ     -0.091700
     26 C14         9.2870    2.8590    7.9140 c3        1 0KJ     -0.106100
     27 C15         9.4580    0.6730    6.7040 c3        1 0KJ     -0.074400
     28 C18        10.0530    1.0920    5.3840 c3        1 0KJ     -0.101100
     29 S8          6.0050    0.6250   10.9770 s4        1 0KJ      1.691300
     30 O10         4.6960    0.9610   10.7890 o         1 0KJ     -0.452900
     31 O9          6.5140   -0.5330   10.4890 o         1 0KJ     -0.452900
     32 C5          6.8170    1.4270   12.0180 ca        1 0KJ     -0.641500
     33 C6          8.1760    1.0510   12.2980 ca        1 0KJ     -0.027000
     34 C7          8.9380    1.6760   13.2470 ca        1 0KJ     -0.079000
     35 C4          6.2630    2.4920   12.7690 ca        1 0KJ      0.129000
     36 C3          6.9970    3.1420   13.7370 ca        1 0KJ     -0.200100
     37 S1          6.5870    4.4080   14.7840 ss        1 0KJ      0.167900
     38 C1          8.1390    4.3710   15.4760 cc        1 0KJ      0.400100
     39 N1          8.9960    3.4680   14.9970 nd        1 0KJ     -0.508100
     40 C2          8.3730    2.7400   13.9980 ca        1 0KJ      0.217400
     41 H1          4.8210    2.2920    2.7550 hn        1 0KJ      0.318500
     42 H2          4.4980    0.6490    1.1500 h1        1 0KJ      0.089700
     43 H3          6.5850   -0.2190    0.6620 hc        1 0KJ      0.084700
     44 H4          6.3630   -1.4550    1.9580 hc        1 0KJ      0.084700
     45 H5          7.8700   -0.3140    3.3700 hc        1 0KJ      0.106200
     46 H6          8.2340    0.7970    1.9880 hc        1 0KJ      0.106200
     47 H7          4.6420   -1.5770    3.2450 h1        1 0KJ      0.108200
     48 H8          3.3180   -1.1360    2.0280 h1        1 0KJ      0.108200
     49 H9          2.7990    1.9920    4.7660 hn        1 0KJ      0.487300
     50 H10         5.2530    2.2190    5.5720 hx        1 0KJ      0.139700
     51 H11         2.9670    3.8650    6.9330 hc        1 0KJ      0.094700
     52 H12         4.6710    4.3850    6.6100 hc        1 0KJ      0.094700
     53 H13         1.3340    4.4270    5.3360 ha        1 0KJ      0.146500
     54 H14         0.7190    5.3240    3.0990 ha        1 0KJ      0.159500
     55 H15         2.4830    5.7020    1.3710 ha        1 0KJ      0.164000
     56 H16         4.8680    5.1630    1.8850 ha        1 0KJ      0.159500
     57 H17         5.4920    4.2450    4.1180 ha        1 0KJ      0.146500
     58 H18         4.8960    0.6860    7.5610 h1        1 0KJ      0.078700
     59 H19         3.4490    1.5200    9.1950 ho        1 0KJ      0.460000
     60 H20         5.1740    3.3560    8.9780 h1        1 0KJ      0.086700
     61 H21         6.2120    3.2310    7.4800 h1        1 0KJ      0.086700
     62 H22         8.2040    0.4580    9.0000 h1        1 0KJ      0.076700
     63 H23         6.9330    0.3010    7.7070 h1        1 0KJ      0.076700
     64 H24         7.9030    2.1490    6.4150 hc        1 0KJ      0.071700
     65 H25         8.6290    3.7390    8.1140 hc        1 0KJ      0.046367
     66 H26         9.7530    2.5270    8.8730 hc        1 0KJ      0.046367
     67 H27        10.1060    3.1990    7.2310 hc        1 0KJ      0.046367
     68 H28         8.8980   -0.2900    6.5640 hc        1 0KJ      0.048200
     69 H29        10.2780    0.4760    7.4440 hc        1 0KJ      0.048200
     70 H30        10.6610    2.0220    5.4940 hc        1 0KJ      0.047367
     71 H31         9.2480    1.2880    4.6310 hc        1 0KJ      0.047367
     72 H32        10.7190    0.2840    4.9940 hc        1 0KJ      0.047367
     73 H33         8.6100    0.2080   11.7240 ha        1 0KJ      0.172000
     74 H34         9.9800    1.3630   13.4480 ha        1 0KJ      0.202000
     75 H35         5.2130    2.7910   12.5770 ha        1 0KJ      0.169000
     76 H36         8.4510    5.0500   16.2890 h5        1 0KJ      0.108800
     77 H202        2.5370    1.1870    6.2180 hn        1 0KJ      0.487300
     78 H111        7.2790    2.6150    9.4970 hn        1 0KJ      0.397800
@<TRIPOS>BOND
     1    1    2 2   
     2    2    3 1   
     3    2    6 1   
     4    3    4 1   
     5    3   41 1   
     6    4    5 1   
     7    4    7 1   
     8    4   42 1   
     9    5    6 1   
    10    5   43 1   
    11    5   44 1   
    12    6   45 1   
    13    6   46 1   
    14    7    8 1   
    15    7   47 1   
    16    7   48 1   
    17    8    9 1   
    18    9   10 2   
    19    9   11 1   
    20   11   12 1   
    21   11   49 1   
    22   11   77 1   
    23   12   13 1   
    24   12   20 1   
    25   12   50 1   
    26   13   14 1   
    27   13   51 1   
    28   13   52 1   
    29   14   15 ar  
    30   14   19 ar  
    31   15   16 ar  
    32   15   53 1   
    33   16   17 ar  
    34   16   54 1   
    35   17   18 ar  
    36   17   55 1   
    37   18   19 ar  
    38   18   56 1   
    39   19   57 1   
    40   20   21 1   
    41   20   22 1   
    42   20   58 1   
    43   21   59 1   
    44   22   23 1   
    45   22   60 1   
    46   22   61 1   
    47   23   24 1   
    48   23   78 1   
    49   24   25 1   
    50   24   62 1   
    51   24   63 1   
    52   25   26 1   
    53   25   27 1   
    54   25   64 1   
    55   26   65 1   
    56   26   66 1   
    57   26   67 1   
    58   27   28 1   
    59   27   68 1   
    60   27   69 1   
    61   28   70 1   
    62   28   71 1   
    63   28   72 1   
    64   29   30 1   
    65   29   31 1   
    66   29   32 1   
    67   32   33 ar  
    68   32   35 ar  
    69   33   34 ar  
    70   33   73 1   
    71   34   40 ar  
    72   34   74 1   
    73   35   36 ar  
    74   35   75 1   
    75   36   37 1   
    76   36   40 ar  
    77   37   38 1   
    78   38   39 2   
    79   38   76 1   
    80   39   40 1   
@<TRIPOS>SUBSTRUCTURE
     1 0KJ         1 TEMP              0 ****  ****    0 ROOT
