@<TRIPOS>MOLECULE
0KK
   35    37     1     0     0
SMALL
bcc


@<TRIPOS>ATOM
      1 O1         -0.0670   -0.2600    0.0330 o         1 0KK     -0.591500
      2 C1          1.1570   -0.1020   -0.0150 c         1 0KK      0.700500
      3 C2          2.1570    0.0120    1.1900 c3        1 0KK      0.225800
      4 N1          3.4880    0.1080    0.5330 nh        1 0KK     -0.808200
      5 C3          3.2950    0.1390   -0.9120 c2        1 0KK      0.617800
      6 N2          1.8910    0.0260   -1.2000 n         1 0KK     -0.404300
      7 N3          4.1970    0.1980   -1.8450 n2        1 0KK     -0.824100
      8 C4          1.3880   -0.2180   -2.5150 c3        1 0KK      0.098300
      9 C5          1.8710    1.2310    2.0440 ca        1 0KK     -0.099800
     10 C6          0.7740    2.0670    1.8200 ca        1 0KK     -0.107250
     11 C7          0.5680    3.1830    2.6310 ca        1 0KK     -0.133750
     12 C8          1.4520    3.4730    3.6690 ca        1 0KK     -0.118000
     13 C9          2.5460    2.6370    3.9010 ca        1 0KK     -0.133750
     14 C10         2.7540    1.5210    3.0940 ca        1 0KK     -0.107250
     15 C11         2.0160   -1.2330    2.0450 ca        1 0KK     -0.099800
     16 C12         3.1020   -2.0550    2.3630 ca        1 0KK     -0.107250
     17 C13         2.9170   -3.1750    3.1750 ca        1 0KK     -0.133750
     18 C14         1.6530   -3.4820    3.6760 ca        1 0KK     -0.118000
     19 C15         0.5680   -2.6650    3.3610 ca        1 0KK     -0.133750
     20 C16         0.7460   -1.5460    2.5520 ca        1 0KK     -0.107250
     21 H1          5.1360    0.2840   -1.5220 hn        1 0KK      0.407400
     22 H3          1.6730    0.6340   -3.1890 h1        1 0KK      0.057033
     23 H4          1.8170   -1.1670   -2.9360 h1        1 0KK      0.057033
     24 H5          0.2690   -0.3020   -2.4620 h1        1 0KK      0.057033
     25 H6          0.0550    1.8490    1.0130 ha        1 0KK      0.148750
     26 H7         -0.3000    3.8340    2.4480 ha        1 0KK      0.135250
     27 H8          1.2870    4.3540    4.3060 ha        1 0KK      0.134000
     28 H9          3.2420    2.8560    4.7240 ha        1 0KK      0.135250
     29 H10         3.6050    0.8510    3.2950 ha        1 0KK      0.148750
     30 H11         4.1110   -1.8390    1.9800 ha        1 0KK      0.148750
     31 H12         3.7760   -3.8170    3.4170 ha        1 0KK      0.135250
     32 H13         1.5120   -4.3660    4.3150 ha        1 0KK      0.134000
     33 H14        -0.4330   -2.9020    3.7500 ha        1 0KK      0.135250
     34 H15        -0.1150   -0.9070    2.2950 ha        1 0KK      0.148750
     35 H16         4.0270    0.8820    0.8680 hn        1 0KK      0.403800
@<TRIPOS>BOND
     1    1    2 2   
     2    2    3 1   
     3    2    6 1   
     4    3    4 1   
     5    3    9 1   
     6    3   15 1   
     7    4    5 1   
     8    4   35 1   
     9    5    6 1   
    10    5    7 2   
    11    6    8 1   
    12    7   21 1   
    13    8   22 1   
    14    8   23 1   
    15    8   24 1   
    16    9   10 ar  
    17    9   14 ar  
    18   10   11 ar  
    19   10   25 1   
    20   11   12 ar  
    21   11   26 1   
    22   12   13 ar  
    23   12   27 1   
    24   13   14 ar  
    25   13   28 1   
    26   14   29 1   
    27   15   16 ar  
    28   15   20 ar  
    29   16   17 ar  
    30   16   30 1   
    31   17   18 ar  
    32   17   31 1   
    33   18   19 ar  
    34   18   32 1   
    35   19   20 ar  
    36   19   33 1   
    37   20   34 1   
@<TRIPOS>SUBSTRUCTURE
     1 0KK         1 TEMP              0 ****  ****    0 ROOT
