@<TRIPOS>MOLECULE
0KK
   35    37     1     0     0
SMALL
bcc


@<TRIPOS>ATOM
      1 O1         -0.0840   -0.2790    0.0600 o         1 0KK     -0.591500
      2 C1          1.1380   -0.1120   -0.0040 c         1 0KK      0.700500
      3 C2          2.1530    0.0130    1.1870 c3        1 0KK      0.225800
      4 N1          3.4750    0.1170    0.5120 nu        1 0KK     -0.808200
      5 C3          3.2610    0.1430   -0.9300 c2        1 0KK      0.617800
      6 N2          1.8550    0.0180   -1.2000 n         1 0KK     -0.404300
      7 N3          4.1510    0.2060   -1.8750 n2        1 0KK     -0.824100
      8 C4          1.3370   -0.2330   -2.5070 c3        1 0KK      0.098300
      9 C5          1.8690    1.2320    2.0410 ca        1 0KK     -0.099800
     10 C6          0.7630    2.0590    1.8290 ca        1 0KK     -0.107250
     11 C7          0.5590    3.1760    2.6410 ca        1 0KK     -0.133750
     12 C8          1.4540    3.4750    3.6660 ca        1 0KK     -0.118000
     13 C9          2.5570    2.6480    3.8850 ca        1 0KK     -0.133750
     14 C10         2.7630    1.5320    3.0800 ca        1 0KK     -0.107250
     15 C11         2.0330   -1.2310    2.0470 ca        1 0KK     -0.099800
     16 C12         3.1300   -2.0430    2.3530 ca        1 0KK     -0.107250
     17 C13         2.9640   -3.1620    3.1710 ca        1 0KK     -0.133750
     18 C14         1.7100   -3.4780    3.6890 ca        1 0KK     -0.118000
     19 C15         0.6140   -2.6700    3.3860 ca        1 0KK     -0.133750
     20 C16         0.7720   -1.5520    2.5710 ca        1 0KK     -0.107250
     21 H1          5.0940    0.3000   -1.5650 hn        1 0KK      0.407400
     22 H3          1.6060    0.6190   -3.1870 h1        1 0KK      0.057033
     23 H4          0.2200   -0.3260   -2.4380 h1        1 0KK      0.057033
     24 H5          1.7670   -1.1800   -2.9300 h1        1 0KK      0.057033
     25 H6          0.0350    1.8330    1.0330 ha        1 0KK      0.148750
     26 H7         -0.3170    3.8190    2.4670 ha        1 0KK      0.135250
     27 H8          1.2900    4.3570    4.3030 ha        1 0KK      0.134000
     28 H9          3.2620    2.8750    4.6990 ha        1 0KK      0.135250
     29 H10         3.6220    0.8690    3.2710 ha        1 0KK      0.148750
     30 H11         4.1320   -1.8200    1.9570 ha        1 0KK      0.148750
     31 H12         3.8320   -3.7970    3.4040 ha        1 0KK      0.135250
     32 H13         1.5840   -4.3610    4.3320 ha        1 0KK      0.134000
     33 H14        -0.3800   -2.9150    3.7890 ha        1 0KK      0.135250
     34 H15        -0.0970   -0.9210    2.3240 ha        1 0KK      0.148750
     35 H16         4.0110    0.8970    0.8380 hn        1 0KK      0.403800
@<TRIPOS>BOND
     1    1    2 2   
     2    2    3 1   
     3    2    6 1   
     4    3    4 1   
     5    3    9 1   
     6    3   15 1   
     7    4    5 1   
     8    4   35 1   
     9    5    6 1   
    10    5    7 2   
    11    6    8 1   
    12    7   21 1   
    13    8   22 1   
    14    8   23 1   
    15    8   24 1   
    16    9   10 ar  
    17    9   14 ar  
    18   10   11 ar  
    19   10   25 1   
    20   11   12 ar  
    21   11   26 1   
    22   12   13 ar  
    23   12   27 1   
    24   13   14 ar  
    25   13   28 1   
    26   14   29 1   
    27   15   16 ar  
    28   15   20 ar  
    29   16   17 ar  
    30   16   30 1   
    31   17   18 ar  
    32   17   31 1   
    33   18   19 ar  
    34   18   32 1   
    35   19   20 ar  
    36   19   33 1   
    37   20   34 1   
@<TRIPOS>SUBSTRUCTURE
     1 0KK         1 TEMP              0 ****  ****    0 ROOT
