@<TRIPOS>MOLECULE
0KK
   35    37     1     0     0
SMALL
bcc


@<TRIPOS>ATOM
      1 O1         -0.2690    0.8530   -2.2660 o         1 0KK     -0.592500
      2 C1         -0.0270    1.1910   -1.1030 c         1 0KK      0.706500
      3 C2          0.0090    0.2810    0.1750 c3        1 0KK      0.227800
      4 N1          0.2020    1.2470    1.2900 nh        1 0KK     -0.764200
      5 C3          0.4820    2.5530    0.7300 c2        1 0KK      0.627800
      6 N2          0.2840    2.4950   -0.7010 n         1 0KK     -0.453300
      7 N3          0.8220    3.5730    1.4580 n2        1 0KK     -0.825100
      8 C4          0.1760    3.6590   -1.5170 c3        1 0KK      0.085300
      9 C5         -1.3110   -0.4590    0.2710 ca        1 0KK     -0.101800
     10 C6         -1.6840   -1.2780   -0.8050 ca        1 0KK     -0.106750
     11 C7         -2.8750   -1.9980   -0.7610 ca        1 0KK     -0.133500
     12 C8         -3.7070   -1.9090    0.3550 ca        1 0KK     -0.118000
     13 C9         -3.3410   -1.0950    1.4250 ca        1 0KK     -0.133500
     14 C10        -2.1480   -0.3700    1.3870 ca        1 0KK     -0.106750
     15 C11         1.1380   -0.7280    0.1090 ca        1 0KK     -0.101800
     16 C12         1.3800   -1.5250    1.2370 ca        1 0KK     -0.106750
     17 C13         2.4150   -2.4580    1.2310 ca        1 0KK     -0.133500
     18 C14         3.2150   -2.6070    0.0970 ca        1 0KK     -0.118000
     19 C15         2.9710   -1.8240   -1.0300 ca        1 0KK     -0.133500
     20 C16         1.9370   -0.8870   -1.0270 ca        1 0KK     -0.106750
     21 H1          0.9170    4.4370    0.9700 hn        1 0KK      0.403400
     22 H3         -0.6360    4.3380   -1.1390 h1        1 0KK      0.053367
     23 H4          1.1490    4.2200   -1.5110 h1        1 0KK      0.053367
     24 H5         -0.0640    3.3480   -2.5690 h1        1 0KK      0.053367
     25 H6         -1.0330   -1.3380   -1.6930 ha        1 0KK      0.149000
     26 H7         -3.1590   -2.6350   -1.6120 ha        1 0KK      0.135500
     27 H8         -4.6470   -2.4770    0.3900 ha        1 0KK      0.134000
     28 H9         -3.9940   -1.0170    2.3070 ha        1 0KK      0.135500
     29 H10        -1.8890    0.2690    2.2450 ha        1 0KK      0.149000
     30 H11         0.7380   -1.4280    2.1270 ha        1 0KK      0.149000
     31 H12         2.5980   -3.0790    2.1200 ha        1 0KK      0.135500
     32 H13         4.0320   -3.3430    0.0920 ha        1 0KK      0.134000
     33 H14         3.5930   -1.9430   -1.9290 ha        1 0KK      0.135500
     34 H15         1.7520   -0.2880   -1.9330 ha        1 0KK      0.149000
     35 H16         0.8750    0.9510    1.9690 hn        1 0KK      0.421800
@<TRIPOS>BOND
     1    1    2 2   
     2    2    3 1   
     3    2    6 1   
     4    3    4 1   
     5    3    9 1   
     6    3   15 1   
     7    4    5 1   
     8    4   35 1   
     9    5    6 1   
    10    5    7 2   
    11    6    8 1   
    12    7   21 1   
    13    8   22 1   
    14    8   23 1   
    15    8   24 1   
    16    9   10 ar  
    17    9   14 ar  
    18   10   11 ar  
    19   10   25 1   
    20   11   12 ar  
    21   11   26 1   
    22   12   13 ar  
    23   12   27 1   
    24   13   14 ar  
    25   13   28 1   
    26   14   29 1   
    27   15   16 ar  
    28   15   20 ar  
    29   16   17 ar  
    30   16   30 1   
    31   17   18 ar  
    32   17   31 1   
    33   18   19 ar  
    34   18   32 1   
    35   19   20 ar  
    36   19   33 1   
    37   20   34 1   
@<TRIPOS>SUBSTRUCTURE
     1 0KK         1 TEMP              0 ****  ****    0 ROOT
