@<TRIPOS>MOLECULE
0KK
   35    30     1     0     0
SMALL
bcc


@<TRIPOS>ATOM
      1 O1         -2.0630    0.2160   -1.5100 o         1 0KK     -0.316000
      2 C1         -0.8440    0.1790   -1.5210 c1        1 0KK      0.308000
      3 C2          0.0590    0.1780   -0.3020 c2        1 0KK      0.103000
      4 N1          1.3240    0.5560   -0.8620 n3        1 0KK     -0.293000
      5 C3          1.3140    0.2160   -2.2440 c2        1 0KK      0.171000
      6 N2         -0.0250    0.1610   -2.6670 n3        1 0KK     -0.293000
      7 N3          2.3540   -0.0040   -2.9810 n1        1 0KK     -0.292000
      8 C4         -0.4800    0.1780   -4.0280 c3        1 0KK     -0.057000
      9 C5         -0.3330    1.2730    0.7430 c2        1 0KK     -0.105000
     10 C6         -1.6590    1.4240    1.1230 c1        1 0KK     -0.109000
     11 C7         -2.0030    2.3580    2.1020 c1        1 0KK     -0.124167
     12 C8         -1.0140    3.1390    2.6990 c1        1 0KK     -0.124167
     13 C9          0.3130    2.9890    2.3180 c1        1 0KK     -0.131000
     14 C10         0.6570    2.0550    1.3390 c2        1 0KK     -0.116000
     15 C11         0.1740   -1.2040    0.3400 c1        1 0KK     -0.080000
     16 C12        -0.7020   -2.2170   -0.0280 c1        1 0KK     -0.124167
     17 C13        -0.6240   -3.4640    0.5890 c1        1 0KK     -0.124167
     18 C14         0.3290   -3.6920    1.5720 c1        1 0KK     -0.124167
     19 C15         1.2040   -2.6810    1.9400 c1        1 0KK     -0.124167
     20 C16         1.1270   -1.4350    1.3240 c1        1 0KK     -0.099000
     21 H1          3.1850    0.0550   -2.6210 DU        1 0KK      0.163000
     22 H3          0.1320    0.7400   -4.5750 h1        1 0KK      0.096333
     23 H4         -0.4880   -0.7380   -4.3820 h1        1 0KK      0.096333
     24 H5         -1.3880    0.5510   -4.0660 h1        1 0KK      0.096333
     25 H6         -2.3530    0.8760    0.7060 ha        1 0KK      0.154000
     26 H7         -2.9470    2.4640    2.3730 ha        1 0KK      0.138167
     27 H8         -1.2570    3.7980    3.3900 ha        1 0KK      0.138167
     28 H9          1.0080    3.5370    2.7360 ha        1 0KK      0.136000
     29 H10         1.5880    1.9490    1.0730 ha        1 0KK      0.140000
     30 H11        -1.3760   -2.0550   -0.7240 ha        1 0KK      0.138167
     31 H12        -1.2420   -4.1790    0.3290 ha        1 0KK      0.138167
     32 H13         0.3840   -4.5710    2.0070 ha        1 0KK      0.138167
     33 H14         1.8760   -2.8430    2.6330 ha        1 0KK      0.138167
     34 H15         1.7460   -0.7200    1.5850 ha        1 0KK      0.145000
     35 H16         2.0250    0.9080   -0.4060 hn        1 0KK      0.199000
@<TRIPOS>BOND
     1    1    2 1   
     2    2    6 1   
     3    3    4 1   
     4    3    9 1   
     5    3   15 1   
     6    4    5 1   
     7    4   35 1   
     8    5    6 1   
     9    5    7 1   
    10    6    8 1   
    11    8   22 1   
    12    8   23 1   
    13    8   24 1   
    14    9   10 1   
    15    9   14 1   
    16   10   25 1   
    17   11   12 1   
    18   11   26 1   
    19   12   27 1   
    20   13   14 1   
    21   13   28 1   
    22   14   29 1   
    23   15   20 1   
    24   16   17 1   
    25   16   30 1   
    26   17   31 1   
    27   18   19 1   
    28   18   32 1   
    29   19   33 1   
    30   20   34 1   
@<TRIPOS>SUBSTRUCTURE
     1 0KK         1 TEMP              0 ****  ****    0 ROOT
