@<TRIPOS>MOLECULE
0KK
   35    37     1     0     0
SMALL
bcc


@<TRIPOS>ATOM
      1 O1         -0.0870   -0.2670    0.0630 o         1 0KK     -0.591500
      2 C1          1.1350   -0.1070   -0.0030 c         1 0KK      0.700500
      3 C2          2.1530    0.0120    1.1870 c3        1 0KK      0.225800
      4 N1          3.4740    0.1100    0.5100 nh        1 0KK     -0.808200
      5 C3          3.2590    0.1380   -0.9310 c2        1 0KK      0.617800
      6 N2          1.8520    0.0210   -1.1990 n         1 0KK     -0.404300
      7 N3          4.1470    0.1960   -1.8780 n2        1 0KK     -0.824100
      8 C4          1.3300   -0.2270   -2.5060 c3        1 0KK      0.098300
      9 C5          1.8770    1.2320    2.0420 ca        1 0KK     -0.099800
     10 C6          0.7750    2.0650    1.8320 ca        1 0KK     -0.107250
     11 C7          0.5780    3.1830    2.6450 ca        1 0KK     -0.133750
     12 C8          1.4760    3.4760    3.6690 ca        1 0KK     -0.118000
     13 C9          2.5740    2.6430    3.8870 ca        1 0KK     -0.133750
     14 C10         2.7740    1.5260    3.0800 ca        1 0KK     -0.107250
     15 C11         2.0270   -1.2320    2.0460 ca        1 0KK     -0.099800
     16 C12         3.1190   -2.0500    2.3500 ca        1 0KK     -0.107250
     17 C13         2.9490   -3.1690    3.1670 ca        1 0KK     -0.133750
     18 C14         1.6940   -3.4790    3.6860 ca        1 0KK     -0.118000
     19 C15         0.6020   -2.6640    3.3860 ca        1 0KK     -0.133750
     20 C16         0.7650   -1.5470    2.5720 ca        1 0KK     -0.107250
     21 H1          5.0910    0.2850   -1.5690 hn        1 0KK      0.407400
     22 H3          0.2120   -0.3130   -2.4360 h1        1 0KK      0.057033
     23 H4          1.6030    0.6250   -3.1860 h1        1 0KK      0.057033
     24 H5          1.7540   -1.1760   -2.9310 h1        1 0KK      0.057033
     25 H6          0.0450    1.8440    1.0370 ha        1 0KK      0.148750
     26 H7         -0.2940    3.8320    2.4730 ha        1 0KK      0.135250
     27 H8          1.3180    4.3580    4.3070 ha        1 0KK      0.134000
     28 H9          3.2820    2.8650    4.7000 ha        1 0KK      0.135250
     29 H10         3.6290    0.8580    3.2690 ha        1 0KK      0.148750
     30 H11         4.1220   -1.8330    1.9530 ha        1 0KK      0.148750
     31 H12         3.8140   -3.8090    3.3980 ha        1 0KK      0.135250
     32 H13         1.5640   -4.3620    4.3290 ha        1 0KK      0.134000
     33 H14        -0.3930   -2.9040    3.7900 ha        1 0KK      0.135250
     34 H15        -0.1010   -0.9110    2.3260 ha        1 0KK      0.148750
     35 H16         4.0150    0.8860    0.8360 hn        1 0KK      0.403800
@<TRIPOS>BOND
     1    1    2 2   
     2    2    3 1   
     3    2    6 1   
     4    3    4 1   
     5    3    9 1   
     6    3   15 1   
     7    4    5 1   
     8    4   35 1   
     9    5    6 1   
    10    5    7 2   
    11    6    8 1   
    12    7   21 1   
    13    8   22 1   
    14    8   23 1   
    15    8   24 1   
    16    9   10 ar  
    17    9   14 ar  
    18   10   11 ar  
    19   10   25 1   
    20   11   12 ar  
    21   11   26 1   
    22   12   13 ar  
    23   12   27 1   
    24   13   14 ar  
    25   13   28 1   
    26   14   29 1   
    27   15   16 ar  
    28   15   20 ar  
    29   16   17 ar  
    30   16   30 1   
    31   17   18 ar  
    32   17   31 1   
    33   18   19 ar  
    34   18   32 1   
    35   19   20 ar  
    36   19   33 1   
    37   20   34 1   
@<TRIPOS>SUBSTRUCTURE
     1 0KK         1 TEMP              0 ****  ****    0 ROOT
