@<TRIPOS>MOLECULE
0KL
   53    54     1     0     0
SMALL
bcc


@<TRIPOS>ATOM
      1 O3G         0.0000    0.0000    0.0000 o         1 0KL     -0.486500
      2 PG          1.6100    0.0000    0.0000 p5        1 0KL      0.880900
      3 O2G         2.1460    0.0000    1.5180 o         1 0KL     -0.486500
      4 O1G         2.1020   -1.2090   -0.6960 o         1 0KL     -0.486500
      5 O3B         2.1480    1.3130   -0.7600 os        1 0KL     -0.493800
      6 PB          3.5470    1.7130   -1.4480 p5        1 0KL      1.084800
      7 O1B         4.6330    2.0390   -0.3060 o         1 0KL     -0.557500
      8 O2B         4.0280    0.5860   -2.2790 o         1 0KL     -0.557500
      9 O3A         3.3360    3.0120   -2.3760 os        1 0KL     -0.500800
     10 PA          4.1590    3.6560   -3.6000 p5        1 0KL      0.977800
     11 O1A         3.8140    2.8590   -4.9570 o         1 0KL     -0.684500
     12 O2A         5.6100    3.5590   -3.3260 o         1 0KL     -0.684500
     13 O5'         3.7470    5.2040   -3.7680 os        1 0KL     -0.489200
     14 C5'         4.3790    6.0810   -4.7030 c3        1 0KL      0.254400
     15 C4'         3.7510    7.4720   -4.6030 c3        1 0KL      0.201100
     16 C3'         4.3310    8.4040   -5.6890 c3        1 0KL      0.149100
     17 O3'         3.4450    8.4810   -6.8090 oh        1 0KL     -0.571800
     18 C2'         4.4390    9.7770   -4.9880 c3        1 0KL     -0.154400
     19 O4'         4.1090    8.0970   -3.3510 os        1 0KL     -0.343600
     20 C1'         3.9100    9.5110   -3.5610 c3        1 0KL      0.253500
     21 N1          4.6770   10.2860   -2.5810 n         1 0KL      0.059000
     22 C2          5.9790   10.0140   -2.4040 c         1 0KL      0.569500
     23 O2          6.4940    9.1310   -3.0630 o         1 0KL     -0.675500
     24 N3          6.7320   10.6910   -1.5200 ns        1 0KL     -0.161500
     25 C6          4.0530   11.2710   -1.8730 cc        1 0KL     -0.164400
     26 C5          4.7650   11.9940   -0.9590 cd        1 0KL     -0.083900
     27 C4          6.1890   11.6780   -0.7760 c         1 0KL      0.638700
     28 O4          6.8650   12.2940    0.0260 o         1 0KL     -0.686500
     29 C29         4.1400   13.0350   -0.1990 ch        1 0KL     -0.206300
     30 C30         3.6460   13.8950    0.4310 c1        1 0KL     -0.205100
     31 C31         2.4450   14.7940    1.2680 c3        1 0KL      0.189700
     32 C32         1.2530   14.1920    1.4670 c3        1 0KL     -0.178400
     33 C33        -0.0780   14.9990    2.1260 c3        1 0KL      0.085800
     34 N34        -1.4160   14.7180    1.5440 nz        1 0KL     -0.530600
     35 H5          4.7580    5.3250   -5.3810 h1        1 0KL     -0.007300
     36 H6          5.3330    6.5870   -4.6190 h1        1 0KL     -0.007300
     37 H7          2.6730    7.4130   -4.6970 h1        1 0KL      0.018700
     38 H8          5.3110    8.0600   -5.9970 h1        1 0KL      0.027700
     39 H9          3.9900    8.8640   -7.4760 ho        1 0KL      0.364000
     40 H10         4.2580   10.5740   -5.6990 hc        1 0KL      0.029200
     41 H11         5.4710   10.0040   -4.7500 hc        1 0KL      0.029200
     42 H12         2.8560    9.7550   -3.5010 h2        1 0KL      0.019700
     43 H13         7.5500   10.1530   -1.3130 hn        1 0KL      0.200500
     44 H14         2.9700   11.2740   -1.8770 h4        1 0KL      0.137000
     45 H15         2.3300   15.6990    0.6840 hc        1 0KL     -0.023800
     46 H16         2.9370   15.0420    2.2010 hc        1 0KL     -0.023800
     47 H17         1.3710   13.1420    1.7040 hc        1 0KL     -0.007300
     48 H18         0.9410   13.8700    0.4810 hc        1 0KL     -0.007300
     49 H19         0.0780   14.7040    3.1560 hx        1 0KL     -0.013300
     50 H20         0.3400   15.9900    1.9980 hx        1 0KL     -0.013300
     51 H21        -1.7820   15.6470    1.4830 hn        1 0KL      0.107800
     52 H22        -1.4980   13.7840    1.8940 hn        1 0KL      0.107800
     53 H343       -1.1400   14.6630    0.5840 hn        1 0KL      0.107800
@<TRIPOS>BOND
     1    1    2 1   
     2    2    3 1   
     3    2    4 1   
     4    2    5 1   
     5    5    6 1   
     6    6    7 1   
     7    6    8 1   
     8    6    9 1   
     9    9   10 1   
    10   10   11 1   
    11   10   12 1   
    12   10   13 1   
    13   13   14 1   
    14   14   15 1   
    15   14   35 1   
    16   14   36 1   
    17   15   16 1   
    18   15   19 1   
    19   15   37 1   
    20   16   17 1   
    21   16   18 1   
    22   16   38 1   
    23   17   39 1   
    24   18   20 1   
    25   18   40 1   
    26   18   41 1   
    27   19   20 1   
    28   20   21 1   
    29   20   42 1   
    30   21   22 1   
    31   21   25 1   
    32   22   23 2   
    33   22   24 1   
    34   24   27 1   
    35   24   43 1   
    36   25   26 2   
    37   25   44 1   
    38   26   27 1   
    39   26   29 1   
    40   27   28 2   
    41   29   30 3   
    42   30   31 1   
    43   31   32 1   
    44   31   45 1   
    45   31   46 1   
    46   32   33 1   
    47   32   47 1   
    48   32   48 1   
    49   33   34 1   
    50   33   49 1   
    51   33   50 1   
    52   34   51 1   
    53   34   52 1   
    54   34   53 1   
@<TRIPOS>SUBSTRUCTURE
     1 0KL         1 TEMP              0 ****  ****    0 ROOT
