@<TRIPOS>MOLECULE
0KM
   49    52     1     0     0
SMALL
bcc


@<TRIPOS>ATOM
      1 O1         -3.7530    0.0650   -1.8540 o         1 0KM     -0.592500
      2 C1         -3.2820    0.8060   -0.9870 c         1 0KM      0.705500
      3 C2         -2.0530    0.5310   -0.0500 c3        1 0KM      0.228800
      4 N1         -2.0460    1.6970    0.8750 nh        1 0KM     -0.764200
      5 C3         -3.0100    2.6690    0.4030 c2        1 0KM      0.627800
      6 N2         -3.7680    2.0820   -0.6790 n         1 0KM     -0.453300
      7 N3         -3.1370    3.8480    0.9330 n2        1 0KM     -0.826100
      8 C4         -4.9870    2.6410   -1.1650 c3        1 0KM      0.085300
      9 C5         -2.2900   -0.7810    0.6730 ca        1 0KM     -0.090300
     10 C6         -2.3050   -0.8840    2.0670 ca        1 0KM     -0.100000
     11 C7         -2.5060   -2.1250    2.6740 ca        1 0KM     -0.137500
     12 C8         -2.6910   -3.2680    1.8990 ca        1 0KM     -0.118000
     13 C9         -2.6790   -3.1690    0.5070 ca        1 0KM     -0.137500
     14 C10        -2.4790   -1.9340   -0.1040 ca        1 0KM     -0.100000
     15 C11        -0.7610    0.4360   -0.8380 ca        1 0KM     -0.114300
     16 C12        -0.7330    0.4590   -2.2350 ca        1 0KM     -0.108000
     17 C13         0.4860    0.3780   -2.9080 ca        1 0KM     -0.130000
     18 C14         1.6800    0.2720   -2.2000 ca        1 0KM     -0.105000
     19 C15         1.6640    0.2420   -0.7970 cp        1 0KM     -0.036000
     20 C16         0.4390    0.3220   -0.1250 ca        1 0KM     -0.104000
     21 C17         5.3130   -0.0880    1.4070 ca        1 0KM     -0.199000
     22 C18         3.9210   -0.7320   -0.4930 ca        1 0KM     -0.144000
     23 C19         2.9130    0.1250   -0.0450 cp        1 0KM     -0.010000
     24 C20         3.1070    0.8730    1.1280 ca        1 0KM     -0.153000
     25 C21         4.2970    0.7630    1.8410 ca        1 0KM     -0.095000
     26 C22         5.1190   -0.8340    0.2380 ca        1 0KM      0.124100
     27 O2          6.0460   -1.7080   -0.2960 os        1 0KM     -0.327900
     28 C23         7.2600   -1.8560    0.4310 c3        1 0KM      0.113700
     29 H1         -3.8840    4.4020    0.5730 hn        1 0KM      0.403400
     30 H3         -5.7270    2.7720   -0.3300 h1        1 0KM      0.053367
     31 H4         -4.7870    3.6430   -1.6320 h1        1 0KM      0.053367
     32 H5         -5.4220    1.9530   -1.9390 h1        1 0KM      0.053367
     33 H6         -2.1660    0.0010    2.7070 ha        1 0KM      0.151500
     34 H7         -2.5180   -2.1960    3.7720 ha        1 0KM      0.134000
     35 H8         -2.8480   -4.2440    2.3810 ha        1 0KM      0.132000
     36 H9         -2.8280   -4.0660   -0.1120 ha        1 0KM      0.134000
     37 H10        -2.4820   -1.8530   -1.2040 ha        1 0KM      0.151500
     38 H11        -1.6660    0.5270   -2.8170 ha        1 0KM      0.153000
     39 H12         0.5010    0.3960   -4.0080 ha        1 0KM      0.139000
     40 H13         2.6390    0.2150   -2.7370 ha        1 0KM      0.142000
     41 H14         0.4210    0.2670    0.9760 ha        1 0KM      0.146000
     42 H16         3.7920   -1.3360   -1.4030 ha        1 0KM      0.153000
     43 H17         2.3170    1.5530    1.4780 ha        1 0KM      0.135000
     44 H18         4.4420    1.3540    2.7570 ha        1 0KM      0.134000
     45 H19         7.8340   -2.6050   -0.1720 h1        1 0KM      0.044700
     46 H20         7.8100   -0.8850    0.4800 h1        1 0KM      0.044700
     47 H21         7.0610   -2.2460    1.4580 h1        1 0KM      0.044700
     48 H22        -1.1360    2.0820    1.0320 hn        1 0KM      0.420800
     49 H15         6.2460   -0.1640    1.9810 ha        1 0KM      0.139000
@<TRIPOS>BOND
     1    1    2 2   
     2    2    3 1   
     3    2    6 1   
     4    3    4 1   
     5    3    9 1   
     6    3   15 1   
     7    4    5 1   
     8    4   48 1   
     9    5    6 1   
    10    5    7 2   
    11    6    8 1   
    12    7   29 1   
    13    8   30 1   
    14    8   31 1   
    15    8   32 1   
    16    9   10 ar  
    17    9   14 ar  
    18   10   11 ar  
    19   10   33 1   
    20   11   12 ar  
    21   11   34 1   
    22   12   13 ar  
    23   12   35 1   
    24   13   14 ar  
    25   13   36 1   
    26   14   37 1   
    27   15   16 ar  
    28   15   20 ar  
    29   16   17 ar  
    30   16   38 1   
    31   17   18 ar  
    32   17   39 1   
    33   18   19 ar  
    34   18   40 1   
    35   19   20 ar  
    36   19   23 1   
    37   20   41 1   
    38   21   25 ar  
    39   21   26 ar  
    40   21   49 1   
    41   22   23 ar  
    42   22   26 ar  
    43   22   42 1   
    44   23   24 ar  
    45   24   25 ar  
    46   24   43 1   
    47   25   44 1   
    48   26   27 1   
    49   27   28 1   
    50   28   45 1   
    51   28   46 1   
    52   28   47 1   
@<TRIPOS>SUBSTRUCTURE
     1 0KM         1 TEMP              0 ****  ****    0 ROOT
