@<TRIPOS>MOLECULE
0KM
   49    52     1     0     0
SMALL
bcc


@<TRIPOS>ATOM
      1 O1         -0.1970    0.5690    0.3660 o         1 0KM     -0.591500
      2 C1          0.9730    0.3840    0.0170 c         1 0KM      0.700500
      3 C2          2.1680   -0.1270    0.8980 c3        1 0KM      0.225800
      4 N1          3.3320   -0.0770   -0.0280 nh        1 0KM     -0.808200
      5 C3          2.8640    0.3380   -1.3440 c2        1 0KM      0.617800
      6 N2          1.4510    0.5900   -1.2830 n         1 0KM     -0.404300
      7 N3          3.5610    0.5280   -2.4240 n2        1 0KM     -0.824100
      8 C4          0.7330    1.2400   -2.3340 c3        1 0KM      0.098300
      9 C5          2.3220    0.8080    2.0810 ca        1 0KM     -0.088300
     10 C6          3.5270    1.4480    2.3830 ca        1 0KM     -0.101500
     11 C7          3.6170    2.2800    3.5000 ca        1 0KM     -0.137000
     12 C8          2.5110    2.4780    4.3230 ca        1 0KM     -0.119000
     13 C9          1.3060    1.8400    4.0260 ca        1 0KM     -0.137000
     14 C10         1.2100    1.0100    2.9130 ca        1 0KM     -0.101500
     15 C11         1.9270   -1.5340    1.4080 ca        1 0KM     -0.113300
     16 C12         0.7330   -2.2220    1.1790 ca        1 0KM     -0.106000
     17 C13         0.5750   -3.5210    1.6650 ca        1 0KM     -0.130000
     18 C14         1.5980   -4.1390    2.3780 ca        1 0KM     -0.105000
     19 C15         2.8000   -3.4570    2.6180 cp        1 0KM     -0.038000
     20 C16         2.9550   -2.1540    2.1310 ca        1 0KM     -0.104000
     21 C17         5.9550   -5.3270    4.8150 ca        1 0KM     -0.199000
     22 C18         3.5770   -4.8780    4.4920 ca        1 0KM     -0.144000
     23 C19         3.8770   -4.0970    3.3730 cp        1 0KM     -0.009000
     24 C20         5.2150   -3.9320    2.9780 ca        1 0KM     -0.154000
     25 C21         6.2370   -4.5440    3.6950 ca        1 0KM     -0.095000
     26 C22         4.6220   -5.4890    5.2080 ca        1 0KM      0.125100
     27 O2          4.2120   -6.2390    6.2950 os        1 0KM     -0.326900
     28 C23         5.2440   -6.8520    7.0590 c3        1 0KM      0.113700
     29 H1          4.5310    0.3100   -2.3480 hn        1 0KM      0.407400
     30 H3         -0.3400    1.3490   -2.0220 h1        1 0KM      0.057033
     31 H4          1.1690    2.2540   -2.5450 h1        1 0KM      0.057033
     32 H5          0.7960    0.6210   -3.2690 h1        1 0KM      0.057033
     33 H6          4.4180    1.3140    1.7510 ha        1 0KM      0.150000
     34 H7          4.5690    2.7820    3.7280 ha        1 0KM      0.133500
     35 H8          2.5860    3.1340    5.2030 ha        1 0KM      0.132000
     36 H9          0.4270    1.9930    4.6700 ha        1 0KM      0.133500
     37 H10         0.2540    0.5150    2.6740 ha        1 0KM      0.150000
     38 H11        -0.0960   -1.7480    0.6290 ha        1 0KM      0.155000
     39 H12        -0.3680   -4.0580    1.4820 ha        1 0KM      0.140000
     40 H13         1.4680   -5.1660    2.7530 ha        1 0KM      0.142000
     41 H14         3.8850   -1.6010    2.3410 ha        1 0KM      0.146000
     42 H16         2.5400   -5.0140    4.8290 ha        1 0KM      0.153000
     43 H17         5.4510   -3.3230    2.0940 ha        1 0KM      0.133000
     44 H18         7.2830   -4.4120    3.3780 ha        1 0KM      0.134000
     45 H19         4.6850   -7.3800    7.8730 h1        1 0KM      0.044700
     46 H20         5.9300   -6.0820    7.4870 h1        1 0KM      0.044700
     47 H21         5.8150   -7.5820    6.4350 h1        1 0KM      0.044700
     48 H22         3.8400   -0.9400   -0.0510 hn        1 0KM      0.402800
     49 H15         6.7740   -5.8030    5.3700 ha        1 0KM      0.139000
@<TRIPOS>BOND
     1    1    2 2   
     2    2    3 1   
     3    2    6 1   
     4    3    4 1   
     5    3    9 1   
     6    3   15 1   
     7    4    5 1   
     8    4   48 1   
     9    5    6 1   
    10    5    7 2   
    11    6    8 1   
    12    7   29 1   
    13    8   30 1   
    14    8   31 1   
    15    8   32 1   
    16    9   10 ar  
    17    9   14 ar  
    18   10   11 ar  
    19   10   33 1   
    20   11   12 ar  
    21   11   34 1   
    22   12   13 ar  
    23   12   35 1   
    24   13   14 ar  
    25   13   36 1   
    26   14   37 1   
    27   15   16 ar  
    28   15   20 ar  
    29   16   17 ar  
    30   16   38 1   
    31   17   18 ar  
    32   17   39 1   
    33   18   19 ar  
    34   18   40 1   
    35   19   20 ar  
    36   19   23 1   
    37   20   41 1   
    38   21   25 ar  
    39   21   26 ar  
    40   21   49 1   
    41   22   23 ar  
    42   22   26 ar  
    43   22   42 1   
    44   23   24 ar  
    45   24   25 ar  
    46   24   43 1   
    47   25   44 1   
    48   26   27 1   
    49   27   28 1   
    50   28   45 1   
    51   28   46 1   
    52   28   47 1   
@<TRIPOS>SUBSTRUCTURE
     1 0KM         1 TEMP              0 ****  ****    0 ROOT
