@<TRIPOS>MOLECULE
0KM
   49    52     1     0     0
SMALL
bcc


@<TRIPOS>ATOM
      1 O1         -0.0130   -0.0970   -0.1070 o         1 0KM     -0.591500
      2 C1          1.2140    0.0350   -0.0690 c         1 0KM      0.701500
      3 C2          2.1440    0.0100    1.1960 c3        1 0KM      0.226800
      4 N1          3.5130    0.1360    0.6270 nu        1 0KM     -0.809200
      5 C3          3.4050    0.3130   -0.8160 c2        1 0KM      0.617800
      6 N2          2.0190    0.2590   -1.1930 n         1 0KM     -0.404300
      7 N3          4.3610    0.4410   -1.6860 n2        1 0KM     -0.824100
      8 C4          1.5890    0.1580   -2.5520 c3        1 0KM      0.099300
      9 C5          1.8310    1.1500    2.1440 ca        1 0KM     -0.114300
     10 C6          2.6480    1.3080    3.2740 ca        1 0KM     -0.112000
     11 C7          2.4140    2.3480    4.1700 ca        1 0KM     -0.130000
     12 C8          1.3610    3.2370    3.9500 ca        1 0KM     -0.117000
     13 C9          0.5430    3.0780    2.8340 ca        1 0KM     -0.130000
     14 C10         0.7750    2.0390    1.9310 ca        1 0KM     -0.112000
     15 C11         1.9320   -1.3060    1.9200 ca        1 0KM     -0.088300
     16 C12         0.6270   -1.6480    2.3030 ca        1 0KM     -0.102000
     17 C13         0.3890   -2.8320    2.9960 ca        1 0KM     -0.134000
     18 C14         1.4440   -3.6830    3.3190 ca        1 0KM     -0.105000
     19 C15         2.7510   -3.3530    2.9420 cp        1 0KM     -0.051000
     20 C16         2.9890   -2.1600    2.2420 ca        1 0KM     -0.086000
     21 C17         6.0070   -5.9560    3.8960 ca        1 0KM     -0.202000
     22 C18         3.9170   -4.8600    4.5250 ca        1 0KM     -0.147000
     23 C19         3.8640   -4.2420    3.2730 cp        1 0KM     -0.006000
     24 C20         4.8820   -4.4830    2.3350 ca        1 0KM     -0.154000
     25 C21         5.9380   -5.3320    2.6500 ca        1 0KM     -0.097000
     26 C22         4.9920   -5.7150    4.8290 ca        1 0KM      0.122100
     27 O2          4.9450   -6.2700    6.0950 os        1 0KM     -0.328900
     28 C23         6.0140   -7.1450    6.4350 c3        1 0KM      0.113700
     29 H1          5.2810    0.4750   -1.3040 hn        1 0KM      0.407400
     30 H3          1.9270    1.0660   -3.1200 h1        1 0KM      0.057033
     31 H4          2.0250   -0.7540   -3.0410 h1        1 0KM      0.057033
     32 H5          0.4680    0.0950   -2.5700 h1        1 0KM      0.057033
     33 H6          3.4650    0.5940    3.4620 ha        1 0KM      0.147500
     34 H7          3.0580    2.4630    5.0550 ha        1 0KM      0.137500
     35 H8          1.1770    4.0580    4.6590 ha        1 0KM      0.136000
     36 H9         -0.2930    3.7720    2.6590 ha        1 0KM      0.137500
     37 H10         0.1080    1.9230    1.0620 ha        1 0KM      0.147500
     38 H11        -0.2120   -0.9820    2.0430 ha        1 0KM      0.158000
     39 H12        -0.6380   -3.0960    3.2880 ha        1 0KM      0.137000
     40 H13         1.2510   -4.6200    3.8650 ha        1 0KM      0.139000
     41 H14         4.0250   -1.9150    1.9600 ha        1 0KM      0.150000
     42 H16         3.1370   -4.6840    5.2790 ha        1 0KM      0.152000
     43 H17         4.8360   -4.0030    1.3470 ha        1 0KM      0.140000
     44 H18         6.7290   -5.5180    1.9080 ha        1 0KM      0.133000
     45 H19         6.0380   -8.0250    5.7480 h1        1 0KM      0.044367
     46 H20         5.7650   -7.4650    7.4790 h1        1 0KM      0.044367
     47 H21         6.9900   -6.6030    6.4120 h1        1 0KM      0.044367
     48 H22         4.0470    0.8580    1.0680 hn        1 0KM      0.403800
     49 H15         6.8470   -6.6230    4.1280 ha        1 0KM      0.137000
@<TRIPOS>BOND
     1    1    2 2   
     2    2    3 1   
     3    2    6 1   
     4    3    4 1   
     5    3    9 1   
     6    3   15 1   
     7    4    5 1   
     8    4   48 1   
     9    5    6 1   
    10    5    7 2   
    11    6    8 1   
    12    7   29 1   
    13    8   30 1   
    14    8   31 1   
    15    8   32 1   
    16    9   10 ar  
    17    9   14 ar  
    18   10   11 ar  
    19   10   33 1   
    20   11   12 ar  
    21   11   34 1   
    22   12   13 ar  
    23   12   35 1   
    24   13   14 ar  
    25   13   36 1   
    26   14   37 1   
    27   15   16 ar  
    28   15   20 ar  
    29   16   17 ar  
    30   16   38 1   
    31   17   18 ar  
    32   17   39 1   
    33   18   19 ar  
    34   18   40 1   
    35   19   20 ar  
    36   19   23 1   
    37   20   41 1   
    38   21   25 ar  
    39   21   26 ar  
    40   21   49 1   
    41   22   23 ar  
    42   22   26 ar  
    43   22   42 1   
    44   23   24 ar  
    45   24   25 ar  
    46   24   43 1   
    47   25   44 1   
    48   26   27 1   
    49   27   28 1   
    50   28   45 1   
    51   28   46 1   
    52   28   47 1   
@<TRIPOS>SUBSTRUCTURE
     1 0KM         1 TEMP              0 ****  ****    0 ROOT
