@<TRIPOS>MOLECULE
0KM
   49    42     1     0     0
SMALL
bcc


@<TRIPOS>ATOM
      1 O1         -2.3790    1.2320   -2.7490 o         1 0KM     -0.317000
      2 C1         -1.1650    1.3550   -2.6340 c1        1 0KM      0.308000
      3 C2         -0.3990    1.5450   -1.3270 c2        1 0KM      0.103000
      4 N1          0.9500    1.2490   -1.7060 n3        1 0KM     -0.293000
      5 C3          1.0690    1.4590   -3.1290 c2        1 0KM      0.171000
      6 N2         -0.2290    1.3760   -3.6930 n3        1 0KM     -0.293000
      7 N3          2.1860    1.6880   -3.7890 n1        1 0KM     -0.292000
      8 C4         -0.5380    1.3480   -5.0940 c3        1 0KM     -0.056000
      9 C5         -0.4770    2.9390   -0.6850 c1        1 0KM     -0.081000
     10 C6          0.4940    3.3360    0.2260 c1        1 0KM     -0.099000
     11 C7          0.4640    4.6340    0.7610 c1        1 0KM     -0.122667
     12 C8         -0.5450    5.5270    0.3760 c1        1 0KM     -0.122667
     13 C9         -1.5150    5.1300   -0.5350 c1        1 0KM     -0.122667
     14 C10        -1.4860    3.8340   -1.0700 c1        1 0KM     -0.122667
     15 C11        -0.8720    0.6750   -0.1200 c1        1 0KM     -0.106000
     16 C12        -2.1650    0.8270    0.3910 c1        1 0KM     -0.122667
     17 C13        -2.6080    0.0020    1.4130 c1        1 0KM     -0.122667
     18 C14        -1.7780   -0.9640    1.9230 c1        1 0KM     -0.105000
     19 C15        -0.4780   -1.1160    1.4080 c1        1 0KM     -0.038000
     20 C16        -0.0390   -0.2950    0.3910 c2        1 0KM     -0.105000
     21 C17         2.0640   -4.2190    2.8540 c1        1 0KM     -0.199000
     22 C18         0.3520   -3.4760    1.3570 c1        1 0KM     -0.146000
     23 C19         0.4080   -2.2070    1.9230 c1        1 0KM     -0.012000
     24 C20         1.2880   -1.9500    2.9480 c2        1 0KM     -0.152000
     25 C21         2.1180   -2.9530    3.4170 c1        1 0KM     -0.096000
     26 C22         1.1820   -4.4800    1.8250 c1        1 0KM      0.078000
     27 O2          1.1980   -5.7540    1.1820 os        1 0KM     -0.211000
     28 C23         0.9740   -6.8380    2.0600 c3        1 0KM     -0.076000
     29 H1          2.9830    1.7260   -3.3420 DU        1 0KM      0.163000
     30 H3          0.0840    0.7160   -5.5630 h1        1 0KM      0.096333
     31 H4         -0.4300    2.2710   -5.4780 h1        1 0KM      0.096333
     32 H5         -1.4760    1.0450   -5.2210 h1        1 0KM      0.096333
     33 H6          1.2240    2.6890    0.5040 ha        1 0KM      0.145000
     34 H7          1.1550    4.9180    1.4090 ha        1 0KM      0.141667
     35 H8         -0.5670    6.4550    0.7590 ha        1 0KM      0.141667
     36 H9         -2.2300    5.7630   -0.8070 ha        1 0KM      0.141667
     37 H10        -2.1830    3.5490   -1.7230 ha        1 0KM      0.141667
     38 H11        -2.7400    1.4980    0.0380 ha        1 0KM      0.141667
     39 H12        -3.5280    0.1110    1.7770 ha        1 0KM      0.141667
     40 H13        -2.1030   -1.5660    2.6710 ha        1 0KM      0.142000
     41 H14         0.8540   -0.3980    0.0390 ha        1 0KM      0.145000
     42 H15         2.6670   -4.9450    3.1950 ha        1 0KM      0.138000
     43 H16        -0.2700   -3.6580    0.6340 ha        1 0KM      0.152000
     44 H17         1.3280   -1.0540    3.3450 ha        1 0KM      0.140000
     45 H18         2.7550   -2.7650    4.1600 ha        1 0KM      0.134000
     46 H19         1.8190   -7.0870    2.4970 h1        1 0KM      0.084333
     47 H20         0.6390   -7.5840    1.5670 h1        1 0KM      0.084333
     48 H21         0.3120   -6.5740    2.7480 h1        1 0KM      0.084333
     49 H22         1.6380    0.9870   -1.1300 hn        1 0KM      0.200000
@<TRIPOS>BOND
     1    1    2 1   
     2    2    6 1   
     3    3    4 1   
     4    3    9 1   
     5    3   15 1   
     6    4    5 1   
     7    4   49 1   
     8    5    6 1   
     9    5    7 1   
    10    6    8 1   
    11    8   30 1   
    12    8   31 1   
    13    8   32 1   
    14    9   10 1   
    15   10   33 1   
    16   11   12 1   
    17   11   34 1   
    18   12   35 1   
    19   13   14 1   
    20   13   36 1   
    21   14   37 1   
    22   15   20 1   
    23   16   17 1   
    24   16   38 1   
    25   17   39 1   
    26   18   19 1   
    27   18   40 1   
    28   19   20 1   
    29   20   41 1   
    30   21   26 1   
    31   21   42 1   
    32   22   23 1   
    33   22   43 1   
    34   23   24 1   
    35   24   25 1   
    36   24   44 1   
    37   25   45 1   
    38   26   27 1   
    39   27   28 1   
    40   28   46 1   
    41   28   47 1   
    42   28   48 1   
@<TRIPOS>SUBSTRUCTURE
     1 0KM         1 TEMP              0 ****  ****    0 ROOT
