@<TRIPOS>MOLECULE
0KM
   49    52     1     0     0
SMALL
bcc


@<TRIPOS>ATOM
      1 O1         -0.0060   -0.0880   -0.1130 o         1 0KM     -0.591500
      2 C1          1.2220    0.0400   -0.0740 c         1 0KM      0.701500
      3 C2          2.1500    0.0100    1.1920 c3        1 0KM      0.226800
      4 N1          3.5200    0.1310    0.6240 nh        1 0KM     -0.809200
      5 C3          3.4130    0.3090   -0.8190 c2        1 0KM      0.617800
      6 N2          2.0280    0.2600   -1.1970 n         1 0KM     -0.404300
      7 N3          4.3700    0.4340   -1.6890 n2        1 0KM     -0.824100
      8 C4          1.5980    0.1620   -2.5570 c3        1 0KM      0.099300
      9 C5          1.8410    1.1510    2.1400 ca        1 0KM     -0.114300
     10 C6          2.6580    1.3060    3.2710 ca        1 0KM     -0.112000
     11 C7          2.4270    2.3460    4.1670 ca        1 0KM     -0.130000
     12 C8          1.3780    3.2400    3.9460 ca        1 0KM     -0.117000
     13 C9          0.5610    3.0850    2.8290 ca        1 0KM     -0.130000
     14 C10         0.7890    2.0450    1.9270 ca        1 0KM     -0.112000
     15 C11         1.9330   -1.3050    1.9160 ca        1 0KM     -0.088300
     16 C12         0.6260   -1.6440    2.2950 ca        1 0KM     -0.102000
     17 C13         0.3840   -2.8270    2.9880 ca        1 0KM     -0.134000
     18 C14         1.4360   -3.6800    3.3150 ca        1 0KM     -0.105000
     19 C15         2.7450   -3.3530    2.9410 cp        1 0KM     -0.051000
     20 C16         2.9870   -2.1600    2.2410 ca        1 0KM     -0.086000
     21 C17         5.9920   -5.9610    3.9070 ca        1 0KM     -0.202000
     22 C18         3.9040   -4.8610    4.5290 ca        1 0KM     -0.147000
     23 C19         3.8550   -4.2440    3.2760 cp        1 0KM     -0.006000
     24 C20         4.8760   -4.4870    2.3420 ca        1 0KM     -0.154000
     25 C21         5.9290   -5.3380    2.6610 ca        1 0KM     -0.097000
     26 C22         4.9760   -5.7180    4.8370 ca        1 0KM      0.122100
     27 O2          4.9230   -6.2710    6.1030 os        1 0KM     -0.328900
     28 C23         5.9900   -7.1470    6.4480 c3        1 0KM      0.113700
     29 H1          5.2910    0.4650   -1.3060 hn        1 0KM      0.407400
     30 H3          0.4770    0.1030   -2.5750 h1        1 0KM      0.057033
     31 H4          1.9400    1.0690   -3.1240 h1        1 0KM      0.057033
     32 H5          2.0310   -0.7520   -3.0450 h1        1 0KM      0.057033
     33 H6          3.4720    0.5880    3.4600 ha        1 0KM      0.147500
     34 H7          3.0700    2.4580    5.0530 ha        1 0KM      0.137500
     35 H8          1.1960    4.0610    4.6550 ha        1 0KM      0.136000
     36 H9         -0.2720    3.7820    2.6540 ha        1 0KM      0.137500
     37 H10         0.1220    1.9320    1.0560 ha        1 0KM      0.147500
     38 H11        -0.2110   -0.9760    2.0320 ha        1 0KM      0.158000
     39 H12        -0.6450   -3.0880    3.2770 ha        1 0KM      0.137000
     40 H13         1.2390   -4.6160    3.8600 ha        1 0KM      0.139000
     41 H14         4.0250   -1.9190    1.9620 ha        1 0KM      0.150000
     42 H16         3.1210   -4.6830    5.2800 ha        1 0KM      0.152000
     43 H17         4.8330   -4.0080    1.3530 ha        1 0KM      0.140000
     44 H18         6.7230   -5.5260    1.9220 ha        1 0KM      0.133000
     45 H19         5.7370   -7.4660    7.4910 h1        1 0KM      0.044367
     46 H20         6.0150   -8.0280    5.7620 h1        1 0KM      0.044367
     47 H21         6.9670   -6.6070    6.4270 h1        1 0KM      0.044367
     48 H22         4.0560    0.8520    1.0650 hn        1 0KM      0.403800
     49 H15         6.8310   -6.6300    4.1430 ha        1 0KM      0.137000
@<TRIPOS>BOND
     1    1    2 2   
     2    2    3 1   
     3    2    6 1   
     4    3    4 1   
     5    3    9 1   
     6    3   15 1   
     7    4    5 1   
     8    4   48 1   
     9    5    6 1   
    10    5    7 2   
    11    6    8 1   
    12    7   29 1   
    13    8   30 1   
    14    8   31 1   
    15    8   32 1   
    16    9   10 ar  
    17    9   14 ar  
    18   10   11 ar  
    19   10   33 1   
    20   11   12 ar  
    21   11   34 1   
    22   12   13 ar  
    23   12   35 1   
    24   13   14 ar  
    25   13   36 1   
    26   14   37 1   
    27   15   16 ar  
    28   15   20 ar  
    29   16   17 ar  
    30   16   38 1   
    31   17   18 ar  
    32   17   39 1   
    33   18   19 ar  
    34   18   40 1   
    35   19   20 ar  
    36   19   23 1   
    37   20   41 1   
    38   21   25 ar  
    39   21   26 ar  
    40   21   49 1   
    41   22   23 ar  
    42   22   26 ar  
    43   22   42 1   
    44   23   24 ar  
    45   24   25 ar  
    46   24   43 1   
    47   25   44 1   
    48   26   27 1   
    49   27   28 1   
    50   28   45 1   
    51   28   46 1   
    52   28   47 1   
@<TRIPOS>SUBSTRUCTURE
     1 0KM         1 TEMP              0 ****  ****    0 ROOT
