@<TRIPOS>MOLECULE
0KN
   83    87     1     0     0
SMALL
bcc


@<TRIPOS>ATOM
      1 C29         3.4040   -3.8210   -2.0550 cy        1 0KN     -0.094900
      2 C30         2.6620   -4.8480   -1.1770 cy        1 0KN     -0.090400
      3 C31         2.5940   -3.8330   -0.0180 cy        1 0KN     -0.094900
      4 C18         3.3130   -2.7720   -0.9050 cy        1 0KN      0.132800
      5 C19         2.5170   -1.5340   -1.2170 c3        1 0KN     -0.127400
      6 O17         4.6440   -2.4990   -0.4660 os        1 0KN     -0.413100
      7 C16         4.8130   -1.3690    0.3140 ca        1 0KN      0.623600
      8 N23         6.0850   -1.2610    0.7910 nb        1 0KN     -0.679000
      9 C22         6.3520   -0.1860    1.5490 ca        1 0KN      0.422200
     10 C21         5.4140    0.8140    1.8770 ca        1 0KN     -0.234600
     11 C24         5.7900    1.9530    2.7520 c3        1 0KN     -0.017100
     12 C25         6.3350    3.1770    2.0060 c3        1 0KN     -0.052000
     13 C27         5.2850    3.7250    1.0520 c3        1 0KN     -0.087767
     14 C28         6.6800    4.2460    3.0350 c3        1 0KN     -0.087767
     15 C26         7.5900    2.8100    1.2300 c3        1 0KN     -0.087767
     16 C20         4.1140    0.6760    1.3750 ca        1 0KN     -0.041000
     17 C15         3.7880   -0.4220    0.5770 ca        1 0KN     -0.250600
     18 C6          2.4000   -0.6550    0.0430 c3        1 0KN      0.240800
     19 N5          1.6630    0.5840   -0.1670 n3        1 0KN     -0.824200
     20 C4          0.2730    0.5800    0.2100 c3        1 0KN      0.149800
     21 C3         -0.6760   -0.3560   -0.5660 c3        1 0KN      0.089100
     22 O14        -0.4270   -1.7110   -0.2270 oh        1 0KN     -0.599800
     23 C2         -2.1640   -0.0230   -0.2730 c3        1 0KN      0.074700
     24 N1         -2.5330    1.3460   -0.5690 n         1 0KN     -0.528900
     25 C35        -2.3380    1.9190   -1.8180 c         1 0KN      0.645100
     26 O36        -1.5320    1.4620   -2.6510 o         1 0KN     -0.602100
     27 C37        -3.0580    3.2490   -2.1080 c3        1 0KN      0.068100
     28 C38        -3.1570    3.4830   -3.6030 c3        1 0KN     -0.115100
     29 O39        -4.3610    3.1750   -1.5220 os        1 0KN     -0.436600
     30 C40        -4.9430    4.4470   -1.2830 c3        1 0KN      0.117700
     31 C7         -3.0510   -1.0600   -0.9950 c3        1 0KN     -0.071100
     32 C8         -4.4380   -1.0760   -0.4540 ca        1 0KN     -0.089300
     33 C9         -4.7860   -2.0770    0.4820 ca        1 0KN     -0.112000
     34 C10        -6.0830   -2.0610    0.9480 ca        1 0KN      0.055100
     35 O32        -6.6880   -2.9170    1.8630 os        1 0KN     -0.334900
     36 C33        -8.0590   -2.4770    2.0010 c3        1 0KN      0.321200
     37 O34        -8.2450   -1.3250    1.1470 os        1 0KN     -0.333900
     38 C11        -7.0280   -1.0950    0.5140 ca        1 0KN      0.053100
     39 C12        -6.6970   -0.1170   -0.4010 ca        1 0KN     -0.109000
     40 C13        -5.3730   -0.1290   -0.8770 ca        1 0KN     -0.133000
     41 H1          4.4490   -4.1030   -2.3020 hc        1 0KN      0.064200
     42 H2          2.8600   -3.5100   -2.9700 hc        1 0KN      0.064200
     43 H3          1.6680   -5.1450   -1.5730 hc        1 0KN      0.053200
     44 H4          3.2590   -5.7550   -0.9460 hc        1 0KN      0.053200
     45 H5          1.5630   -3.5350    0.2710 hc        1 0KN      0.064200
     46 H6          3.1810   -4.1270    0.8780 hc        1 0KN      0.064200
     47 H7          3.0220   -0.9660   -2.0420 hc        1 0KN      0.072200
     48 H8          1.4920   -1.8300   -1.5650 hc        1 0KN      0.072200
     49 H9          7.3930   -0.1210    1.9180 h4        1 0KN      0.023100
     50 H10         4.8920    2.2750    3.3450 hc        1 0KN      0.046200
     51 H11         6.5720    1.6120    3.4840 hc        1 0KN      0.046200
     52 H12         4.3700    4.0290    1.6160 hc        1 0KN      0.035589
     53 H13         5.6840    4.6160    0.5100 hc        1 0KN      0.035589
     54 H14         4.9980    2.9480    0.3040 hc        1 0KN      0.035589
     55 H15         7.4550    3.8680    3.7440 hc        1 0KN      0.035589
     56 H16         7.0770    5.1560    2.5250 hc        1 0KN      0.035589
     57 H17         5.7720    4.5330    3.6180 hc        1 0KN      0.035589
     58 H18         7.3620    2.0180    0.4760 hc        1 0KN      0.035589
     59 H19         7.9910    3.7070    0.6990 hc        1 0KN      0.035589
     60 H20         8.3760    2.4250    1.9240 hc        1 0KN      0.035589
     61 H21         3.3560    1.4400    1.6110 ha        1 0KN      0.153000
     62 H22         1.8500   -1.2670    0.8260 h1        1 0KN      0.060700
     63 H23         1.7830    0.9120   -1.1060 hn        1 0KN      0.376800
     64 H25         0.2050    0.3170    1.3050 h1        1 0KN      0.059700
     65 H26        -0.0840    1.6410    0.0840 h1        1 0KN      0.059700
     66 H27        -0.4870   -0.3070   -1.6770 h1        1 0KN      0.114700
     67 H28        -0.5260   -1.7980    0.7290 ho        1 0KN      0.396000
     68 H29        -2.3190   -0.1500    0.8430 h1        1 0KN      0.056700
     69 H30        -3.3580    1.6480   -0.0900 hn        1 0KN      0.318500
     70 H31        -2.4590    4.0690   -1.6190 h1        1 0KN      0.065700
     71 H32        -3.8580    2.7460   -4.0620 hc        1 0KN      0.056367
     72 H33        -3.5360    4.5130   -3.8040 hc        1 0KN      0.056367
     73 H34        -2.1510    3.3610   -4.0710 hc        1 0KN      0.056367
     74 H35        -5.9370    4.2100   -0.8260 h1        1 0KN      0.040033
     75 H36        -4.3150    5.0400   -0.5730 h1        1 0KN      0.040033
     76 H37        -5.0750    5.0070   -2.2400 h1        1 0KN      0.040033
     77 H38        -3.0660   -0.8330   -2.0950 hc        1 0KN      0.076700
     78 H39        -2.5780   -2.0720   -0.8710 hc        1 0KN      0.076700
     79 H40        -4.0600   -2.8310    0.8120 ha        1 0KN      0.155000
     80 H41        -8.7350   -3.2960    1.6490 h2        1 0KN      0.073200
     81 H42        -8.2280   -2.1660    3.0610 h2        1 0KN      0.073200
     82 H43        -7.4230    0.6310   -0.7440 ha        1 0KN      0.156000
     83 H44        -5.0790    0.6420   -1.6090 ha        1 0KN      0.150000
@<TRIPOS>BOND
     1    1    2 1   
     2    1    4 1   
     3    1   41 1   
     4    1   42 1   
     5    2    3 1   
     6    2   43 1   
     7    2   44 1   
     8    3    4 1   
     9    3   45 1   
    10    3   46 1   
    11    4    5 1   
    12    4    6 1   
    13    5   18 1   
    14    5   47 1   
    15    5   48 1   
    16    6    7 1   
    17    7    8 ar  
    18    7   17 ar  
    19    8    9 ar  
    20    9   10 ar  
    21    9   49 1   
    22   10   11 1   
    23   10   16 ar  
    24   11   12 1   
    25   11   50 1   
    26   11   51 1   
    27   12   13 1   
    28   12   14 1   
    29   12   15 1   
    30   13   52 1   
    31   13   53 1   
    32   13   54 1   
    33   14   55 1   
    34   14   56 1   
    35   14   57 1   
    36   15   58 1   
    37   15   59 1   
    38   15   60 1   
    39   16   17 ar  
    40   16   61 1   
    41   17   18 1   
    42   18   19 1   
    43   18   62 1   
    44   19   20 1   
    45   19   63 1   
    46   20   21 1   
    47   20   64 1   
    48   20   65 1   
    49   21   22 1   
    50   21   23 1   
    51   21   66 1   
    52   22   67 1   
    53   23   24 1   
    54   23   31 1   
    55   23   68 1   
    56   24   25 1   
    57   24   69 1   
    58   25   26 2   
    59   25   27 1   
    60   27   28 1   
    61   27   29 1   
    62   27   70 1   
    63   28   71 1   
    64   28   72 1   
    65   28   73 1   
    66   29   30 1   
    67   30   74 1   
    68   30   75 1   
    69   30   76 1   
    70   31   32 1   
    71   31   77 1   
    72   31   78 1   
    73   32   33 ar  
    74   32   40 ar  
    75   33   34 ar  
    76   33   79 1   
    77   34   35 1   
    78   34   38 ar  
    79   35   36 1   
    80   36   37 1   
    81   36   80 1   
    82   36   81 1   
    83   37   38 1   
    84   38   39 ar  
    85   39   40 ar  
    86   39   82 1   
    87   40   83 1   
@<TRIPOS>SUBSTRUCTURE
     1 0KN         1 TEMP              0 ****  ****    0 ROOT
