@<TRIPOS>MOLECULE
0KN
   85    89     1     0     0
SMALL
bcc


@<TRIPOS>ATOM
      1 C29         0.0650    0.1290   -0.3470 cy        1 0KN     -0.087400
      2 C30         1.3590    0.9100   -0.0410 cy        1 0KN     -0.084400
      3 C31         1.4350    0.2690    1.3610 cy        1 0KN     -0.087400
      4 C18         0.1510   -0.5520    1.0530 cy        1 0KN      0.109800
      5 C19         0.2840   -2.0580    1.0280 c3        1 0KN     -0.119400
      6 O17        -0.9930   -0.1440    1.8090 os        1 0KN     -0.380100
      7 C16        -1.0710   -0.6880    3.0710 ca        1 0KN      0.684600
      8 N23        -1.8740    0.0180    3.9240 nb        1 0KN     -0.635000
      9 C22        -1.9910   -0.4500    5.1680 ca        1 0KN      0.482200
     10 C21        -1.3200   -1.6080    5.6610 ca        1 0KN     -0.187600
     11 C24        -1.4690   -2.0110    7.0820 c3        1 0KN     -0.037100
     12 C25        -2.6400   -2.9640    7.3490 c3        1 0KN     -0.051000
     13 C27        -2.4420   -4.2720    6.5980 c3        1 0KN     -0.090100
     14 C28        -2.6820   -3.2520    8.8450 c3        1 0KN     -0.090100
     15 C26        -3.9540   -2.3250    6.9290 c3        1 0KN     -0.090100
     16 C20        -0.5160   -2.3090    4.7730 ca        1 0KN     -0.080000
     17 C15        -0.3990   -1.8810    3.4350 ca        1 0KN     -0.380600
     18 C6          0.4450   -2.6090    2.4510 c3        1 0KN      0.232800
     19 N5          0.0830   -4.1050    2.4660 n4        1 0KN     -0.768000
     20 C4          1.1090   -4.9700    3.1060 c3        1 0KN      0.094800
     21 C3          2.2340   -5.4280    2.1470 c3        1 0KN      0.121100
     22 O14         2.7110   -4.2520    1.5270 oh        1 0KN     -0.589800
     23 C2          3.3860   -6.0920    2.9530 c3        1 0KN      0.095500
     24 N1          3.0830   -7.4840    3.4230 n4        1 0KN     -0.676800
     25 C35         2.7190   -8.5290    2.3910 c         1 0KN      0.545100
     26 O36         2.7200   -8.2120    1.2140 o         1 0KN     -0.417100
     27 C37         2.4000   -9.9150    2.9630 c3        1 0KN      0.094100
     28 C38         3.6920  -10.6670    3.2110 c3        1 0KN     -0.144100
     29 O39         1.6730   -9.6880    4.1660 os        1 0KN     -0.477600
     30 C40         0.9000  -10.8140    4.5910 c3        1 0KN      0.119700
     31 C7          4.6980   -6.0470    2.1490 c3        1 0KN     -0.046100
     32 C8          5.8040   -6.7980    2.8020 ca        1 0KN     -0.182300
     33 C9          6.0820   -6.5700    4.1730 ca        1 0KN     -0.169000
     34 C10         7.1630   -7.2400    4.6990 ca        1 0KN      0.082100
     35 O32         7.6510   -7.2090    5.9920 os        1 0KN     -0.321900
     36 C33         8.8390   -8.0490    6.0180 c3        1 0KN      0.320200
     37 O34         8.9790   -8.6340    4.6950 os        1 0KN     -0.303900
     38 C11         7.9720   -8.1120    3.9090 ca        1 0KN      0.100100
     39 C12         7.7100   -8.3280    2.5720 ca        1 0KN     -0.107000
     40 C13         6.6000   -7.6480    2.0340 ca        1 0KN     -0.101000
     41 H1         -0.8400    0.7690   -0.4570 hc        1 0KN      0.076450
     42 H2          0.1350   -0.5870   -1.1900 hc        1 0KN      0.076450
     43 H3          2.2110    0.6510   -0.7040 hc        1 0KN      0.076700
     44 H4          1.2230    2.0130   -0.0220 hc        1 0KN      0.076700
     45 H5          2.3350   -0.3560    1.5360 hc        1 0KN      0.076450
     46 H6          1.3000    0.9930    2.1930 hc        1 0KN      0.076450
     47 H7          1.1800   -2.3430    0.4160 hc        1 0KN      0.081700
     48 H8         -0.6360   -2.4690    0.5290 hc        1 0KN      0.081700
     49 H9         -2.6570    0.1360    5.8370 h4        1 0KN      0.064100
     50 H10        -0.5210   -2.5050    7.4300 hc        1 0KN      0.064700
     51 H11        -1.6150   -1.0900    7.7110 hc        1 0KN      0.064700
     52 H12        -3.3050   -4.9560    6.7890 hc        1 0KN      0.039589
     53 H13        -1.5050   -4.7760    6.9370 hc        1 0KN      0.039589
     54 H14        -2.3720   -4.0850    5.4990 hc        1 0KN      0.039589
     55 H15        -2.8440   -2.3080    9.4180 hc        1 0KN      0.039589
     56 H16        -1.7240   -3.7150    9.1820 hc        1 0KN      0.039589
     57 H17        -3.5190   -3.9540    9.0760 hc        1 0KN      0.039589
     58 H18        -4.1130   -1.3670    7.4820 hc        1 0KN      0.039589
     59 H19        -3.9550   -2.1090    5.8340 hc        1 0KN      0.039589
     60 H20        -4.8060   -3.0100    7.1580 hc        1 0KN      0.039589
     61 H21         0.0340   -3.1940    5.1250 ha        1 0KN      0.112000
     62 H22         1.5390   -2.5460    2.7420 hx        1 0KN      0.117700
     63 H23        -0.8040   -4.2050    2.9820 hn        1 0KN      0.459300
     64 H25         1.5590   -4.3930    3.9670 hx        1 0KN      0.105700
     65 H26         0.5900   -5.8860    3.5090 hx        1 0KN      0.105700
     66 H27         1.8280   -6.1400    1.3730 h1        1 0KN      0.087700
     67 H28         3.2520   -4.5050    0.7620 ho        1 0KN      0.458000
     68 H29         3.5470   -5.4840    3.8990 hx        1 0KN      0.113700
     69 H30         2.3230   -7.4690    4.1160 hn        1 0KN      0.481300
     70 H31         1.7580  -10.4450    2.1990 h1        1 0KN      0.124700
     71 H32         4.2740  -10.2100    4.0470 hc        1 0KN      0.083033
     72 H33         3.4500  -11.7230    3.4960 hc        1 0KN      0.083033
     73 H34         4.3180  -10.6910    2.2850 hc        1 0KN      0.083033
     74 H35         0.1340  -11.0690    3.8180 h1        1 0KN      0.070700
     75 H36         1.5680  -11.6860    4.7940 h1        1 0KN      0.070700
     76 H37         0.4160  -10.4550    5.5350 h1        1 0KN      0.070700
     77 H38         4.5140   -6.4390    1.1120 hc        1 0KN      0.095700
     78 H39         4.9970   -4.9630    2.0670 hc        1 0KN      0.095700
     79 H40         5.5140   -5.8500    4.7730 ha        1 0KN      0.145000
     80 H41         8.6740   -8.8730    6.7550 h2        1 0KN      0.103700
     81 H42         9.7290   -7.4030    6.2210 h2        1 0KN      0.103700
     82 H43         8.3410   -8.9800    1.9510 ha        1 0KN      0.188000
     83 H44         6.3820   -7.7860    0.9620 ha        1 0KN      0.153000
     84 H52        -0.0630   -4.4140    1.4990 hn        1 0KN      0.459300
     85 H121        3.9400   -7.8300    3.9000 hn        1 0KN      0.481300
@<TRIPOS>BOND
     1    1    2 1   
     2    1    4 1   
     3    1   41 1   
     4    1   42 1   
     5    2    3 1   
     6    2   43 1   
     7    2   44 1   
     8    3    4 1   
     9    3   45 1   
    10    3   46 1   
    11    4    5 1   
    12    4    6 1   
    13    5   18 1   
    14    5   47 1   
    15    5   48 1   
    16    6    7 1   
    17    7    8 ar  
    18    7   17 ar  
    19    8    9 ar  
    20    9   10 ar  
    21    9   49 1   
    22   10   11 1   
    23   10   16 ar  
    24   11   12 1   
    25   11   50 1   
    26   11   51 1   
    27   12   13 1   
    28   12   14 1   
    29   12   15 1   
    30   13   52 1   
    31   13   53 1   
    32   13   54 1   
    33   14   55 1   
    34   14   56 1   
    35   14   57 1   
    36   15   58 1   
    37   15   59 1   
    38   15   60 1   
    39   16   17 ar  
    40   16   61 1   
    41   17   18 1   
    42   18   19 1   
    43   18   62 1   
    44   19   20 1   
    45   19   63 1   
    46   19   84 1   
    47   20   21 1   
    48   20   64 1   
    49   20   65 1   
    50   21   22 1   
    51   21   23 1   
    52   21   66 1   
    53   22   67 1   
    54   23   24 1   
    55   23   31 1   
    56   23   68 1   
    57   24   25 1   
    58   24   69 1   
    59   24   85 1   
    60   25   26 2   
    61   25   27 1   
    62   27   28 1   
    63   27   29 1   
    64   27   70 1   
    65   28   71 1   
    66   28   72 1   
    67   28   73 1   
    68   29   30 1   
    69   30   74 1   
    70   30   75 1   
    71   30   76 1   
    72   31   32 1   
    73   31   77 1   
    74   31   78 1   
    75   32   33 ar  
    76   32   40 ar  
    77   33   34 ar  
    78   33   79 1   
    79   34   35 1   
    80   34   38 ar  
    81   35   36 1   
    82   36   37 1   
    83   36   80 1   
    84   36   81 1   
    85   37   38 1   
    86   38   39 ar  
    87   39   40 ar  
    88   39   82 1   
    89   40   83 1   
@<TRIPOS>SUBSTRUCTURE
     1 0KN         1 TEMP              0 ****  ****    0 ROOT
