@<TRIPOS>MOLECULE
0KN
   83    80     1     0     0
SMALL
bcc


@<TRIPOS>ATOM
      1 C29        -0.0690   -1.4210   -5.4800 cy        1 0KN     -0.171500
      2 C30         1.3830   -1.1920   -5.8380 cy        1 0KN     -0.171000
      3 C31         1.7630   -1.2550   -4.3750 cy        1 0KN     -0.171500
      4 C18         0.2980   -1.4880   -3.9950 cy        1 0KN      0.059000
      5 C19        -0.6400   -1.1310   -2.9390 c3        1 0KN     -0.164000
      6 O17         0.6740   -2.7910   -4.0910 os        1 0KN     -0.171000
      7 C16         0.8590   -3.5750   -2.7690 c1        1 0KN      0.142000
      8 N23         1.5100   -4.7710   -2.7220 n1        1 0KN     -0.150000
      9 C22         1.7910   -5.3670   -1.4910 c1        1 0KN     -0.037000
     10 C21         1.3940   -4.7180   -0.2650 c1        1 0KN     -0.154000
     11 C24         1.8620   -5.2910    1.0950 c3        1 0KN     -0.106000
     12 C25         1.1260   -6.6310    1.3760 c3        1 0KN     -0.052000
     13 C27         1.9700   -7.4890    2.3420 c3        1 0KN     -0.205667
     14 C28        -0.2450   -6.3400    2.0120 c3        1 0KN     -0.205667
     15 C26         0.9270   -7.3920    0.0560 c3        1 0KN     -0.205667
     16 C20         0.7250   -3.4890   -0.3080 c1        1 0KN     -0.062000
     17 C15         0.4490   -2.9050   -1.5110 c1        1 0KN     -0.210000
     18 C6         -0.3050   -1.5310   -1.6390 c2        1 0KN      0.034000
     19 N5          0.5730   -0.4560   -1.0290 n3        1 0KN     -0.293000
     20 C4         -0.2720    0.5780   -0.4170 c3        1 0KN     -0.111000
     21 C3          0.5960    1.4990    0.4540 c3        1 0KN     -0.023000
     22 O14         1.6840    1.9610   -0.2950 oh        1 0KN     -0.332000
     23 C2         -0.2300    2.6780    0.9250 c3        1 0KN     -0.001000
     24 N1         -1.3120    2.2110    1.7270 n         1 0KN     -0.355000
     25 C35        -2.3200    3.1350    2.1890 c2        1 0KN      0.300000
     26 O36        -2.3850    4.2550    1.7120 o         1 0KN     -0.371000
     27 C37        -3.3450    2.6880    3.2250 c3        1 0KN      0.008000
     28 C38        -3.0760    3.3920    4.5400 c3        1 0KN     -0.237000
     29 O39        -4.6380    3.0110    2.7760 os        1 0KN     -0.288000
     30 C40        -5.6710    2.2500    3.3930 c3        1 0KN     -0.070000
     31 C7          0.6450    3.6170    1.7500 c3        1 0KN     -0.152000
     32 C8          0.9490    4.8910    0.9310 c1        1 0KN     -0.080000
     33 C9         -0.0460    5.8530    0.7490 c1        1 0KN     -0.112000
     34 C10         0.2680    7.0830    0.1410 c1        1 0KN      0.016000
     35 O32        -0.5320    8.2190   -0.1840 o         1 0KN     -0.214000
     36 C33         0.3130    9.2070   -0.7170 c3        1 0KN      0.098000
     37 O34         1.6080    8.6670   -0.8000 os        1 0KN     -0.215000
     38 C11         1.5670    7.3390   -0.2770 c2        1 0KN      0.012000
     39 C12         2.5680    6.3700   -0.0940 c1        1 0KN     -0.109000
     40 C13         2.2580    5.1500    0.5090 c1        1 0KN     -0.143000
     41 H1         -0.6390   -0.6500   -5.6960 hc        1 0KN      0.106500
     42 H2         -0.4150   -2.2770   -5.8260 hc        1 0KN      0.106500
     43 H3          1.7670   -1.9320   -6.3640 hc        1 0KN      0.091500
     44 H4          1.5410   -0.3050   -6.2330 hc        1 0KN      0.091500
     45 H5          2.1110   -0.4020   -4.0360 hc        1 0KN      0.106500
     46 H6          2.3370   -2.0270   -4.1640 hc        1 0KN      0.106500
     47 H7         -0.7380   -0.1530   -2.9390 hc        1 0KN      0.103000
     48 H8         -1.5160   -1.5270   -3.1630 hc        1 0KN      0.103000
     49 H9          2.3050   -6.2050   -1.4580 ha        1 0KN      0.162000
     50 H10         2.8330   -5.4500    1.0680 hc        1 0KN      0.088500
     51 H11         1.6560   -4.6500    1.8080 hc        1 0KN      0.088500
     52 H12         2.8790   -7.5980    1.9760 hc        1 0KN      0.074889
     53 H13         2.0210   -7.0440    3.2180 hc        1 0KN      0.074889
     54 H14         1.5510   -8.3720    2.4480 hc        1 0KN      0.074889
     55 H15        -0.9570   -6.6640    1.4170 hc        1 0KN      0.074889
     56 H16        -0.3450   -5.3710    2.1460 hc        1 0KN      0.074889
     57 H17        -0.3080   -6.8000    2.8780 hc        1 0KN      0.074889
     58 H18         0.2710   -6.9180   -0.5000 hc        1 0KN      0.074889
     59 H19         0.6000   -8.3000    0.2480 hc        1 0KN      0.074889
     60 H20         1.7840   -7.4470   -0.4230 hc        1 0KN      0.074889
     61 H21         0.4540   -3.0480    0.5250 ha        1 0KN      0.154000
     62 H22        -1.1350   -1.5870   -1.1120 h4        1 0KN      0.084000
     63 H23         1.1130   -0.8280   -0.3890 hn        1 0KN      0.170000
     64 H25        -0.7060    1.1080   -1.1220 h1        1 0KN      0.107000
     65 H26        -0.9590    0.1520    0.1420 h1        1 0KN      0.107000
     66 H27         0.9260    0.9970    1.2360 h1        1 0KN      0.122000
     67 H28         1.4030    2.2180   -1.0970 ho        1 0KN      0.204000
     68 H29        -0.5850    3.1610    0.1470 h1        1 0KN      0.132000
     69 H30        -1.3540    1.3280    1.9700 hn        1 0KN      0.238000
     70 H31        -3.2780    1.7180    3.3540 h1        1 0KN      0.116000
     71 H32        -3.4980    4.2800    4.5280 hc        1 0KN      0.092000
     72 H33        -3.4490    2.8620    5.2780 hc        1 0KN      0.092000
     73 H34        -2.1080    3.4920    4.6650 hc        1 0KN      0.092000
     74 H35        -5.9870    2.7190    4.1980 h1        1 0KN      0.078667
     75 H36        -6.4190    2.1400    2.7630 h1        1 0KN      0.078667
     76 H37        -5.3220    1.3680    3.6440 h1        1 0KN      0.078667
     77 H38         0.1740    3.8630    2.5750 hc        1 0KN      0.104500
     78 H39         1.4890    3.1640    1.9770 hc        1 0KN      0.104500
     79 H40        -0.9490    5.6910    1.0870 ha        1 0KN      0.169000
     80 H41         0.3240    9.9820   -0.1130 h2        1 0KN      0.114000
     81 H42         0.0030    9.4440   -1.6200 h2        1 0KN      0.114000
     82 H43         3.4860    6.5510   -0.3900 ha        1 0KN      0.158000
     83 H44         2.9680    4.4950    0.6850 ha        1 0KN      0.136000
@<TRIPOS>BOND
     1    1    2 1   
     2    1    4 1   
     3    1   41 1   
     4    1   42 1   
     5    2    3 1   
     6    2   43 1   
     7    2   44 1   
     8    3    4 1   
     9    3   45 1   
    10    3   46 1   
    11    4    5 1   
    12    4    6 1   
    13    5   18 1   
    14    5   47 1   
    15    5   48 1   
    16    6    7 1   
    17    7    8 1   
    18    9   10 1   
    19    9   49 1   
    20   10   11 1   
    21   11   12 1   
    22   11   50 1   
    23   11   51 1   
    24   12   13 1   
    25   12   14 1   
    26   12   15 1   
    27   13   52 1   
    28   13   53 1   
    29   13   54 1   
    30   14   55 1   
    31   14   56 1   
    32   14   57 1   
    33   15   58 1   
    34   15   59 1   
    35   15   60 1   
    36   16   17 1   
    37   16   61 1   
    38   18   19 1   
    39   18   62 1   
    40   19   20 1   
    41   19   63 1   
    42   20   21 1   
    43   20   64 1   
    44   20   65 1   
    45   21   22 1   
    46   21   23 1   
    47   21   66 1   
    48   22   67 1   
    49   23   24 1   
    50   23   31 1   
    51   23   68 1   
    52   24   25 1   
    53   24   69 1   
    54   25   26 1   
    55   25   27 1   
    56   27   28 1   
    57   27   29 1   
    58   27   70 1   
    59   28   71 1   
    60   28   72 1   
    61   28   73 1   
    62   29   30 1   
    63   30   74 1   
    64   30   75 1   
    65   30   76 1   
    66   31   32 1   
    67   31   77 1   
    68   31   78 1   
    69   32   40 1   
    70   33   34 1   
    71   33   79 1   
    72   34   38 1   
    73   35   36 1   
    74   36   37 1   
    75   36   80 1   
    76   36   81 1   
    77   37   38 1   
    78   38   39 1   
    79   39   82 1   
    80   40   83 1   
@<TRIPOS>SUBSTRUCTURE
     1 0KN         1 TEMP              0 ****  ****    0 ROOT
