@<TRIPOS>MOLECULE
0KN
   85    89     1     0     0
SMALL
bcc


@<TRIPOS>ATOM
      1 C29         0.0270    0.1240   -0.3450 cy        1 0KN     -0.087400
      2 C30         1.3220    0.9070   -0.0500 cy        1 0KN     -0.084400
      3 C31         1.4120    0.2660    1.3510 cy        1 0KN     -0.087400
      4 C18         0.1270   -0.5580    1.0530 cy        1 0KN      0.109800
      5 C19         0.2630   -2.0630    1.0260 c3        1 0KN     -0.119400
      6 O17        -1.0120   -0.1530    1.8190 os        1 0KN     -0.380100
      7 C16        -1.0790   -0.6990    3.0810 ca        1 0KN      0.684600
      8 N23        -1.8770    0.0040    3.9410 nb        1 0KN     -0.635000
      9 C22        -1.9830   -0.4650    5.1850 ca        1 0KN      0.482200
     10 C21        -1.3050   -1.6220    5.6720 ca        1 0KN     -0.187600
     11 C24        -1.4420   -2.0270    7.0930 c3        1 0KN     -0.037100
     12 C25        -2.6090   -2.9830    7.3680 c3        1 0KN     -0.051000
     13 C27        -2.4130   -4.2900    6.6150 c3        1 0KN     -0.090100
     14 C28        -2.6380   -3.2730    8.8650 c3        1 0KN     -0.090100
     15 C26        -3.9280   -2.3470    6.9600 c3        1 0KN     -0.090100
     16 C20        -0.5060   -2.3200    4.7770 ca        1 0KN     -0.080000
     17 C15        -0.4000   -1.8900    3.4390 ca        1 0KN     -0.380600
     18 C6          0.4380   -2.6150    2.4470 c3        1 0KN      0.232800
     19 N5          0.0820   -4.1120    2.4650 n4        1 0KN     -0.767000
     20 C4          1.1150   -4.9730    3.0980 c3        1 0KN      0.094800
     21 C3          2.2340   -5.4290    2.1310 c3        1 0KN      0.121100
     22 O14         2.7000   -4.2540    1.5010 oh        1 0KN     -0.589800
     23 C2          3.3970   -6.0830    2.9280 c3        1 0KN      0.095500
     24 N1          3.1010   -7.4680    3.4210 n4        1 0KN     -0.676800
     25 C35         2.7200   -8.5270    2.4090 c         1 0KN      0.545100
     26 O36         2.7040   -8.2260    1.2280 o         1 0KN     -0.417100
     27 C37         2.4090   -9.9050    3.0050 c3        1 0KN      0.094100
     28 C38         3.7050  -10.6540    3.2450 c3        1 0KN     -0.144100
     29 O39         1.6990   -9.6610    4.2140 os        1 0KN     -0.477600
     30 C40         0.9320  -10.7800    4.6660 c3        1 0KN      0.119700
     31 C7          4.6970   -6.0480    2.1030 c3        1 0KN     -0.046100
     32 C8          5.8120   -6.7930    2.7480 ca        1 0KN     -0.183300
     33 C9          6.1120   -6.5490    4.1110 ca        1 0KN     -0.169000
     34 C10         7.2000   -7.2130    4.6290 ca        1 0KN      0.081100
     35 O32         7.7090   -7.1670    5.9130 os        1 0KN     -0.321900
     36 C33         8.8970   -8.0080    5.9300 c3        1 0KN      0.320200
     37 O34         9.0140   -8.6100    4.6130 os        1 0KN     -0.303900
     38 C11         7.9960   -8.0960    3.8370 ca        1 0KN      0.100100
     39 C12         7.7120   -8.3280    2.5070 ca        1 0KN     -0.107000
     40 C13         6.5940   -7.6540    1.9780 ca        1 0KN     -0.101000
     41 H1         -0.8790    0.7610   -0.4480 hc        1 0KN      0.076450
     42 H2          0.0920   -0.5920   -1.1900 hc        1 0KN      0.076450
     43 H3          1.1840    2.0100   -0.0290 hc        1 0KN      0.076700
     44 H4          2.1690    0.6510   -0.7200 hc        1 0KN      0.076700
     45 H5          2.3140   -0.3570    1.5170 hc        1 0KN      0.076450
     46 H6          1.2820    0.9900    2.1850 hc        1 0KN      0.076450
     47 H7          1.1540   -2.3460    0.4060 hc        1 0KN      0.081700
     48 H8         -0.6610   -2.4760    0.5350 hc        1 0KN      0.081700
     49 H9         -2.6450    0.1180    5.8600 h4        1 0KN      0.064100
     50 H10        -0.4910   -2.5180    7.4340 hc        1 0KN      0.064700
     51 H11        -1.5860   -1.1070    7.7250 hc        1 0KN      0.064700
     52 H12        -3.2720   -4.9760    6.8120 hc        1 0KN      0.039589
     53 H13        -2.3520   -4.1010    5.5160 hc        1 0KN      0.039589
     54 H14        -1.4720   -4.7920    6.9450 hc        1 0KN      0.039589
     55 H15        -3.4710   -3.9780    9.1010 hc        1 0KN      0.039589
     56 H16        -1.6760   -3.7330    9.1940 hc        1 0KN      0.039589
     57 H17        -2.7990   -2.3290    9.4400 hc        1 0KN      0.039589
     58 H18        -4.0850   -1.3910    7.5150 hc        1 0KN      0.039589
     59 H19        -3.9380   -2.1300    5.8650 hc        1 0KN      0.039589
     60 H20        -4.7760   -3.0340    7.1940 hc        1 0KN      0.039589
     61 H21         0.0490   -3.2040    5.1240 ha        1 0KN      0.112000
     62 H22         1.5340   -2.5480    2.7290 hx        1 0KN      0.117700
     63 H23        -0.8020   -4.2160    2.9860 hn        1 0KN      0.459300
     64 H25         0.6010   -5.8900    3.5060 hx        1 0KN      0.105700
     65 H26         1.5700   -4.3940    3.9550 hx        1 0KN      0.105700
     66 H27         1.8250   -6.1470    1.3640 h1        1 0KN      0.088700
     67 H28         3.2340   -4.5070    0.7320 ho        1 0KN      0.458000
     68 H29         3.5720   -5.4630    3.8640 hx        1 0KN      0.113700
     69 H30         2.3530   -7.4440    4.1260 hn        1 0KN      0.481300
     70 H31         1.7560  -10.4460    2.2570 h1        1 0KN      0.124700
     71 H32         3.4660  -11.7060    3.5480 hc        1 0KN      0.083033
     72 H33         4.2970  -10.1860    4.0680 hc        1 0KN      0.083033
     73 H34         4.3180  -10.6900    2.3120 hc        1 0KN      0.083033
     74 H35         0.1560  -11.0470    3.9070 h1        1 0KN      0.070700
     75 H36         0.4610  -10.4080    5.6110 h1        1 0KN      0.070700
     76 H37         1.6030  -11.6490    4.8730 h1        1 0KN      0.070700
     77 H38         4.9950   -4.9660    2.0050 hc        1 0KN      0.095700
     78 H39         4.4960   -6.4530    1.0740 hc        1 0KN      0.095700
     79 H40         5.5540   -5.8210    4.7110 ha        1 0KN      0.146000
     80 H41         8.7430   -8.8220    6.6800 h2        1 0KN      0.103700
     81 H42         9.7910   -7.3610    6.1110 h2        1 0KN      0.103700
     82 H43         8.3330   -8.9890    1.8840 ha        1 0KN      0.188000
     83 H44         6.3590   -7.8050    0.9110 ha        1 0KN      0.153000
     84 H52        -0.0690   -4.4220    1.4980 hn        1 0KN      0.459300
     85 H121        3.9660   -7.8090    3.8890 hn        1 0KN      0.481300
@<TRIPOS>BOND
     1    1    2 1   
     2    1    4 1   
     3    1   41 1   
     4    1   42 1   
     5    2    3 1   
     6    2   43 1   
     7    2   44 1   
     8    3    4 1   
     9    3   45 1   
    10    3   46 1   
    11    4    5 1   
    12    4    6 1   
    13    5   18 1   
    14    5   47 1   
    15    5   48 1   
    16    6    7 1   
    17    7    8 ar  
    18    7   17 ar  
    19    8    9 ar  
    20    9   10 ar  
    21    9   49 1   
    22   10   11 1   
    23   10   16 ar  
    24   11   12 1   
    25   11   50 1   
    26   11   51 1   
    27   12   13 1   
    28   12   14 1   
    29   12   15 1   
    30   13   52 1   
    31   13   53 1   
    32   13   54 1   
    33   14   55 1   
    34   14   56 1   
    35   14   57 1   
    36   15   58 1   
    37   15   59 1   
    38   15   60 1   
    39   16   17 ar  
    40   16   61 1   
    41   17   18 1   
    42   18   19 1   
    43   18   62 1   
    44   19   20 1   
    45   19   63 1   
    46   19   84 1   
    47   20   21 1   
    48   20   64 1   
    49   20   65 1   
    50   21   22 1   
    51   21   23 1   
    52   21   66 1   
    53   22   67 1   
    54   23   24 1   
    55   23   31 1   
    56   23   68 1   
    57   24   25 1   
    58   24   69 1   
    59   24   85 1   
    60   25   26 2   
    61   25   27 1   
    62   27   28 1   
    63   27   29 1   
    64   27   70 1   
    65   28   71 1   
    66   28   72 1   
    67   28   73 1   
    68   29   30 1   
    69   30   74 1   
    70   30   75 1   
    71   30   76 1   
    72   31   32 1   
    73   31   77 1   
    74   31   78 1   
    75   32   33 ar  
    76   32   40 ar  
    77   33   34 ar  
    78   33   79 1   
    79   34   35 1   
    80   34   38 ar  
    81   35   36 1   
    82   36   37 1   
    83   36   80 1   
    84   36   81 1   
    85   37   38 1   
    86   38   39 ar  
    87   39   40 ar  
    88   39   82 1   
    89   40   83 1   
@<TRIPOS>SUBSTRUCTURE
     1 0KN         1 TEMP              0 ****  ****    0 ROOT
