@<TRIPOS>MOLECULE
0KN
   85    89     1     0     0
SMALL
bcc


@<TRIPOS>ATOM
      1 C29         0.0460    0.1530   -0.3140 cy        1 0KN     -0.087400
      2 C30         1.3460    0.9270   -0.0170 cy        1 0KN     -0.084400
      3 C31         1.4340    0.2800    1.3800 cy        1 0KN     -0.087400
      4 C18         0.1430   -0.5350    1.0820 cy        1 0KN      0.109800
      5 C19         0.2700   -2.0410    1.0490 c3        1 0KN     -0.119400
      6 O17        -0.9910   -0.1260    1.8510 os        1 0KN     -0.380100
      7 C16        -1.0600   -0.6750    3.1110 ca        1 0KN      0.684600
      8 N23        -1.8520    0.0290    3.9750 nb        1 0KN     -0.635000
      9 C22        -1.9600   -0.4440    5.2170 ca        1 0KN      0.482200
     10 C21        -1.2890   -1.6070    5.6980 ca        1 0KN     -0.187600
     11 C24        -1.4260   -2.0160    7.1190 c3        1 0KN     -0.037100
     12 C25        -2.5990   -2.9660    7.3920 c3        1 0KN     -0.051000
     13 C27        -2.4130   -4.2700    6.6330 c3        1 0KN     -0.090100
     14 C28        -2.6280   -3.2610    8.8870 c3        1 0KN     -0.090100
     15 C26        -3.9140   -2.3190    6.9870 c3        1 0KN     -0.090100
     16 C20        -0.4960   -2.3060    4.8000 ca        1 0KN     -0.080000
     17 C15        -0.3890   -1.8720    3.4630 ca        1 0KN     -0.380600
     18 C6          0.4440   -2.5990    2.4680 c3        1 0KN      0.232800
     19 N5          0.0770   -4.0940    2.4810 ny        1 0KN     -0.767000
     20 C4          1.1060   -4.9640    3.1080 c3        1 0KN      0.094800
     21 C3          2.2200   -5.4230    2.1360 c3        1 0KN      0.121100
     22 O14         2.6930   -4.2480    1.5120 oh        1 0KN     -0.589800
     23 C2          3.3790   -6.0900    2.9270 c3        1 0KN      0.095500
     24 N1          3.0760   -7.4770    3.4100 ny        1 0KN     -0.676800
     25 C35         2.6880   -8.5260    2.3910 c         1 0KN      0.545100
     26 O36         2.6720   -8.2160    1.2120 o         1 0KN     -0.417100
     27 C37         2.3710   -9.9060    2.9760 c3        1 0KN      0.094100
     28 C38         3.6620  -10.6650    3.2080 c3        1 0KN     -0.144100
     29 O39         1.6640   -9.6680    4.1890 os        1 0KN     -0.477600
     30 C40         0.8920  -10.7870    4.6340 c3        1 0KN      0.119700
     31 C7          4.6790   -6.0570    2.1020 c3        1 0KN     -0.046100
     32 C8          5.7900   -6.8130    2.7400 ca        1 0KN     -0.183300
     33 C9          6.0930   -6.5800    4.1060 ca        1 0KN     -0.169000
     34 C10         7.1770   -7.2540    4.6180 ca        1 0KN      0.082100
     35 O32         7.6870   -7.2200    5.9020 os        1 0KN     -0.321900
     36 C33         8.8690   -8.0680    5.9130 c3        1 0KN      0.320200
     37 O34         8.9830   -8.6610    4.5910 os        1 0KN     -0.303900
     38 C11         7.9680   -8.1360    3.8190 ca        1 0KN      0.100100
     39 C12         7.6820   -8.3560    2.4880 ca        1 0KN     -0.107000
     40 C13         6.5680   -7.6720    1.9640 ca        1 0KN     -0.101000
     41 H1          0.1050   -0.5610   -1.1620 hc        1 0KN      0.076450
     42 H2         -0.8570    0.7960   -0.4130 hc        1 0KN      0.076450
     43 H3          2.1910    0.6680   -0.6900 hc        1 0KN      0.076700
     44 H4          1.2150    2.0310    0.0070 hc        1 0KN      0.076700
     45 H5          2.3330   -0.3490    1.5440 hc        1 0KN      0.076450
     46 H6          1.3100    1.0010    2.2180 hc        1 0KN      0.076450
     47 H7         -0.6570   -2.4460    0.5580 hc        1 0KN      0.081700
     48 H8          1.1590   -2.3270    0.4270 hc        1 0KN      0.081700
     49 H9         -2.6170    0.1410    5.8950 h4        1 0KN      0.064100
     50 H10        -0.4780   -2.5150    7.4570 hc        1 0KN      0.064700
     51 H11        -1.5630   -1.0970    7.7540 hc        1 0KN      0.064700
     52 H12        -1.4750   -4.7800    6.9610 hc        1 0KN      0.039589
     53 H13        -2.3520   -4.0780    5.5350 hc        1 0KN      0.039589
     54 H14        -3.2760   -4.9520    6.8280 hc        1 0KN      0.039589
     55 H15        -2.7820   -2.3180    9.4660 hc        1 0KN      0.039589
     56 H16        -3.4660   -3.9610    9.1220 hc        1 0KN      0.039589
     57 H17        -1.6690   -3.7280    9.2130 hc        1 0KN      0.039589
     58 H18        -4.0640   -1.3640    7.5460 hc        1 0KN      0.039589
     59 H19        -4.7670   -3.0020    7.2210 hc        1 0KN      0.039589
     60 H20        -3.9240   -2.0980    5.8930 hc        1 0KN      0.039589
     61 H21         0.0540   -3.1950    5.1430 ha        1 0KN      0.112000
     62 H22         1.5400   -2.5410    2.7480 hx        1 0KN      0.117700
     63 H23        -0.8060   -4.1940    3.0040 hn        1 0KN      0.459300
     64 H25         1.5670   -4.3920    3.9660 hx        1 0KN      0.105700
     65 H26         0.5870   -5.8800    3.5120 hx        1 0KN      0.105700
     66 H27         1.8040   -6.1340    1.3650 h1        1 0KN      0.088700
     67 H28         3.2240   -4.5000    0.7400 ho        1 0KN      0.458000
     68 H29         3.5590   -5.4770    3.8670 hx        1 0KN      0.113700
     69 H30         2.3280   -7.4540    4.1160 hn        1 0KN      0.481300
     70 H31         1.7130  -10.4380    2.2260 h1        1 0KN      0.124700
     71 H32         4.2730  -10.6980    2.2730 hc        1 0KN      0.083033
     72 H33         3.4180  -11.7180    3.5020 hc        1 0KN      0.083033
     73 H34         4.2590  -10.2070    4.0320 hc        1 0KN      0.083033
     74 H35         0.4250  -10.4190    5.5830 h1        1 0KN      0.070700
     75 H36         1.5590  -11.6610    4.8320 h1        1 0KN      0.070700
     76 H37         0.1130  -11.0430    3.8750 h1        1 0KN      0.070700
     77 H38         4.4760   -6.4520    1.0700 hc        1 0KN      0.095700
     78 H39         4.9840   -4.9750    2.0110 hc        1 0KN      0.095700
     79 H40         5.5390   -5.8530    4.7120 ha        1 0KN      0.146000
     80 H41         9.7670   -7.4280    6.0980 h2        1 0KN      0.103700
     81 H42         8.7110   -8.8870    6.6560 h2        1 0KN      0.103700
     82 H43         8.2990   -9.0160    1.8590 ha        1 0KN      0.188000
     83 H44         6.3310   -7.8140    0.8960 ha        1 0KN      0.153000
     84 H52        -0.0790   -4.3990    1.5130 hn        1 0KN      0.459300
     85 H121        3.9390   -7.8270    3.8750 hn        1 0KN      0.481300
@<TRIPOS>BOND
     1    1    2 1   
     2    1    4 1   
     3    1   41 1   
     4    1   42 1   
     5    2    3 1   
     6    2   43 1   
     7    2   44 1   
     8    3    4 1   
     9    3   45 1   
    10    3   46 1   
    11    4    5 1   
    12    4    6 1   
    13    5   18 1   
    14    5   47 1   
    15    5   48 1   
    16    6    7 1   
    17    7    8 ar  
    18    7   17 ar  
    19    8    9 ar  
    20    9   10 ar  
    21    9   49 1   
    22   10   11 1   
    23   10   16 ar  
    24   11   12 1   
    25   11   50 1   
    26   11   51 1   
    27   12   13 1   
    28   12   14 1   
    29   12   15 1   
    30   13   52 1   
    31   13   53 1   
    32   13   54 1   
    33   14   55 1   
    34   14   56 1   
    35   14   57 1   
    36   15   58 1   
    37   15   59 1   
    38   15   60 1   
    39   16   17 ar  
    40   16   61 1   
    41   17   18 1   
    42   18   19 1   
    43   18   62 1   
    44   19   20 1   
    45   19   63 1   
    46   19   84 1   
    47   20   21 1   
    48   20   64 1   
    49   20   65 1   
    50   21   22 1   
    51   21   23 1   
    52   21   66 1   
    53   22   67 1   
    54   23   24 1   
    55   23   31 1   
    56   23   68 1   
    57   24   25 1   
    58   24   69 1   
    59   24   85 1   
    60   25   26 2   
    61   25   27 1   
    62   27   28 1   
    63   27   29 1   
    64   27   70 1   
    65   28   71 1   
    66   28   72 1   
    67   28   73 1   
    68   29   30 1   
    69   30   74 1   
    70   30   75 1   
    71   30   76 1   
    72   31   32 1   
    73   31   77 1   
    74   31   78 1   
    75   32   33 ar  
    76   32   40 ar  
    77   33   34 ar  
    78   33   79 1   
    79   34   35 1   
    80   34   38 ar  
    81   35   36 1   
    82   36   37 1   
    83   36   80 1   
    84   36   81 1   
    85   37   38 1   
    86   38   39 ar  
    87   39   40 ar  
    88   39   82 1   
    89   40   83 1   
@<TRIPOS>SUBSTRUCTURE
     1 0KN         1 TEMP              0 ****  ****    0 ROOT
