@<TRIPOS>MOLECULE
0KO
   63    66     1     0     0
SMALL
bcc


@<TRIPOS>ATOM
      1 C31         0.4240    2.7780   -0.2780 c3        1 0KO      0.115700
      2 O30         1.2790    1.6410   -0.0640 os        1 0KO     -0.405100
      3 C27         1.8260    1.4540    1.1620 ca        1 0KO      0.709600
      4 C28         2.6580    0.2910    1.2780 ca        1 0KO     -0.243300
      5 C29         3.2510    0.0280    2.4940 ca        1 0KO     -0.035000
      6 N26         1.5970    2.3130    2.2000 nb        1 0KO     -0.710000
      7 C25         2.1800    2.0410    3.3700 ca        1 0KO      0.523200
      8 C24         3.0340    0.9250    3.5700 ca        1 0KO     -0.262700
      9 N7          3.6630    0.6930    4.8650 n4        1 0KO     -0.580100
     10 C2          2.8020    0.0540    5.8960 ca        1 0KO      0.507200
     11 N1          1.4650    0.1280    5.6810 nb        1 0KO     -0.625000
     12 C6          0.6390   -0.4390    6.5720 ca        1 0KO      0.461200
     13 C5          1.0920   -1.1150    7.7280 ca        1 0KO     -0.135600
     14 C9          0.0940   -1.6800    8.6960 c3        1 0KO      0.194100
     15 N10         0.4870   -2.9720    9.2460 n3        1 0KO     -0.738600
     16 C15         0.2870   -4.0520    8.2840 c3        1 0KO      0.139300
     17 C14         0.5380   -5.4570    8.8770 c3        1 0KO      0.225800
     18 C11        -0.1730   -3.2160   10.5280 c3        1 0KO      0.139300
     19 C12         0.0690   -4.6370   11.0850 c3        1 0KO      0.225800
     20 N13        -0.1530   -5.6740   10.1160 n3        1 0KO     -0.814500
     21 S16        -1.3130   -6.8320   10.3000 s6        1 0KO      1.458900
     22 C32        -0.4940   -8.0720   11.1080 c3        1 0KO     -0.369300
     23 O34        -2.3200   -6.3310   11.1430 o         1 0KO     -0.640300
     24 O33        -1.6880   -7.2910    9.0230 o         1 0KO     -0.640300
     25 C4          2.4700   -1.1770    7.9500 ca        1 0KO     -0.019000
     26 C3          3.3680   -0.5840    7.0390 cp        1 0KO     -0.274800
     27 C8          4.8160   -0.6130    7.3580 cp        1 0KO      0.788500
     28 N21         5.2730   -1.6640    8.1310 nb        1 0KO     -0.708000
     29 N17         5.6180    0.4080    6.9200 nb        1 0KO     -0.765000
     30 C18         6.9300    0.3960    7.3140 ca        1 0KO      0.773300
     31 C22         7.8380    1.5190    6.8940 c3        1 0KO     -0.166400
     32 N19         7.4780   -0.5980    8.1040 nb        1 0KO     -0.698000
     33 C20         6.6010   -1.5830    8.4600 ca        1 0KO      0.768900
     34 N23         7.1480   -2.6860    9.3090 n4        1 0KO     -0.825300
     35 H1         -0.4690    2.7200    0.3890 h1        1 0KO      0.076700
     36 H2          0.1380    2.6580   -1.3550 h1        1 0KO      0.076700
     37 H3          0.9920    3.7240   -0.1120 h1        1 0KO      0.076700
     38 H4          2.7970   -0.3600    0.4010 ha        1 0KO      0.197000
     39 H5          3.8850   -0.8660    2.6100 ha        1 0KO      0.152000
     40 H6          1.9500    2.7570    4.1840 h4        1 0KO      0.047100
     41 H7          4.4810    0.0900    4.7130 hn        1 0KO      0.464800
     42 H8         -0.4440   -0.3400    6.3390 h4        1 0KO      0.080100
     43 H9          0.0050   -0.9370    9.5450 h1        1 0KO      0.075200
     44 H10        -0.9160   -1.7260    8.1860 h1        1 0KO      0.075200
     45 H12        -0.7530   -4.0310    7.8430 h1        1 0KO      0.049450
     46 H13         1.0200   -3.8950    7.4440 h1        1 0KO      0.049450
     47 H14         1.6470   -5.5860    9.0400 h1        1 0KO      0.064700
     48 H15         0.1980   -6.2160    8.1130 h1        1 0KO      0.064700
     49 H16         0.2470   -2.4820   11.2720 h1        1 0KO      0.049450
     50 H17        -1.2870   -3.0440   10.4580 h1        1 0KO      0.049450
     51 H18        -0.6320   -4.7800   11.9590 h1        1 0KO      0.064700
     52 H19         1.1300   -4.7010   11.4620 h1        1 0KO      0.064700
     53 H20        -1.1970   -8.9200   11.3290 h1        1 0KO      0.124367
     54 H21        -0.0690   -7.7700   12.0960 h1        1 0KO      0.124367
     55 H22         0.3430   -8.5210   10.5200 h1        1 0KO      0.124367
     56 H23         2.8370   -1.6920    8.8560 ha        1 0KO      0.195000
     57 H24         7.3480    2.1790    6.1370 hc        1 0KO      0.107367
     58 H25         8.7890    1.1090    6.4650 hc        1 0KO      0.107367
     59 H26         8.0970    2.1350    7.7970 hc        1 0KO      0.107367
     60 H27         8.1800   -2.6470    9.3190 hn        1 0KO      0.496133
     61 H28         6.8400   -3.5960    8.9380 hn        1 0KO      0.496133
     62 H72         3.9720    1.6030    5.2430 hn        1 0KO      0.464800
     63 H233        6.7930   -2.5720   10.2700 hn        1 0KO      0.496133
@<TRIPOS>BOND
     1    1    2 1   
     2    1   35 1   
     3    1   36 1   
     4    1   37 1   
     5    2    3 1   
     6    3    4 ar  
     7    3    6 ar  
     8    4    5 ar  
     9    4   38 1   
    10    5    8 ar  
    11    5   39 1   
    12    6    7 ar  
    13    7    8 ar  
    14    7   40 1   
    15    8    9 1   
    16    9   10 1   
    17    9   41 1   
    18    9   62 1   
    19   10   11 ar  
    20   10   26 ar  
    21   11   12 ar  
    22   12   13 ar  
    23   12   42 1   
    24   13   14 1   
    25   13   25 ar  
    26   14   15 1   
    27   14   43 1   
    28   14   44 1   
    29   15   16 1   
    30   15   18 1   
    31   16   17 1   
    32   16   45 1   
    33   16   46 1   
    34   17   20 1   
    35   17   47 1   
    36   17   48 1   
    37   18   19 1   
    38   18   49 1   
    39   18   50 1   
    40   19   20 1   
    41   19   51 1   
    42   19   52 1   
    43   20   21 1   
    44   21   22 1   
    45   21   23 2   
    46   21   24 2   
    47   22   53 1   
    48   22   54 1   
    49   22   55 1   
    50   25   26 ar  
    51   25   56 1   
    52   26   27 1   
    53   27   28 ar  
    54   27   29 ar  
    55   28   33 ar  
    56   29   30 ar  
    57   30   31 1   
    58   30   32 ar  
    59   31   57 1   
    60   31   58 1   
    61   31   59 1   
    62   32   33 ar  
    63   33   34 1   
    64   34   60 1   
    65   34   61 1   
    66   34   63 1   
@<TRIPOS>SUBSTRUCTURE
     1 0KO         1 TEMP              0 ****  ****    0 ROOT
