@<TRIPOS>MOLECULE
0KO
   61    64     1     0     0
SMALL
bcc


@<TRIPOS>ATOM
      1 C31         0.8440    2.4450   -0.6440 c3        1 0KO      0.125700
      2 O30         1.8730    1.4730   -0.4560 os        1 0KO     -0.449100
      3 C27         2.2330    1.1700    0.8420 ca        1 0KO      0.613600
      4 C28         3.2560    0.1940    0.9580 ca        1 0KO     -0.248300
      5 C29         3.6720   -0.1680    2.2310 ca        1 0KO     -0.103000
      6 N26         1.6440    1.7720    1.9080 nb        1 0KO     -0.719000
      7 C25         2.0680    1.4130    3.1280 ca        1 0KO      0.455200
      8 C24         3.0830    0.4450    3.3620 ca        1 0KO     -0.024700
      9 N7          3.5490    0.1680    4.6660 nh        1 0KO     -0.705300
     10 C2          2.6930   -0.3140    5.6700 ca        1 0KO      0.682200
     11 N1          1.3350   -0.3260    5.4540 nb        1 0KO     -0.721000
     12 C6          0.5330   -0.6850    6.4610 ca        1 0KO      0.455200
     13 C5          0.9810   -1.0530    7.7460 ca        1 0KO     -0.262600
     14 C9          0.0040   -1.3770    8.8290 c3        1 0KO      0.229100
     15 N10         0.2650   -2.6500    9.4950 n3        1 0KO     -0.729600
     16 C15         0.1200   -3.7910    8.6020 c3        1 0KO      0.154800
     17 C14         0.3670   -5.1390    9.3120 c3        1 0KO      0.221800
     18 C11        -0.5270   -2.7950   10.7080 c3        1 0KO      0.154800
     19 C12        -0.2830   -4.1430   11.4200 c3        1 0KO      0.221800
     20 N13        -0.3670   -5.2820   10.5440 n3        1 0KO     -0.824500
     21 S16        -1.2580   -6.5950   10.8900 s6        1 0KO      1.460900
     22 C32        -0.1580   -7.6090   11.7060 c3        1 0KO     -0.359300
     23 O34        -2.2860   -6.2640   11.7990 o         1 0KO     -0.653300
     24 O33        -1.6450   -7.2540    9.7040 o         1 0KO     -0.653300
     25 C4          2.3580   -1.0530    7.9730 ca        1 0KO      0.000000
     26 C3          3.2330   -0.7020    6.9410 cp        1 0KO     -0.315800
     27 C8          4.6910   -0.7390    7.2180 cp        1 0KO      0.774500
     28 N21         5.4720   -1.5030    6.3970 nb        1 0KO     -0.811000
     29 N17         5.1360   -0.0320    8.3040 nb        1 0KO     -0.761000
     30 C18         6.4840   -0.1260    8.5540 ca        1 0KO      0.710300
     31 C22         7.0170    0.6420    9.7400 c3        1 0KO     -0.142400
     32 N19         7.3720   -0.8530    7.8210 nb        1 0KO     -0.788000
     33 C20         6.8260   -1.5260    6.7280 ca        1 0KO      0.902900
     34 N23         7.6880   -2.2230    5.8950 nh        1 0KO     -0.939500
     35 H1          1.1540    3.4320   -0.2250 h1        1 0KO      0.049367
     36 H2         -0.1100    2.1030   -0.1780 h1        1 0KO      0.049367
     37 H3          0.7490    2.4960   -1.7580 h1        1 0KO      0.049367
     38 H4          3.6890   -0.2530    0.0550 ha        1 0KO      0.158000
     39 H5          4.4620   -0.9250    2.3490 ha        1 0KO      0.140000
     40 H6          1.5610    1.9260    3.9670 h4        1 0KO      0.041100
     41 H7          4.4670   -0.2270    4.6790 hn        1 0KO      0.439800
     42 H8         -0.5470   -0.6770    6.2180 h4        1 0KO      0.026100
     43 H9         -1.0440   -1.3430    8.4020 h1        1 0KO      0.042700
     44 H10         0.0740   -0.5680    9.6150 h1        1 0KO      0.042700
     45 H12         0.8880   -3.6860    7.7850 h1        1 0KO      0.045200
     46 H13        -0.9000   -3.8180    8.1190 h1        1 0KO      0.045200
     47 H14         0.0650   -5.9610    8.6010 h1        1 0KO      0.059450
     48 H15         1.4700   -5.2350    9.5280 h1        1 0KO      0.059450
     49 H16        -0.2250   -1.9760   11.4200 h1        1 0KO      0.045200
     50 H17        -1.6330   -2.6870   10.5040 h1        1 0KO      0.045200
     51 H18        -1.0540   -4.2430   12.2370 h1        1 0KO      0.059450
     52 H19         0.7420   -4.1170   11.8930 h1        1 0KO      0.059450
     53 H20        -0.6620   -8.5650   12.0000 h1        1 0KO      0.113033
     54 H21         0.2420   -7.1650   12.6490 h1        1 0KO      0.113033
     55 H22         0.7240   -7.8990   11.0860 h1        1 0KO      0.113033
     56 H23         2.7530   -1.3340    8.9630 ha        1 0KO      0.163000
     57 H24         6.4600    0.3410   10.6610 hc        1 0KO      0.067700
     58 H25         8.1060    0.4500    9.8940 hc        1 0KO      0.067700
     59 H26         6.8610    1.7360    9.5660 hc        1 0KO      0.067700
     60 H27         8.6160   -2.3820    6.2070 hn        1 0KO      0.442300
     61 H28         7.3000   -2.8530    5.2360 hn        1 0KO      0.442300
@<TRIPOS>BOND
     1    1    2 1   
     2    1   35 1   
     3    1   36 1   
     4    1   37 1   
     5    2    3 1   
     6    3    4 ar  
     7    3    6 ar  
     8    4    5 ar  
     9    4   38 1   
    10    5    8 ar  
    11    5   39 1   
    12    6    7 ar  
    13    7    8 ar  
    14    7   40 1   
    15    8    9 1   
    16    9   10 1   
    17    9   41 1   
    18   10   11 ar  
    19   10   26 ar  
    20   11   12 ar  
    21   12   13 ar  
    22   12   42 1   
    23   13   14 1   
    24   13   25 ar  
    25   14   15 1   
    26   14   43 1   
    27   14   44 1   
    28   15   16 1   
    29   15   18 1   
    30   16   17 1   
    31   16   45 1   
    32   16   46 1   
    33   17   20 1   
    34   17   47 1   
    35   17   48 1   
    36   18   19 1   
    37   18   49 1   
    38   18   50 1   
    39   19   20 1   
    40   19   51 1   
    41   19   52 1   
    42   20   21 1   
    43   21   22 1   
    44   21   23 2   
    45   21   24 2   
    46   22   53 1   
    47   22   54 1   
    48   22   55 1   
    49   25   26 ar  
    50   25   56 1   
    51   26   27 1   
    52   27   28 ar  
    53   27   29 ar  
    54   28   33 ar  
    55   29   30 ar  
    56   30   31 1   
    57   30   32 ar  
    58   31   57 1   
    59   31   58 1   
    60   31   59 1   
    61   32   33 ar  
    62   33   34 1   
    63   34   60 1   
    64   34   61 1   
@<TRIPOS>SUBSTRUCTURE
     1 0KO         1 TEMP              0 ****  ****    0 ROOT
