@<TRIPOS>MOLECULE
0KO
   61    64     1     0     0
SMALL
bcc


@<TRIPOS>ATOM
      1 C31        -6.1430    6.0630   -1.6870 c3        1 0KO      0.125700
      2 O30        -6.1120    5.3030   -0.4790 os        1 0KO     -0.449100
      3 C27        -5.3730    4.1360   -0.4810 ca        1 0KO      0.613600
      4 C28        -5.3800    3.4320    0.7500 ca        1 0KO     -0.248300
      5 C29        -4.6570    2.2510    0.8310 ca        1 0KO     -0.103000
      6 N26        -4.7020    3.7150   -1.5840 nb        1 0KO     -0.719000
      7 C25        -4.0170    2.5660   -1.4860 ca        1 0KO      0.455200
      8 C24        -3.9520    1.7810   -0.3010 ca        1 0KO     -0.024700
      9 N7         -3.2850    0.5360   -0.2800 nh        1 0KO     -0.705300
     10 C2         -1.9150    0.4270   -0.5700 ca        1 0KO      0.682200
     11 N1         -1.2430    1.5110   -1.0850 nb        1 0KO     -0.721000
     12 C6          0.0310    1.3530   -1.4550 ca        1 0KO      0.455200
     13 C5          0.7460    0.1420   -1.3600 ca        1 0KO     -0.262600
     14 C9          2.1510    0.0450   -1.8600 c3        1 0KO      0.229100
     15 N10         3.0830   -0.5180   -0.8880 n3        1 0KO     -0.730600
     16 C15         3.2380    0.3180    0.2930 c3        1 0KO      0.154800
     17 C14         4.2460   -0.2620    1.3080 c3        1 0KO      0.221800
     18 C11         4.3630   -0.8500   -1.5000 c3        1 0KO      0.154800
     19 C12         5.3740   -1.4300   -0.4880 c3        1 0KO      0.221800
     20 N13         5.5010   -0.6470    0.7140 n3        1 0KO     -0.824500
     21 S16         6.9370   -0.1910    1.3180 s6        1 0KO      1.460900
     22 C32         7.3300   -1.4560    2.3910 c3        1 0KO     -0.359300
     23 O34         7.9150   -0.1760    0.3010 o         1 0KO     -0.653300
     24 O33         6.7980    0.9870    2.0830 o         1 0KO     -0.653300
     25 C4          0.0760   -0.9620   -0.8290 ca        1 0KO      0.000000
     26 C3         -1.2520   -0.8350   -0.4130 cp        1 0KO     -0.315800
     27 C8         -1.9190   -2.0270    0.1690 cp        1 0KO      0.774500
     28 N21        -2.4660   -1.9020    1.4150 nb        1 0KO     -0.811000
     29 N17        -1.8990   -3.1760   -0.5770 nb        1 0KO     -0.761000
     30 C18        -2.4880   -4.2690    0.0130 ca        1 0KO      0.710300
     31 C22        -2.4920   -5.5560   -0.7780 c3        1 0KO     -0.142400
     32 N19        -3.0640   -4.2840    1.2460 nb        1 0KO     -0.788000
     33 C20        -3.0470   -3.0630    1.9210 ca        1 0KO      0.902900
     34 N23        -3.6850   -2.9890    3.1500 nh        1 0KO     -0.939500
     35 H1         -6.5990    5.4700   -2.5140 h1        1 0KO      0.049367
     36 H2         -6.7910    6.9360   -1.4170 h1        1 0KO      0.049367
     37 H3         -5.1170    6.4020   -1.9660 h1        1 0KO      0.049367
     38 H4         -5.9430    3.8290    1.6040 ha        1 0KO      0.158000
     39 H5         -4.6430    1.6870    1.7760 ha        1 0KO      0.140000
     40 H6         -3.4850    2.2600   -2.4060 h4        1 0KO      0.041100
     41 H7         -3.6040   -0.0670    0.4490 hn        1 0KO      0.439800
     42 H8          0.5130    2.2650   -1.8570 h4        1 0KO      0.026100
     43 H9          2.1530   -0.6370   -2.7610 h1        1 0KO      0.042700
     44 H10         2.4880    1.0680   -2.2100 h1        1 0KO      0.042700
     45 H12         3.5580    1.3670    0.0250 h1        1 0KO      0.045200
     46 H13         2.2350    0.3810    0.8010 h1        1 0KO      0.045200
     47 H14         4.4320    0.5240    2.0950 h1        1 0KO      0.059450
     48 H15         3.7810   -1.1640    1.8020 h1        1 0KO      0.059450
     49 H16         4.1800   -1.6370   -2.2840 h1        1 0KO      0.045200
     50 H17         4.8300    0.0440   -2.0080 h1        1 0KO      0.045200
     51 H18         5.0450   -2.4750   -0.2130 h1        1 0KO      0.059450
     52 H19         6.3770   -1.4910   -1.0010 h1        1 0KO      0.059450
     53 H20         8.3160   -1.2530    2.8800 h1        1 0KO      0.113033
     54 H21         6.5910   -1.5840    3.2180 h1        1 0KO      0.113033
     55 H22         7.4290   -2.4490    1.8900 h1        1 0KO      0.113033
     56 H23         0.5970   -1.9290   -0.7360 ha        1 0KO      0.163000
     57 H24        -1.4450   -5.8210   -1.0660 hc        1 0KO      0.067700
     58 H25        -2.9310   -6.3960   -0.1880 hc        1 0KO      0.067700
     59 H26        -3.0950   -5.4100   -1.7080 hc        1 0KO      0.067700
     60 H27        -3.5200   -2.1950    3.7200 hn        1 0KO      0.442300
     61 H28        -3.9550   -3.8360    3.5900 hn        1 0KO      0.442300
@<TRIPOS>BOND
     1    1    2 1   
     2    1   35 1   
     3    1   36 1   
     4    1   37 1   
     5    2    3 1   
     6    3    4 ar  
     7    3    6 ar  
     8    4    5 ar  
     9    4   38 1   
    10    5    8 ar  
    11    5   39 1   
    12    6    7 ar  
    13    7    8 ar  
    14    7   40 1   
    15    8    9 1   
    16    9   10 1   
    17    9   41 1   
    18   10   11 ar  
    19   10   26 ar  
    20   11   12 ar  
    21   12   13 ar  
    22   12   42 1   
    23   13   14 1   
    24   13   25 ar  
    25   14   15 1   
    26   14   43 1   
    27   14   44 1   
    28   15   16 1   
    29   15   18 1   
    30   16   17 1   
    31   16   45 1   
    32   16   46 1   
    33   17   20 1   
    34   17   47 1   
    35   17   48 1   
    36   18   19 1   
    37   18   49 1   
    38   18   50 1   
    39   19   20 1   
    40   19   51 1   
    41   19   52 1   
    42   20   21 1   
    43   21   22 1   
    44   21   23 2   
    45   21   24 2   
    46   22   53 1   
    47   22   54 1   
    48   22   55 1   
    49   25   26 ar  
    50   25   56 1   
    51   26   27 1   
    52   27   28 ar  
    53   27   29 ar  
    54   28   33 ar  
    55   29   30 ar  
    56   30   31 1   
    57   30   32 ar  
    58   31   57 1   
    59   31   58 1   
    60   31   59 1   
    61   32   33 ar  
    62   33   34 1   
    63   34   60 1   
    64   34   61 1   
@<TRIPOS>SUBSTRUCTURE
     1 0KO         1 TEMP              0 ****  ****    0 ROOT
