@<TRIPOS>MOLECULE
0KO
   61    54     1     0     0
SMALL
bcc


@<TRIPOS>ATOM
      1 C31         1.0910    3.2840   -7.7050 c3        1 0KO     -0.064000
      2 O30         2.1000    2.2620   -7.5440 os        1 0KO     -0.207000
      3 C27         2.0200    1.5880   -6.3600 c1        1 0KO      0.116000
      4 C28         2.8550    1.9600   -5.2760 c1        1 0KO     -0.143000
      5 C29         2.7640    1.3090   -4.1030 c1        1 0KO     -0.143000
      6 N26         1.1310    0.5790   -6.2150 n1        1 0KO     -0.193000
      7 C25         1.0380   -0.0860   -5.0160 c1        1 0KO     -0.009000
      8 C24         1.8580    0.2790   -3.9530 c1        1 0KO     -0.042000
      9 N7          1.8230   -0.4740   -2.7250 n3        1 0KO     -0.226000
     10 C2          1.0230   -0.0130   -1.6300 c1        1 0KO      0.164000
     11 N1         -0.2450    0.4610   -1.8660 n1        1 0KO     -0.197000
     12 C6         -1.0470    0.8340   -0.8220 c1        1 0KO      0.008000
     13 C5         -0.5780    0.7340    0.4920 c1        1 0KO     -0.193000
     14 C9         -1.4630    1.1880    1.6540 c3        1 0KO     -0.013000
     15 N10        -2.4330    0.1170    1.9850 n3        1 0KO     -0.255000
     16 C15        -3.7540    0.6680    2.0200 c3        1 0KO     -0.085500
     17 C14        -4.7800   -0.3320    2.5000 c3        1 0KO     -0.013500
     18 C11        -2.0600   -0.4980    3.2290 c3        1 0KO     -0.085500
     19 C12        -3.1020   -1.5030    3.7160 c3        1 0KO     -0.013500
     20 N13        -4.3980   -0.9570    3.7510 n3        1 0KO     -0.841000
     21 S16        -5.5480   -1.6070    4.7340 s4        1 0KO      2.033800
     22 C32        -5.8250   -0.5570    6.1220 c2        1 0KO     -0.942000
     23 O34        -6.7630   -1.8540    4.0160 o         1 0KO     -0.537900
     24 O33        -5.1810   -2.9770    5.1600 o         1 0KO     -0.537900
     25 C4          0.6900    0.2600    0.7350 c1        1 0KO     -0.017000
     26 C3          1.4980   -0.1160   -0.3210 c1        1 0KO     -0.144000
     27 C8          2.9630   -0.5630   -0.0580 c2        1 0KO      0.141000
     28 N21         3.9530    0.3270   -0.1270 n2        1 0KO     -0.285000
     29 N17         3.2230   -1.8380    0.3110 n1        1 0KO     -0.240000
     30 C18         4.4810   -2.2080    0.6090 c1        1 0KO      0.090000
     31 C22         4.7660   -3.6320    1.0560 c3        1 0KO     -0.166000
     32 N19         5.4740   -1.3150    0.5400 n1        1 0KO     -0.262000
     33 C20         5.2130   -0.0420    0.1710 c1        1 0KO      0.186000
     34 N23         6.2580    0.9100    0.1260 n2        1 0KO     -0.338000
     35 H1          1.0090    3.5060   -8.6290 h1        1 0KO      0.089000
     36 H2          0.2140    2.9430   -7.3650 h1        1 0KO      0.089000
     37 H3          1.3540    4.0920   -7.1930 h1        1 0KO      0.089000
     38 H4          3.5380    2.7330   -5.3870 ha        1 0KO      0.149000
     39 H5          3.3430    1.5670   -3.3520 ha        1 0KO      0.149000
     40 H6          0.3770   -0.8380   -4.9060 ha        1 0KO      0.178000
     41 H7          2.3570   -1.2250   -2.6270 hn        1 0KO      0.236000
     42 H8         -1.9580    1.1730   -0.9980 ha        1 0KO      0.177000
     43 H9         -1.9620    2.0230    1.3900 h1        1 0KO      0.080000
     44 H10        -0.8770    1.3860    2.4750 h1        1 0KO      0.080000
     45 H12        -4.0110    0.9810    1.0830 h1        1 0KO      0.080250
     46 H13        -3.7600    1.4400    2.6240 h1        1 0KO      0.080250
     47 H14        -5.6810    0.1490    2.6290 h1        1 0KO      0.104250
     48 H15        -4.8880   -1.0450    1.8020 h1        1 0KO      0.104250
     49 H16        -1.2290   -0.9480    3.1160 h1        1 0KO      0.080250
     50 H17        -1.9510    0.2180    3.9230 h1        1 0KO      0.080250
     51 H18        -2.8640   -1.7930    4.6040 h1        1 0KO      0.104250
     52 H19        -3.0990   -2.2840    3.1120 h1        1 0KO      0.104250
     53 H20        -6.3000   -1.0510    6.8100 ha        1 0KO      0.150333
     54 H21        -6.3640    0.2210    5.8430 ha        1 0KO      0.150333
     55 H22        -4.9650   -0.2500    6.4750 ha        1 0KO      0.150333
     56 H23         1.0270    0.1870    1.6730 ha        1 0KO      0.150000
     57 H24         3.9470   -4.0080    1.5450 hc        1 0KO      0.107000
     58 H25         4.9640   -4.1940    0.2600 hc        1 0KO      0.107000
     59 H26         5.5520   -3.6380    1.6730 hc        1 0KO      0.107000
     60 H27         7.1190    0.6510    0.2870 hn        1 0KO      0.239000
     61 H28         6.0650    1.8190   -0.0710 hn        1 0KO      0.239000
@<TRIPOS>BOND
     1    1    2 1   
     2    1   35 1   
     3    1   36 1   
     4    1   37 1   
     5    2    3 1   
     6    3    6 1   
     7    4    5 1   
     8    4   38 1   
     9    5   39 1   
    10    7    8 1   
    11    7   40 1   
    12    8    9 1   
    13    9   10 1   
    14    9   41 1   
    15   10   26 1   
    16   11   12 1   
    17   12   42 1   
    18   13   14 1   
    19   13   25 1   
    20   14   15 1   
    21   14   43 1   
    22   14   44 1   
    23   15   16 1   
    24   15   18 1   
    25   16   17 1   
    26   16   45 1   
    27   16   46 1   
    28   17   20 1   
    29   17   47 1   
    30   17   48 1   
    31   18   19 1   
    32   18   49 1   
    33   18   50 1   
    34   19   20 1   
    35   19   51 1   
    36   19   52 1   
    37   20   21 1   
    38   21   23 1   
    39   21   24 1   
    40   22   53 1   
    41   22   54 1   
    42   22   55 1   
    43   25   56 1   
    44   26   27 1   
    45   27   28 1   
    46   27   29 1   
    47   28   33 1   
    48   30   31 1   
    49   30   32 1   
    50   31   57 1   
    51   31   58 1   
    52   31   59 1   
    53   34   60 1   
    54   34   61 1   
@<TRIPOS>SUBSTRUCTURE
     1 0KO         1 TEMP              0 ****  ****    0 ROOT
