@<TRIPOS>MOLECULE
0KO
   61    64     1     0     0
SMALL
bcc


@<TRIPOS>ATOM
      1 C31         0.8210    2.4070   -0.6590 c3        1 0KO      0.125700
      2 O30         1.8530    1.4400   -0.4690 os        1 0KO     -0.449100
      3 C27         2.2160    1.1440    0.8310 ca        1 0KO      0.613600
      4 C28         3.2420    0.1720    0.9490 ca        1 0KO     -0.248300
      5 C29         3.6610   -0.1830    2.2230 ca        1 0KO     -0.103000
      6 N26         1.6260    1.7490    1.8940 nb        1 0KO     -0.719000
      7 C25         2.0520    1.3960    3.1160 ca        1 0KO      0.455200
      8 C24         3.0710    0.4320    3.3520 ca        1 0KO     -0.024700
      9 N7          3.5400    0.1620    4.6570 nu        1 0KO     -0.705300
     10 C2          2.6870   -0.3180    5.6640 ca        1 0KO      0.682200
     11 N1          1.3280   -0.3350    5.4500 nb        1 0KO     -0.721000
     12 C6          0.5290   -0.6930    6.4590 ca        1 0KO      0.455200
     13 C5          0.9800   -1.0540    7.7450 ca        1 0KO     -0.262600
     14 C9          0.0040   -1.3780    8.8310 c3        1 0KO      0.229100
     15 N10         0.2710   -2.6470    9.5010 n3        1 0KO     -0.730600
     16 C15         0.1290   -3.7920    8.6130 c3        1 0KO      0.154800
     17 C14         0.3820   -5.1360    9.3280 c3        1 0KO      0.221800
     18 C11        -0.5190   -2.7900   10.7160 c3        1 0KO      0.154800
     19 C12        -0.2690   -4.1340   11.4330 c3        1 0KO      0.221800
     20 N13        -0.3500   -5.2780   10.5610 n3        1 0KO     -0.824500
     21 S16        -1.2350   -6.5920   10.9140 s6        1 0KO      1.460900
     22 C32        -0.1290   -7.5990   11.7330 c3        1 0KO     -0.359300
     23 O34        -2.2630   -6.2620   11.8230 o         1 0KO     -0.653300
     24 O33        -1.6210   -7.2580    9.7310 o         1 0KO     -0.653300
     25 C4          2.3570   -1.0490    7.9700 ca        1 0KO      0.000000
     26 C3          3.2290   -0.6990    6.9360 cp        1 0KO     -0.315800
     27 C8          4.6880   -0.7300    7.2110 cp        1 0KO      0.774500
     28 N21         5.4710   -1.4960    6.3930 nb        1 0KO     -0.811000
     29 N17         5.1320   -0.0170    8.2940 nb        1 0KO     -0.761000
     30 C18         6.4810   -0.1060    8.5430 ca        1 0KO      0.710300
     31 C22         7.0120    0.6680    9.7240 c3        1 0KO     -0.142400
     32 N19         7.3700   -0.8340    7.8110 nb        1 0KO     -0.788000
     33 C20         6.8250   -1.5130    6.7210 ca        1 0KO      0.902900
     34 N23         7.6870   -2.2110    5.8910 nv        1 0KO     -0.939500
     35 H1         -0.1320    2.0640   -0.1900 h1        1 0KO      0.049367
     36 H2          1.1270    3.3970   -0.2450 h1        1 0KO      0.049367
     37 H3          0.7230    2.4540   -1.7740 h1        1 0KO      0.049367
     38 H4          3.6760   -0.2770    0.0470 ha        1 0KO      0.158000
     39 H5          4.4540   -0.9370    2.3430 ha        1 0KO      0.140000
     40 H6          1.5450    1.9110    3.9530 h4        1 0KO      0.041100
     41 H7          4.4590   -0.2290    4.6700 hn        1 0KO      0.439800
     42 H8         -0.5520   -0.6900    6.2170 h4        1 0KO      0.026100
     43 H9         -1.0440   -1.3490    8.4040 h1        1 0KO      0.042700
     44 H10         0.0730   -0.5650    9.6130 h1        1 0KO      0.042700
     45 H12         0.8960   -3.6880    7.7950 h1        1 0KO      0.045200
     46 H13        -0.8920   -3.8250    8.1320 h1        1 0KO      0.045200
     47 H14         0.0820   -5.9630    8.6210 h1        1 0KO      0.059450
     48 H15         1.4860   -5.2280    9.5430 h1        1 0KO      0.059450
     49 H16        -0.2200   -1.9680   11.4240 h1        1 0KO      0.045200
     50 H17        -1.6250   -2.6880   10.5120 h1        1 0KO      0.045200
     51 H18        -1.0390   -4.2350   12.2510 h1        1 0KO      0.059450
     52 H19         0.7560   -4.1030   11.9050 h1        1 0KO      0.059450
     53 H20         0.7530   -7.8890   11.1120 h1        1 0KO      0.113033
     54 H21        -0.6290   -8.5550   12.0310 h1        1 0KO      0.113033
     55 H22         0.2710   -7.1490   12.6730 h1        1 0KO      0.113033
     56 H23         2.7540   -1.3250    8.9610 ha        1 0KO      0.163000
     57 H24         8.1020    0.4790    9.8790 hc        1 0KO      0.067700
     58 H25         6.4560    0.3710   10.6470 hc        1 0KO      0.067700
     59 H26         6.8550    1.7610    9.5450 hc        1 0KO      0.067700
     60 H27         8.6170   -2.3650    6.2020 hn        1 0KO      0.442300
     61 H28         7.3010   -2.8440    5.2340 hn        1 0KO      0.442300
@<TRIPOS>BOND
     1    1    2 1   
     2    1   35 1   
     3    1   36 1   
     4    1   37 1   
     5    2    3 1   
     6    3    4 ar  
     7    3    6 ar  
     8    4    5 ar  
     9    4   38 1   
    10    5    8 ar  
    11    5   39 1   
    12    6    7 ar  
    13    7    8 ar  
    14    7   40 1   
    15    8    9 1   
    16    9   10 1   
    17    9   41 1   
    18   10   11 ar  
    19   10   26 ar  
    20   11   12 ar  
    21   12   13 ar  
    22   12   42 1   
    23   13   14 1   
    24   13   25 ar  
    25   14   15 1   
    26   14   43 1   
    27   14   44 1   
    28   15   16 1   
    29   15   18 1   
    30   16   17 1   
    31   16   45 1   
    32   16   46 1   
    33   17   20 1   
    34   17   47 1   
    35   17   48 1   
    36   18   19 1   
    37   18   49 1   
    38   18   50 1   
    39   19   20 1   
    40   19   51 1   
    41   19   52 1   
    42   20   21 1   
    43   21   22 1   
    44   21   23 2   
    45   21   24 2   
    46   22   53 1   
    47   22   54 1   
    48   22   55 1   
    49   25   26 ar  
    50   25   56 1   
    51   26   27 1   
    52   27   28 ar  
    53   27   29 ar  
    54   28   33 ar  
    55   29   30 ar  
    56   30   31 1   
    57   30   32 ar  
    58   31   57 1   
    59   31   58 1   
    60   31   59 1   
    61   32   33 ar  
    62   33   34 1   
    63   34   60 1   
    64   34   61 1   
@<TRIPOS>SUBSTRUCTURE
     1 0KO         1 TEMP              0 ****  ****    0 ROOT
