@<TRIPOS>MOLECULE
0KP
   44    47     1     0     0
SMALL
bcc


@<TRIPOS>ATOM
      1 O1         -0.1770    0.4620    0.1910 o         1 0KP     -0.591500
      2 C1          1.0140    0.2710   -0.0730 c         1 0KP      0.700500
      3 C2          2.1620   -0.1360    0.9180 c3        1 0KP      0.224800
      4 N1          3.3770   -0.1520    0.0590 nh        1 0KP     -0.807200
      5 C3          2.9820    0.1370   -1.3140 c2        1 0KP      0.616800
      6 N2          1.5640    0.3670   -1.3570 n         1 0KP     -0.404300
      7 N3          3.7380    0.2440   -2.3640 n2        1 0KP     -0.822100
      8 C4          0.9020    0.9110   -2.5010 c3        1 0KP      0.098300
      9 C5          2.2370    0.9060    2.0160 ca        1 0KP     -0.089300
     10 C6          3.4220    1.5770    2.3350 ca        1 0KP     -0.102000
     11 C7          3.4400    2.5090    3.3740 ca        1 0KP     -0.136500
     12 C8          2.2830    2.7780    4.1010 ca        1 0KP     -0.118000
     13 C9          1.0990    2.1110    3.7870 ca        1 0KP     -0.136500
     14 C10         1.0740    1.1790    2.7520 ca        1 0KP     -0.102000
     15 C11         1.9070   -1.4940    1.5440 ca        1 0KP     -0.109300
     16 C12         0.7390   -2.2220    1.3100 ca        1 0KP     -0.105000
     17 C13         0.5670   -3.4710    1.9090 ca        1 0KP     -0.128000
     18 C14         1.5510   -4.0000    2.7380 ca        1 0KP     -0.108000
     19 C15         2.7280   -3.2760    2.9850 cp        1 0KP     -0.035000
     20 C16         2.8960   -2.0220    2.3840 ca        1 0KP     -0.105000
     21 C17         5.7920   -4.7990    5.4360 ca        1 0KP      0.396200
     22 N4          6.1300   -4.1270    4.3180 nb        1 0KP     -0.662000
     23 C18         5.1310   -3.6510    3.5540 ca        1 0KP      0.404200
     24 C19         3.7600   -3.8180    3.8590 cp        1 0KP     -0.153300
     25 C20         3.4340   -4.5230    5.0270 ca        1 0KP     -0.082000
     26 C21         4.4600   -5.0210    5.8300 ca        1 0KP     -0.244300
     27 H1          4.7050    0.0520   -2.2140 hn        1 0KP      0.408400
     28 H3          1.3360    1.9100   -2.7740 h1        1 0KP      0.057367
     29 H4          1.0280    0.2140   -3.3730 h1        1 0KP      0.057367
     30 H5         -0.1900    1.0270   -2.2630 h1        1 0KP      0.057367
     31 H6          4.3520    1.3870    1.7780 ha        1 0KP      0.150500
     32 H7          4.3770    3.0330    3.6160 ha        1 0KP      0.134000
     33 H8          2.3020    3.5140    4.9180 ha        1 0KP      0.132000
     34 H9          0.1800    2.3190    4.3540 ha        1 0KP      0.134000
     35 H10         0.1340    0.6610    2.4990 ha        1 0KP      0.150500
     36 H11        -0.0610   -1.8180    0.6680 ha        1 0KP      0.156000
     37 H12        -0.3560   -4.0410    1.7210 ha        1 0KP      0.140000
     38 H13         1.4120   -4.9890    3.2000 ha        1 0KP      0.138000
     39 H14         3.8040   -1.4330    2.5950 ha        1 0KP      0.146000
     40 H16         5.4400   -3.1080    2.6420 h4        1 0KP      0.022100
     41 H17         2.3810   -4.6720    5.3090 ha        1 0KP      0.142000
     42 H18         4.2380   -5.5740    6.7520 ha        1 0KP      0.146000
     43 H19         3.8940   -1.0050    0.1420 hn        1 0KP      0.402800
     44 H15         6.6340   -5.1760    6.0420 h4        1 0KP      0.024100
@<TRIPOS>BOND
     1    1    2 2   
     2    2    3 1   
     3    2    6 1   
     4    3    4 1   
     5    3    9 1   
     6    3   15 1   
     7    4    5 1   
     8    4   43 1   
     9    5    6 1   
    10    5    7 2   
    11    6    8 1   
    12    7   27 1   
    13    8   28 1   
    14    8   29 1   
    15    8   30 1   
    16    9   10 ar  
    17    9   14 ar  
    18   10   11 ar  
    19   10   31 1   
    20   11   12 ar  
    21   11   32 1   
    22   12   13 ar  
    23   12   33 1   
    24   13   14 ar  
    25   13   34 1   
    26   14   35 1   
    27   15   16 ar  
    28   15   20 ar  
    29   16   17 ar  
    30   16   36 1   
    31   17   18 ar  
    32   17   37 1   
    33   18   19 ar  
    34   18   38 1   
    35   19   20 ar  
    36   19   24 1   
    37   20   39 1   
    38   21   22 ar  
    39   21   26 ar  
    40   21   44 1   
    41   22   23 ar  
    42   23   24 ar  
    43   23   40 1   
    44   24   25 ar  
    45   25   26 ar  
    46   25   41 1   
    47   26   42 1   
@<TRIPOS>SUBSTRUCTURE
     1 0KP         1 TEMP              0 ****  ****    0 ROOT
