@<TRIPOS>MOLECULE
0KP
   44    47     1     0     0
SMALL
bcc


@<TRIPOS>ATOM
      1 O1         -0.1870    0.4560    0.2010 o         1 0KP     -0.591500
      2 C1          1.0020    0.2630   -0.0690 c         1 0KP      0.700500
      3 C2          2.1560   -0.1410    0.9160 c3        1 0KP      0.224800
      4 N1          3.3660   -0.1610    0.0510 nu        1 0KP     -0.807200
      5 C3          2.9630    0.1230   -1.3210 c2        1 0KP      0.616800
      6 N2          1.5440    0.3530   -1.3570 n         1 0KP     -0.404300
      7 N3          3.7130    0.2250   -2.3770 n2        1 0KP     -0.822100
      8 C4          0.8760    0.8940   -2.4990 c3        1 0KP      0.098300
      9 C5          2.2380    0.9060    2.0100 ca        1 0KP     -0.089300
     10 C6          3.4260    1.5760    2.3200 ca        1 0KP     -0.102000
     11 C7          3.4510    2.5130    3.3540 ca        1 0KP     -0.136500
     12 C8          2.2980    2.7860    4.0870 ca        1 0KP     -0.118000
     13 C9          1.1110    2.1190    3.7820 ca        1 0KP     -0.136500
     14 C10         1.0800    1.1830    2.7510 ca        1 0KP     -0.102000
     15 C11         1.9040   -1.4960    1.5490 ca        1 0KP     -0.109300
     16 C12         0.7350   -2.2250    1.3250 ca        1 0KP     -0.104000
     17 C13         0.5660   -3.4720    1.9290 ca        1 0KP     -0.128000
     18 C14         1.5540   -3.9970    2.7550 ca        1 0KP     -0.108000
     19 C15         2.7320   -3.2720    2.9930 cp        1 0KP     -0.035000
     20 C16         2.8980   -2.0210    2.3860 ca        1 0KP     -0.105000
     21 C17         5.8090   -4.7850    5.4340 ca        1 0KP      0.396200
     22 N4          6.1410   -4.1170    4.3120 nb        1 0KP     -0.662000
     23 C18         5.1380   -3.6440    3.5510 ca        1 0KP      0.404200
     24 C19         3.7690   -3.8110    3.8640 cp        1 0KP     -0.153300
     25 C20         3.4490   -4.5120    5.0370 ca        1 0KP     -0.082000
     26 C21         4.4790   -5.0060    5.8350 ca        1 0KP     -0.244300
     27 H1          4.6810    0.0340   -2.2310 hn        1 0KP      0.408400
     28 H3          0.9970    0.1940   -3.3690 h1        1 0KP      0.057367
     29 H4         -0.2140    1.0110   -2.2550 h1        1 0KP      0.057367
     30 H5          1.3090    1.8920   -2.7780 h1        1 0KP      0.057367
     31 H6          4.3520    1.3840    1.7580 ha        1 0KP      0.150500
     32 H7          4.3890    3.0370    3.5890 ha        1 0KP      0.134000
     33 H8          2.3220    3.5250    4.9010 ha        1 0KP      0.132000
     34 H9          0.1960    2.3300    4.3540 ha        1 0KP      0.134000
     35 H10         0.1380    0.6650    2.5060 ha        1 0KP      0.150500
     36 H11        -0.0690   -1.8230    0.6860 ha        1 0KP      0.156000
     37 H12        -0.3580   -4.0420    1.7480 ha        1 0KP      0.140000
     38 H13         1.4170   -4.9840    3.2210 ha        1 0KP      0.138000
     39 H14         3.8070   -1.4310    2.5900 ha        1 0KP      0.146000
     40 H16         5.4430   -3.1050    2.6360 h4        1 0KP      0.022100
     41 H17         2.3970   -4.6600    5.3240 ha        1 0KP      0.142000
     42 H18         4.2620   -5.5560    6.7610 ha        1 0KP      0.146000
     43 H19         3.8830   -1.0130    0.1340 hn        1 0KP      0.402800
     44 H15         6.6540   -5.1600    6.0380 h4        1 0KP      0.024100
@<TRIPOS>BOND
     1    1    2 2   
     2    2    3 1   
     3    2    6 1   
     4    3    4 1   
     5    3    9 1   
     6    3   15 1   
     7    4    5 1   
     8    4   43 1   
     9    5    6 1   
    10    5    7 2   
    11    6    8 1   
    12    7   27 1   
    13    8   28 1   
    14    8   29 1   
    15    8   30 1   
    16    9   10 ar  
    17    9   14 ar  
    18   10   11 ar  
    19   10   31 1   
    20   11   12 ar  
    21   11   32 1   
    22   12   13 ar  
    23   12   33 1   
    24   13   14 ar  
    25   13   34 1   
    26   14   35 1   
    27   15   16 ar  
    28   15   20 ar  
    29   16   17 ar  
    30   16   36 1   
    31   17   18 ar  
    32   17   37 1   
    33   18   19 ar  
    34   18   38 1   
    35   19   20 ar  
    36   19   24 1   
    37   20   39 1   
    38   21   22 ar  
    39   21   26 ar  
    40   21   44 1   
    41   22   23 ar  
    42   23   24 ar  
    43   23   40 1   
    44   24   25 ar  
    45   25   26 ar  
    46   25   41 1   
    47   26   42 1   
@<TRIPOS>SUBSTRUCTURE
     1 0KP         1 TEMP              0 ****  ****    0 ROOT
