@<TRIPOS>MOLECULE
0KP
   44    47     1     0     0
SMALL
bcc


@<TRIPOS>ATOM
      1 O1         -0.1760    0.4620    0.1880 o         1 0KP     -0.591500
      2 C1          1.0160    0.2700   -0.0750 c         1 0KP      0.700500
      3 C2          2.1630   -0.1370    0.9160 c3        1 0KP      0.224800
      4 N1          3.3780   -0.1530    0.0590 nh        1 0KP     -0.807200
      5 C3          2.9850    0.1360   -1.3150 c2        1 0KP      0.616800
      6 N2          1.5660    0.3660   -1.3590 n         1 0KP     -0.404300
      7 N3          3.7420    0.2420   -2.3650 n2        1 0KP     -0.822100
      8 C4          0.9050    0.9100   -2.5030 c3        1 0KP      0.098300
      9 C5          2.2380    0.9060    2.0150 ca        1 0KP     -0.089300
     10 C6          3.4230    1.5750    2.3350 ca        1 0KP     -0.102000
     11 C7          3.4410    2.5080    3.3730 ca        1 0KP     -0.136500
     12 C8          2.2830    2.7780    4.0990 ca        1 0KP     -0.118000
     13 C9          1.0990    2.1110    3.7840 ca        1 0KP     -0.136500
     14 C10         1.0750    1.1790    2.7500 ca        1 0KP     -0.102000
     15 C11         1.9080   -1.4940    1.5420 ca        1 0KP     -0.110300
     16 C12         0.7400   -2.2230    1.3070 ca        1 0KP     -0.104000
     17 C13         0.5680   -3.4730    1.9050 ca        1 0KP     -0.128000
     18 C14         1.5510   -4.0000    2.7370 ca        1 0KP     -0.108000
     19 C15         2.7260   -3.2750    2.9850 cp        1 0KP     -0.035000
     20 C16         2.8960   -2.0220    2.3840 ca        1 0KP     -0.105000
     21 C17         5.7870   -4.7960    5.4420 ca        1 0KP      0.396200
     22 N4          6.1270   -4.1240    4.3250 nb        1 0KP     -0.662000
     23 C18         5.1290   -3.6490    3.5590 ca        1 0KP      0.404200
     24 C19         3.7570   -3.8170    3.8610 cp        1 0KP     -0.153300
     25 C20         3.4290   -4.5220    5.0300 ca        1 0KP     -0.082000
     26 C21         4.4540   -5.0190    5.8340 ca        1 0KP     -0.244300
     27 H1          4.7090    0.0500   -2.2140 hn        1 0KP      0.408400
     28 H3         -0.1860    1.0260   -2.2660 h1        1 0KP      0.057367
     29 H4          1.0330    0.2140   -3.3750 h1        1 0KP      0.057367
     30 H5          1.3390    1.9100   -2.7750 h1        1 0KP      0.057367
     31 H6          4.3530    1.3860    1.7780 ha        1 0KP      0.150500
     32 H7          4.3770    3.0320    3.6160 ha        1 0KP      0.134000
     33 H8          2.3010    3.5140    4.9170 ha        1 0KP      0.132000
     34 H9          0.1800    2.3200    4.3510 ha        1 0KP      0.134000
     35 H10         0.1350    0.6610    2.4960 ha        1 0KP      0.150500
     36 H11        -0.0590   -1.8200    0.6640 ha        1 0KP      0.156000
     37 H12        -0.3540   -4.0420    1.7160 ha        1 0KP      0.140000
     38 H13         1.4110   -4.9900    3.1980 ha        1 0KP      0.138000
     39 H14         3.8030   -1.4330    2.5970 ha        1 0KP      0.146000
     40 H16         5.4400   -3.1060    2.6480 h4        1 0KP      0.022100
     41 H17         2.3760   -4.6720    5.3090 ha        1 0KP      0.142000
     42 H18         4.2310   -5.5720    6.7560 ha        1 0KP      0.146000
     43 H19         3.8960   -1.0060    0.1420 hn        1 0KP      0.402800
     44 H15         6.6280   -5.1730    6.0510 h4        1 0KP      0.024100
@<TRIPOS>BOND
     1    1    2 2   
     2    2    3 1   
     3    2    6 1   
     4    3    4 1   
     5    3    9 1   
     6    3   15 1   
     7    4    5 1   
     8    4   43 1   
     9    5    6 1   
    10    5    7 2   
    11    6    8 1   
    12    7   27 1   
    13    8   28 1   
    14    8   29 1   
    15    8   30 1   
    16    9   10 ar  
    17    9   14 ar  
    18   10   11 ar  
    19   10   31 1   
    20   11   12 ar  
    21   11   32 1   
    22   12   13 ar  
    23   12   33 1   
    24   13   14 ar  
    25   13   34 1   
    26   14   35 1   
    27   15   16 ar  
    28   15   20 ar  
    29   16   17 ar  
    30   16   36 1   
    31   17   18 ar  
    32   17   37 1   
    33   18   19 ar  
    34   18   38 1   
    35   19   20 ar  
    36   19   24 1   
    37   20   39 1   
    38   21   22 ar  
    39   21   26 ar  
    40   21   44 1   
    41   22   23 ar  
    42   23   24 ar  
    43   23   40 1   
    44   24   25 ar  
    45   25   26 ar  
    46   25   41 1   
    47   26   42 1   
@<TRIPOS>SUBSTRUCTURE
     1 0KP         1 TEMP              0 ****  ****    0 ROOT
