@<TRIPOS>MOLECULE
0KP
   44    47     1     0     0
SMALL
bcc


@<TRIPOS>ATOM
      1 O1         -2.5040    0.8000   -2.2030 o         1 0KP     -0.593500
      2 C1         -2.1810    1.1150   -1.0540 c         1 0KP      0.706500
      3 C2         -1.3900    0.2530   -0.0080 c3        1 0KP      0.227800
      4 N1         -1.1690    1.1900    1.1260 nh        1 0KP     -0.765200
      5 C3         -1.9370    2.3950    0.8890 c2        1 0KP      0.626800
      6 N2         -2.4850    2.3390   -0.4480 n         1 0KP     -0.452300
      7 N3         -2.0470    3.3430    1.7690 n2        1 0KP     -0.822100
      8 C4         -3.0350    3.4750   -1.1090 c3        1 0KP      0.084300
      9 C5         -2.1800   -0.9680    0.4210 ca        1 0KP     -0.115300
     10 C6         -1.6570   -1.7660    1.4490 ca        1 0KP     -0.112500
     11 C7         -2.3520   -2.8910    1.8880 ca        1 0KP     -0.129000
     12 C8         -3.5720   -3.2320    1.3020 ca        1 0KP     -0.117000
     13 C9         -4.0900   -2.4470    0.2740 ca        1 0KP     -0.129000
     14 C10        -3.3980   -1.3180   -0.1670 ca        1 0KP     -0.112500
     15 C11        -0.0900   -0.2000   -0.6460 ca        1 0KP     -0.087300
     16 C12        -0.1640   -0.9280   -1.8430 ca        1 0KP     -0.099000
     17 C13         1.0000   -1.3870   -2.4550 ca        1 0KP     -0.133000
     18 C14         2.2440   -1.1290   -1.8840 ca        1 0KP     -0.108000
     19 C15         2.3310   -0.4030   -0.6890 cp        1 0KP     -0.047000
     20 C16         1.1570    0.0590   -0.0730 ca        1 0KP     -0.087000
     21 C17         6.0440    0.5010    1.0760 ca        1 0KP      0.393200
     22 N4          5.0750    1.4380    1.0880 nb        1 0KP     -0.663000
     23 C18         3.8990    1.1230    0.5180 ca        1 0KP      0.405200
     24 C19         3.6290   -0.1280   -0.0870 cp        1 0KP     -0.150300
     25 C20         4.6550   -1.0850   -0.0880 ca        1 0KP     -0.086000
     26 C21         5.8800   -0.7710    0.5010 ca        1 0KP     -0.247300
     27 H1         -2.5380    4.1560    1.4660 hn        1 0KP      0.405400
     28 H3         -3.9570    3.8220   -0.5690 h1        1 0KP      0.053700
     29 H4         -2.2930    4.3190   -1.1370 h1        1 0KP      0.053700
     30 H5         -3.3080    3.1900   -2.1610 h1        1 0KP      0.053700
     31 H6         -0.6840   -1.5150    1.8990 ha        1 0KP      0.146500
     32 H7         -1.9350   -3.5110    2.6950 ha        1 0KP      0.137500
     33 H8         -4.1210   -4.1200    1.6500 ha        1 0KP      0.136000
     34 H9         -5.0480   -2.7150   -0.1960 ha        1 0KP      0.137500
     35 H10        -3.8180   -0.7180   -0.9910 ha        1 0KP      0.146500
     36 H11        -1.1470   -1.1240   -2.3030 ha        1 0KP      0.158000
     37 H12         0.9340   -1.9520   -3.3970 ha        1 0KP      0.138000
     38 H13         3.1610   -1.4880   -2.3760 ha        1 0KP      0.135000
     39 H14         1.2440    0.6260    0.8670 ha        1 0KP      0.154000
     40 H16         3.1260    1.9140    0.5390 h4        1 0KP      0.030100
     41 H17         4.4900   -2.0740   -0.5420 ha        1 0KP      0.140000
     42 H18         6.7010   -1.5000    0.5180 ha        1 0KP      0.143000
     43 H19        -1.3330    0.7820    2.0250 hn        1 0KP      0.422800
     44 H15         6.9970    0.7910    1.5520 h4        1 0KP      0.022100
@<TRIPOS>BOND
     1    1    2 2   
     2    2    3 1   
     3    2    6 1   
     4    3    4 1   
     5    3    9 1   
     6    3   15 1   
     7    4    5 1   
     8    4   43 1   
     9    5    6 1   
    10    5    7 2   
    11    6    8 1   
    12    7   27 1   
    13    8   28 1   
    14    8   29 1   
    15    8   30 1   
    16    9   10 ar  
    17    9   14 ar  
    18   10   11 ar  
    19   10   31 1   
    20   11   12 ar  
    21   11   32 1   
    22   12   13 ar  
    23   12   33 1   
    24   13   14 ar  
    25   13   34 1   
    26   14   35 1   
    27   15   16 ar  
    28   15   20 ar  
    29   16   17 ar  
    30   16   36 1   
    31   17   18 ar  
    32   17   37 1   
    33   18   19 ar  
    34   18   38 1   
    35   19   20 ar  
    36   19   24 1   
    37   20   39 1   
    38   21   22 ar  
    39   21   26 ar  
    40   21   44 1   
    41   22   23 ar  
    42   23   24 ar  
    43   23   40 1   
    44   24   25 ar  
    45   25   26 ar  
    46   25   41 1   
    47   26   42 1   
@<TRIPOS>SUBSTRUCTURE
     1 0KP         1 TEMP              0 ****  ****    0 ROOT
