@<TRIPOS>MOLECULE
0KP
   44    36     1     0     0
SMALL
bcc


@<TRIPOS>ATOM
      1 O1         -1.2570    0.1040   -2.0030 o         1 0KP     -0.316000
      2 C1         -0.1380    0.5760   -2.0960 c1        1 0KP      0.308000
      3 C2          0.8120    0.8390   -0.9550 c2        1 0KP      0.102000
      4 N1          2.0770    0.9450   -1.6130 n3        1 0KP     -0.293000
      5 C3          1.8360    1.2980   -2.9860 c2        1 0KP      0.171000
      6 N2          0.4870    0.9940   -3.2860 n3        1 0KP     -0.292000
      7 N3          2.7060    1.8070   -3.8070 n1        1 0KP     -0.290000
      8 C4         -0.1520    1.1480   -4.5730 c3        1 0KP     -0.057000
      9 C5          0.5380    2.1050   -0.1150 c1        1 0KP     -0.082000
     10 C6         -0.7600    2.5720    0.0350 c1        1 0KP     -0.106000
     11 C7         -1.0080    3.6960    0.8150 c1        1 0KP     -0.123000
     12 C8          0.0420    4.3490    1.4450 c1        1 0KP     -0.123000
     13 C9          1.3390    3.8820    1.2960 c1        1 0KP     -0.123000
     14 C10         1.5880    2.7590    0.5160 c1        1 0KP     -0.123000
     15 C11         0.8270   -0.2050    0.1570 c1        1 0KP     -0.103000
     16 C12         1.9410   -0.3290    0.9770 c1        1 0KP     -0.123000
     17 C13         1.9760   -1.3110    1.9570 c1        1 0KP     -0.123000
     18 C14         0.8930   -2.1730    2.1190 c1        1 0KP     -0.108000
     19 C15        -0.2210   -2.0500    1.3000 c1        1 0KP     -0.032000
     20 C16        -0.2550   -1.0660    0.3180 c2        1 0KP     -0.099000
     21 C17        -3.6390   -4.4590    2.2120 c1        1 0KP     -0.123000
     22 N4         -3.8000   -3.1360    1.9240 n1        1 0KP     -0.135000
     23 C18        -2.7200   -2.3710    1.5880 c1        1 0KP     -0.056000
     24 C19        -1.4530   -2.9400    1.5400 c1        1 0KP     -0.093000
     25 C20        -1.2900   -4.2690    1.8300 c1        1 0KP     -0.084000
     26 C21        -2.3730   -5.0320    2.1650 c1        1 0KP     -0.123000
     27 H1          3.5540    1.9690   -3.5270 DU        1 0KP      0.163000
     28 H3         -0.1200    2.0910   -4.8440 h1        1 0KP      0.097000
     29 H4          0.3190    0.6000   -5.2410 h1        1 0KP      0.097000
     30 H5         -1.0880    0.8560   -4.5120 h1        1 0KP      0.097000
     31 H6         -1.4990    2.1130   -0.4080 ha        1 0KP      0.156000
     32 H7         -1.9220    4.0250    0.9200 ha        1 0KP      0.142000
     33 H8         -0.1330    5.1390    1.9940 ha        1 0KP      0.142000
     34 H9          2.0750    4.3400    1.7370 ha        1 0KP      0.142000
     35 H10         2.4980    2.4310    0.4120 ha        1 0KP      0.142000
     36 H11         2.7030    0.2770    0.8630 ha        1 0KP      0.142000
     37 H12         2.7630   -1.3980    2.5350 ha        1 0KP      0.142000
     38 H13         0.9180   -2.8620    2.8070 ha        1 0KP      0.139000
     39 H14        -1.0400   -0.9780   -0.2600 ha        1 0KP      0.157000
     40 H15        -4.4160   -5.0070    2.4530 ha        1 0KP      0.142000
     41 H16        -2.8370   -1.4340    1.3840 ha        1 0KP      0.170000
     42 H17        -0.4010   -4.6700    1.7970 ha        1 0KP      0.140000
     43 H18        -2.2580   -5.9850    2.3730 ha        1 0KP      0.142000
     44 H19         2.8870    0.7600   -1.2440 hn        1 0KP      0.198000
@<TRIPOS>BOND
     1    1    2 1   
     2    2    6 1   
     3    3    4 1   
     4    3    9 1   
     5    3   15 1   
     6    4    5 1   
     7    4   44 1   
     8    5    6 1   
     9    5    7 1   
    10    6    8 1   
    11    8   28 1   
    12    8   29 1   
    13    8   30 1   
    14    9   10 1   
    15   10   31 1   
    16   11   12 1   
    17   11   32 1   
    18   12   33 1   
    19   13   14 1   
    20   13   34 1   
    21   14   35 1   
    22   15   20 1   
    23   16   17 1   
    24   16   36 1   
    25   17   37 1   
    26   18   19 1   
    27   18   38 1   
    28   19   20 1   
    29   20   39 1   
    30   21   26 1   
    31   21   40 1   
    32   22   23 1   
    33   23   41 1   
    34   24   25 1   
    35   25   42 1   
    36   26   43 1   
@<TRIPOS>SUBSTRUCTURE
     1 0KP         1 TEMP              0 ****  ****    0 ROOT
