@<TRIPOS>MOLECULE
0KQ
   41    44     1     0     0
SMALL
bcc


@<TRIPOS>ATOM
      1 C1          0.1970   -0.3570   -0.4010 c         1 0KQ      0.699500
      2 C2          1.6820   -0.1570    0.0570 c3        1 0KQ      0.200500
      3 N1          1.5630    0.3090    1.4620 nh        1 0KQ     -0.806200
      4 C3          0.1480    0.5030    1.7640 c2        1 0KQ      0.614800
      5 N2         -0.6360    0.1070    0.6250 n         1 0KQ     -0.404300
      6 N3         -0.3910    0.9010    2.8760 n2        1 0KQ     -0.823100
      7 C4         -2.0540   -0.0620    0.6810 c3        1 0KQ      0.098300
      8 O1         -0.1950   -0.8390   -1.4680 o         1 0KQ     -0.589500
      9 C5          2.4080    0.8440   -0.8190 ca        1 0KQ     -0.107300
     10 C6          2.3660   -1.5070   -0.0680 cx        1 0KQ     -0.123700
     11 C7          3.7090    1.2210   -0.4580 ca        1 0KQ     -0.114000
     12 C8          4.4110    2.1430   -1.2300 ca        1 0KQ     -0.130000
     13 C9          3.8280    2.6950   -2.3690 ca        1 0KQ     -0.106000
     14 C10         2.5320    2.3190   -2.7450 cp        1 0KQ     -0.037000
     15 C11         1.8260    1.3920   -1.9630 ca        1 0KQ     -0.096000
     16 C12         1.9180    2.8840   -3.9420 cp        1 0KQ     -0.146300
     17 C13         1.1220    2.0840   -4.7950 ca        1 0KQ      0.408200
     18 C15         0.7160    3.8410   -6.2310 ca        1 0KQ      0.406200
     19 C16         2.1000    4.2310   -4.2830 ca        1 0KQ     -0.082000
     20 N5          0.5340    2.5470   -5.9130 nb        1 0KQ     -0.651000
     21 C17         3.5340   -1.8990    0.7960 cx        1 0KQ     -0.115400
     22 C18         2.2160   -2.5900    0.9680 cx        1 0KQ     -0.115400
     23 C19         1.4910    4.7180   -5.4440 ca        1 0KQ     -0.106900
     24 CL1         1.6760    6.3370   -5.9020 cl        1 0KQ     -0.073400
     25 H1          0.2530    1.1580    3.5930 hn        1 0KQ      0.407400
     26 H3         -2.4130   -0.4120   -0.3240 h1        1 0KQ      0.057033
     27 H4         -2.3340   -0.8160    1.4650 h1        1 0KQ      0.057033
     28 H5         -2.5370    0.9190    0.9370 h1        1 0KQ      0.057033
     29 H6          2.3770   -1.8150   -1.1360 hc        1 0KQ      0.102700
     30 H7          4.1860    0.7710    0.4270 ha        1 0KQ      0.141000
     31 H8          5.4340    2.4320   -0.9430 ha        1 0KQ      0.139000
     32 H9          4.3900    3.4170   -2.9800 ha        1 0KQ      0.140000
     33 H10         0.8080    1.1000   -2.2710 ha        1 0KQ      0.159000
     34 H11         0.9520    1.0140   -4.5700 h4        1 0KQ      0.038100
     35 H12         0.2190    4.1900   -7.1550 h4        1 0KQ      0.038100
     36 H13         2.7050    4.8930   -3.6440 ha        1 0KQ      0.154000
     37 H14         4.3730   -2.4430    0.3240 hc        1 0KQ      0.075700
     38 H15         3.8830   -1.2120    1.5870 hc        1 0KQ      0.075700
     39 H16         2.1010   -3.6310    0.6170 hc        1 0KQ      0.075700
     40 H17         1.6250   -2.3970    1.8810 hc        1 0KQ      0.075700
     41 H18         2.1120    1.1270    1.6440 hn        1 0KQ      0.400800
@<TRIPOS>BOND
     1    1    2 1   
     2    1    5 1   
     3    1    8 2   
     4    2    3 1   
     5    2    9 1   
     6    2   10 1   
     7    3    4 1   
     8    3   41 1   
     9    4    5 1   
    10    4    6 2   
    11    5    7 1   
    12    6   25 1   
    13    7   26 1   
    14    7   27 1   
    15    7   28 1   
    16    9   11 ar  
    17    9   15 ar  
    18   10   21 1   
    19   10   22 1   
    20   10   29 1   
    21   11   12 ar  
    22   11   30 1   
    23   12   13 ar  
    24   12   31 1   
    25   13   14 ar  
    26   13   32 1   
    27   14   15 ar  
    28   14   16 1   
    29   15   33 1   
    30   16   17 ar  
    31   16   19 ar  
    32   17   20 ar  
    33   17   34 1   
    34   18   20 ar  
    35   18   23 ar  
    36   18   35 1   
    37   19   23 ar  
    38   19   36 1   
    39   21   22 1   
    40   21   37 1   
    41   21   38 1   
    42   22   39 1   
    43   22   40 1   
    44   23   24 1   
@<TRIPOS>SUBSTRUCTURE
     1 0KQ         1 TEMP              0 ****  ****    0 ROOT
