@<TRIPOS>MOLECULE
0KQ
   41    36     1     0     0
SMALL
bcc


@<TRIPOS>ATOM
      1 C1         -2.2570    1.4900    0.3270 c1        1 0KQ      0.304000
      2 C2         -0.6500    1.5030    0.3110 c2        1 0KQ      0.088000
      3 N1         -0.2870    1.3000    1.7970 n3        1 0KQ     -0.290000
      4 C3         -1.4750    1.6270    2.6010 c2        1 0KQ      0.166000
      5 N2         -2.6990    1.5870    1.6970 n3        1 0KQ     -0.293000
      6 N3         -1.4790    1.9070    3.8860 n1        1 0KQ     -0.287000
      7 C4         -4.0690    1.6280    2.1370 c3        1 0KQ     -0.058000
      8 O1         -2.9800    1.4020   -0.6510 o         1 0KQ     -0.316000
      9 C5          0.0290    0.4650   -0.6050 c1        1 0KQ     -0.077000
     10 C6         -0.2140    2.3590   -0.0410 cx        1 0KQ     -0.195000
     11 C7         -0.6710    0.4850   -1.8080 c1        1 0KQ     -0.101000
     12 C8         -0.4510   -0.5090   -2.7570 c1        1 0KQ     -0.119500
     13 C9          0.4690   -1.5220   -2.5030 c1        1 0KQ     -0.119500
     14 C10         1.1690   -1.5410   -1.3000 c1        1 0KQ     -0.061500
     15 C11         0.9490   -0.5480   -0.3510 c1        1 0KQ     -0.083000
     16 C12         2.2010   -2.6330   -1.0370 c1        1 0KQ     -0.061500
     17 C13         3.5540   -2.3630   -1.2130 c1        1 0KQ     -0.064000
     18 C15         4.0580   -4.6470   -0.8550 c1        1 0KQ     -0.063000
     19 C16         1.7880   -3.9100   -0.7700 c1        1 0KQ     -0.083000
     20 N5          4.4690   -3.3720   -1.1200 n1        1 0KQ     -0.127000
     21 C17        -0.0790    3.0410    0.5830 cx        1 0KQ     -0.203000
     22 C18        -0.7570    3.1230   -0.0570 cx        1 0KQ     -0.203000
     23 C19         2.7070   -4.9190   -0.6780 c1        1 0KQ     -0.117000
     24 CL1         2.1820   -6.5500   -0.3400 cl        1 0KQ      0.005000
     25 H1         -0.6930    1.9080    4.3570 DU        1 0KQ      0.165000
     26 H3         -4.6650    1.5460    1.3600 h1        1 0KQ      0.096667
     27 H4         -4.2420    2.4830    2.5930 h1        1 0KQ      0.096667
     28 H5         -4.2370    0.8850    2.7580 h1        1 0KQ      0.096667
     29 H6          0.4610    2.3010   -0.7620 hc        1 0KQ      0.136000
     30 H7         -1.3180    1.1970   -1.9870 ha        1 0KQ      0.158000
     31 H8         -0.9430   -0.4950   -3.6030 ha        1 0KQ      0.138000
     32 H9          0.6240   -2.2220   -3.1720 ha        1 0KQ      0.138000
     33 H10         1.4440   -0.5620    0.4980 ha        1 0KQ      0.154000
     34 H11         3.8500   -1.4490   -1.4030 ha        1 0KQ      0.166000
     35 H12         4.7160   -5.3700   -0.7890 ha        1 0KQ      0.174000
     36 H13         0.8350   -4.1020   -0.6460 ha        1 0KQ      0.154000
     37 H14        -0.3790    2.8470    1.4980 hc        1 0KQ      0.122500
     38 H15         0.7210    3.6060    0.4360 hc        1 0KQ      0.122500
     39 H16        -0.5780    3.7620   -0.7910 hc        1 0KQ      0.122500
     40 H17        -1.6740    3.0030    0.2760 hc        1 0KQ      0.122500
     41 H18         0.5720    1.2580    2.1250 hn        1 0KQ      0.196000
@<TRIPOS>BOND
     1    1    5 1   
     2    1    8 1   
     3    2    3 1   
     4    2    9 1   
     5    2   10 1   
     6    3    4 1   
     7    3   41 1   
     8    4    5 1   
     9    4    6 1   
    10    5    7 1   
    11    7   26 1   
    12    7   27 1   
    13    7   28 1   
    14    9   11 1   
    15   10   21 1   
    16   10   22 1   
    17   10   29 1   
    18   11   30 1   
    19   12   13 1   
    20   12   31 1   
    21   13   32 1   
    22   14   15 1   
    23   14   16 1   
    24   15   33 1   
    25   16   19 1   
    26   17   20 1   
    27   17   34 1   
    28   18   23 1   
    29   18   35 1   
    30   19   36 1   
    31   21   22 1   
    32   21   37 1   
    33   21   38 1   
    34   22   39 1   
    35   22   40 1   
    36   23   24 1   
@<TRIPOS>SUBSTRUCTURE
     1 0KQ         1 TEMP              0 ****  ****    0 ROOT
