@<TRIPOS>MOLECULE
0KQ
   41    44     1     0     0
SMALL
bcc


@<TRIPOS>ATOM
      1 C1         -2.5110   -1.1880   -0.4680 c         1 0KQ      0.704500
      2 C2         -2.5180   -0.0980    0.6580 c3        1 0KQ      0.202500
      3 N1         -3.4880    0.9150    0.1670 nh        1 0KQ     -0.762200
      4 C3         -3.8060    0.6110   -1.2150 c2        1 0KQ      0.623800
      5 N2         -3.2480   -0.6830   -1.5460 n         1 0KQ     -0.453300
      6 N3         -4.5100    1.4020   -1.9670 n2        1 0KQ     -0.824100
      7 C4         -3.6350   -1.4220   -2.7010 c3        1 0KQ      0.084300
      8 O1         -1.9680   -2.2960   -0.4300 o         1 0KQ     -0.591500
      9 C5         -1.1370    0.4850    0.8750 ca        1 0KQ     -0.108300
     10 C6         -2.9730   -0.7800    1.9350 cx        1 0KQ     -0.124700
     11 C7         -1.0020    1.5730    1.7490 ca        1 0KQ     -0.112000
     12 C8          0.2490    2.1420    1.9720 ca        1 0KQ     -0.129000
     13 C9          1.3770    1.6330    1.3320 ca        1 0KQ     -0.106000
     14 C10         1.2570    0.5390    0.4650 cp        1 0KQ     -0.037000
     15 C11        -0.0050   -0.0300    0.2400 ca        1 0KQ     -0.097000
     16 C12         2.4340   -0.0080   -0.2010 cp        1 0KQ     -0.145300
     17 C13         2.5910   -1.4040   -0.3670 ca        1 0KQ      0.408200
     18 C15         4.6180   -1.1530   -1.4360 ca        1 0KQ      0.406200
     19 C16         3.4450    0.8310   -0.6920 ca        1 0KQ     -0.082000
     20 N5          3.6550   -1.9660   -0.9690 nb        1 0KQ     -0.651000
     21 C17        -3.6700   -0.0330    3.0410 cx        1 0KQ     -0.114900
     22 C18        -4.4230   -1.0490    2.2380 cx        1 0KQ     -0.114900
     23 C19         4.5530    0.2520   -1.3190 ca        1 0KQ     -0.106900
     24 CL1         5.8000    1.2170   -1.9320 cl        1 0KQ     -0.073400
     25 H1         -4.7280    1.0520   -2.8750 hn        1 0KQ      0.404400
     26 H3         -4.7490   -1.5670   -2.7300 h1        1 0KQ      0.053700
     27 H4         -3.3180   -0.8720   -3.6290 h1        1 0KQ      0.053700
     28 H5         -3.1320   -2.4270   -2.6790 h1        1 0KQ      0.053700
     29 H6         -2.2340   -1.5620    2.2150 hc        1 0KQ      0.102700
     30 H7         -1.8850    1.9670    2.2780 ha        1 0KQ      0.142000
     31 H8          0.3480    2.9950    2.6600 ha        1 0KQ      0.140000
     32 H9          2.3650    2.0820    1.5170 ha        1 0KQ      0.140000
     33 H10        -0.0880   -0.8940   -0.4400 ha        1 0KQ      0.157000
     34 H11         1.8230   -2.1060    0.0070 h4        1 0KQ      0.038100
     35 H12         5.4780   -1.6460   -1.9250 h4        1 0KQ      0.038100
     36 H13         3.3610    1.9240   -0.5910 ha        1 0KQ      0.155000
     37 H14        -3.3900   -0.2660    4.0850 hc        1 0KQ      0.076450
     38 H15        -3.9130    1.0360    2.9100 hc        1 0KQ      0.076450
     39 H16        -5.2040   -0.7050    1.5370 hc        1 0KQ      0.076450
     40 H17        -4.6850   -2.0180    2.7020 hc        1 0KQ      0.076450
     41 H18        -3.1920    1.8610    0.3060 hn        1 0KQ      0.418800
@<TRIPOS>BOND
     1    1    2 1   
     2    1    5 1   
     3    1    8 2   
     4    2    3 1   
     5    2    9 1   
     6    2   10 1   
     7    3    4 1   
     8    3   41 1   
     9    4    5 1   
    10    4    6 2   
    11    5    7 1   
    12    6   25 1   
    13    7   26 1   
    14    7   27 1   
    15    7   28 1   
    16    9   11 ar  
    17    9   15 ar  
    18   10   21 1   
    19   10   22 1   
    20   10   29 1   
    21   11   12 ar  
    22   11   30 1   
    23   12   13 ar  
    24   12   31 1   
    25   13   14 ar  
    26   13   32 1   
    27   14   15 ar  
    28   14   16 1   
    29   15   33 1   
    30   16   17 ar  
    31   16   19 ar  
    32   17   20 ar  
    33   17   34 1   
    34   18   20 ar  
    35   18   23 ar  
    36   18   35 1   
    37   19   23 ar  
    38   19   36 1   
    39   21   22 1   
    40   21   37 1   
    41   21   38 1   
    42   22   39 1   
    43   22   40 1   
    44   23   24 1   
@<TRIPOS>SUBSTRUCTURE
     1 0KQ         1 TEMP              0 ****  ****    0 ROOT
