@<TRIPOS>MOLECULE
0KQ
   41    44     1     0     0
SMALL
bcc


@<TRIPOS>ATOM
      1 C1         -0.0120    0.0760   -0.0960 c         1 0KQ      0.699500
      2 C2          1.5440   -0.0220    0.1040 c3        1 0KQ      0.201500
      3 N1          1.7190    0.0370    1.5730 nh        1 0KQ     -0.809200
      4 C3          0.4010    0.1250    2.1960 c2        1 0KQ      0.617800
      5 N2         -0.6050    0.1290    1.1710 n         1 0KQ     -0.405300
      6 N3          0.1150    0.2420    3.4570 n2        1 0KQ     -0.821100
      7 C4         -1.9840    0.4000    1.4330 c3        1 0KQ      0.100300
      8 O1         -0.6260    0.0630   -1.1660 o         1 0KQ     -0.588500
      9 C5          2.2190    1.1400   -0.6000 ca        1 0KQ     -0.077300
     10 C6          2.0010   -1.3120   -0.5570 cx        1 0KQ     -0.141700
     11 C7          3.1890    1.9250    0.0300 ca        1 0KQ     -0.089000
     12 C8          3.8080    2.9640   -0.6670 ca        1 0KQ     -0.138000
     13 C9          3.4720    3.2270   -1.9910 ca        1 0KQ     -0.108000
     14 C10         2.5030    2.4440   -2.6360 cp        1 0KQ     -0.044000
     15 C11         1.8830    1.4030   -1.9350 ca        1 0KQ     -0.105000
     16 C12         2.1450    2.7110   -4.0240 cp        1 0KQ     -0.136300
     17 C13         1.8910    1.6510   -4.9250 ca        1 0KQ      0.406200
     18 C15         1.4690    3.0940   -6.6710 ca        1 0KQ      0.403200
     19 C16         2.0430    4.0230   -4.5090 ca        1 0KQ     -0.082000
     20 N5          1.5630    1.8320   -6.2170 nb        1 0KQ     -0.652000
     21 C17         3.2960   -1.9810   -0.1850 cx        1 0KQ     -0.126400
     22 C18         1.9940   -2.6450    0.1440 cx        1 0KQ     -0.126400
     23 C19         1.7010    4.2190   -5.8500 ca        1 0KQ     -0.104900
     24 CL1         1.5630    5.7810   -6.4870 cl        1 0KQ     -0.074400
     25 H1          0.8980    0.2210    4.0750 hn        1 0KQ      0.408400
     26 H3         -2.3910   -0.3720    2.1400 h1        1 0KQ      0.057033
     27 H4         -2.5470    0.3600    0.4620 h1        1 0KQ      0.057033
     28 H5         -2.1060    1.4140    1.8990 h1        1 0KQ      0.057033
     29 H6          1.7120   -1.2990   -1.6310 hc        1 0KQ      0.108700
     30 H7          3.4780    1.7450    1.0770 ha        1 0KQ      0.148000
     31 H8          4.5700    3.5780   -0.1630 ha        1 0KQ      0.137000
     32 H9          3.9700    4.0430   -2.5360 ha        1 0KQ      0.137000
     33 H10         1.1050    0.8000   -2.4350 ha        1 0KQ      0.162000
     34 H11         1.9600    0.6000   -4.5890 h4        1 0KQ      0.030100
     35 H12         1.1960    3.2110   -7.7360 h4        1 0KQ      0.037100
     36 H13         2.2220    4.8800   -3.8410 ha        1 0KQ      0.155000
     37 H14         3.9240   -2.3950   -0.9960 hc        1 0KQ      0.077700
     38 H15         3.9150   -1.5620    0.6280 hc        1 0KQ      0.077700
     39 H16         1.6700   -2.7250    1.1960 hc        1 0KQ      0.077700
     40 H17         1.6800   -3.5320   -0.4370 hc        1 0KQ      0.077700
     41 H18         2.2670   -0.7190    1.9310 hn        1 0KQ      0.399800
@<TRIPOS>BOND
     1    1    2 1   
     2    1    5 1   
     3    1    8 2   
     4    2    3 1   
     5    2    9 1   
     6    2   10 1   
     7    3    4 1   
     8    3   41 1   
     9    4    5 1   
    10    4    6 2   
    11    5    7 1   
    12    6   25 1   
    13    7   26 1   
    14    7   27 1   
    15    7   28 1   
    16    9   11 ar  
    17    9   15 ar  
    18   10   21 1   
    19   10   22 1   
    20   10   29 1   
    21   11   12 ar  
    22   11   30 1   
    23   12   13 ar  
    24   12   31 1   
    25   13   14 ar  
    26   13   32 1   
    27   14   15 ar  
    28   14   16 1   
    29   15   33 1   
    30   16   17 ar  
    31   16   19 ar  
    32   17   20 ar  
    33   17   34 1   
    34   18   20 ar  
    35   18   23 ar  
    36   18   35 1   
    37   19   23 ar  
    38   19   36 1   
    39   21   22 1   
    40   21   37 1   
    41   21   38 1   
    42   22   39 1   
    43   22   40 1   
    44   23   24 1   
@<TRIPOS>SUBSTRUCTURE
     1 0KQ         1 TEMP              0 ****  ****    0 ROOT
