@<TRIPOS>MOLECULE
0KQ
   41    44     1     0     0
SMALL
bcc


@<TRIPOS>ATOM
      1 C1         -0.0080    0.0610   -0.1030 c         1 0KQ      0.699500
      2 C2          1.5480   -0.0210    0.1050 c3        1 0KQ      0.201500
      3 N1          1.7140    0.0430    1.5750 nu        1 0KQ     -0.809200
      4 C3          0.3920    0.1170    2.1910 c2        1 0KQ      0.617800
      5 N2         -0.6090    0.1090    1.1600 n         1 0KQ     -0.405300
      6 N3          0.0980    0.2340    3.4500 n2        1 0KQ     -0.821100
      7 C4         -1.9920    0.3650    1.4150 c3        1 0KQ      0.100300
      8 O1         -0.6170    0.0400   -1.1760 o         1 0KQ     -0.588500
      9 C5          2.2140    1.1470   -0.5970 ca        1 0KQ     -0.077300
     10 C6          2.0210   -1.3070   -0.5510 cx        1 0KQ     -0.141700
     11 C7          3.1730    1.9440    0.0370 ca        1 0KQ     -0.089000
     12 C8          3.7850    2.9870   -0.6580 ca        1 0KQ     -0.138000
     13 C9          3.4530    3.2450   -1.9840 ca        1 0KQ     -0.108000
     14 C10         2.4950    2.4520   -2.6330 cp        1 0KQ     -0.044000
     15 C11         1.8820    1.4050   -1.9340 ca        1 0KQ     -0.105000
     16 C12         2.1420    2.7130   -4.0230 cp        1 0KQ     -0.136300
     17 C13         1.9030    1.6490   -4.9250 ca        1 0KQ      0.406200
     18 C15         1.4760    3.0860   -6.6750 ca        1 0KQ      0.403200
     19 C16         2.0300    4.0230   -4.5110 ca        1 0KQ     -0.082000
     20 N5          1.5800    1.8250   -6.2180 nb        1 0KQ     -0.652000
     21 C17         3.3220   -1.9610   -0.1720 cx        1 0KQ     -0.126400
     22 C18         2.0240   -2.6380    0.1510 cx        1 0KQ     -0.126400
     23 C19         1.6920    4.2140   -5.8540 ca        1 0KQ     -0.104900
     24 Cl1         1.5420    5.7740   -6.4940 cl        1 0KQ     -0.074400
     25 H1          0.8770    0.2210    4.0730 hn        1 0KQ      0.408400
     26 H3         -2.5490    0.3180    0.4410 h1        1 0KQ      0.057033
     27 H4         -2.1280    1.3790    1.8780 h1        1 0KQ      0.057033
     28 H5         -2.3940   -0.4090    2.1200 h1        1 0KQ      0.057033
     29 H6          1.7380   -1.2990   -1.6270 hc        1 0KQ      0.108700
     30 H7          3.4580    1.7680    1.0850 ha        1 0KQ      0.148000
     31 H8          4.5370    3.6100   -0.1510 ha        1 0KQ      0.137000
     32 H9          3.9450    4.0660   -2.5280 ha        1 0KQ      0.137000
     33 H10         1.1130    0.7930   -2.4370 ha        1 0KQ      0.162000
     34 H11         1.9800    0.5990   -4.5870 h4        1 0KQ      0.030100
     35 H12         1.2080    3.1980   -7.7410 h4        1 0KQ      0.037100
     36 H13         2.1960    4.8830   -3.8430 ha        1 0KQ      0.155000
     37 H14         3.9310   -1.5350    0.6450 hc        1 0KQ      0.077700
     38 H15         3.9580   -2.3700   -0.9780 hc        1 0KQ      0.077700
     39 H16         1.7230   -3.5300   -0.4290 hc        1 0KQ      0.077700
     40 H17         1.6960   -2.7200    1.2020 hc        1 0KQ      0.077700
     41 H18         2.2670   -0.7080    1.9380 hn        1 0KQ      0.399800
@<TRIPOS>BOND
     1    1    2 1   
     2    1    5 1   
     3    1    8 2   
     4    2    3 1   
     5    2    9 1   
     6    2   10 1   
     7    3    4 1   
     8    3   41 1   
     9    4    5 1   
    10    4    6 2   
    11    5    7 1   
    12    6   25 1   
    13    7   26 1   
    14    7   27 1   
    15    7   28 1   
    16    9   11 ar  
    17    9   15 ar  
    18   10   21 1   
    19   10   22 1   
    20   10   29 1   
    21   11   12 ar  
    22   11   30 1   
    23   12   13 ar  
    24   12   31 1   
    25   13   14 ar  
    26   13   32 1   
    27   14   15 ar  
    28   14   16 1   
    29   15   33 1   
    30   16   17 ar  
    31   16   19 ar  
    32   17   20 ar  
    33   17   34 1   
    34   18   20 ar  
    35   18   23 ar  
    36   18   35 1   
    37   19   23 ar  
    38   19   36 1   
    39   21   22 1   
    40   21   37 1   
    41   21   38 1   
    42   22   39 1   
    43   22   40 1   
    44   23   24 1   
@<TRIPOS>SUBSTRUCTURE
     1 0KQ         1 TEMP              0 ****  ****    0 ROOT
