@<TRIPOS>MOLECULE
0KR
   46    49     1     0     0
SMALL
bcc


@<TRIPOS>ATOM
      1 C1          0.2080    0.1200    0.1340 c3        1 0KR      0.201500
      2 N1          1.5950    0.0720    0.6610 nh        1 0KR     -0.806200
      3 C2          1.5490   -0.4230    2.0340 c2        1 0KR      0.614800
      4 N2          0.1910   -0.7580    2.3690 n         1 0KR     -0.405300
      5 C3         -0.6510   -0.5290    1.2720 c         1 0KR      0.699500
      6 C4          0.0110   -0.7330   -1.1070 cx        1 0KR     -0.123700
      7 O1         -1.8530   -0.8050    1.2350 o         1 0KR     -0.589500
      8 C5         -0.2420    1.5360   -0.1660 ca        1 0KR     -0.107300
      9 C6          0.5160    2.2940   -1.0680 ca        1 0KR     -0.109000
     10 C7          0.1500    3.6090   -1.3810 cp        1 0KR     -0.037000
     11 C8         -0.9910    4.1630   -0.7820 ca        1 0KR     -0.107000
     12 C9         -1.7480    3.4070    0.1070 ca        1 0KR     -0.128000
     13 C10        -1.3810    2.0970    0.4170 ca        1 0KR     -0.103000
     14 N3          2.5370   -0.6160    2.8550 n2        1 0KR     -0.824100
     15 C11        -0.1560   -1.5060    3.5360 c3        1 0KR      0.098300
     16 C12         0.7470   -2.0290   -1.3230 cx        1 0KR     -0.114900
     17 C13         1.0580   -0.8420   -2.1820 cx        1 0KR     -0.114900
     18 C14         0.9450    4.3900   -2.3210 cp        1 0KR     -0.153300
     19 C15         0.3390    5.2410   -3.2540 ca        1 0KR     -0.067000
     20 C16         1.1450    5.9740   -4.1400 ca        1 0KR     -0.076300
     21 C17         2.5500    5.8170   -4.0480 ca        1 0KR      0.415200
     22 C19         2.3570    4.3110   -2.3170 ca        1 0KR      0.406200
     23 C21         0.5830    6.8370   -5.0920 cg        1 0KR     -0.138000
     24 N5          3.1450    5.0050   -3.1570 nb        1 0KR     -0.662000
     25 C22         0.1040    7.5750   -5.9070 c1        1 0KR     -0.095100
     26 C23        -0.4630    8.4520   -6.8760 c3        1 0KR     -0.024000
     27 H1         -1.0560   -0.6880   -1.4160 hc        1 0KR      0.102700
     28 H2          1.3940    1.8430   -1.5590 ha        1 0KR      0.143000
     29 H3         -1.2830    5.1990   -1.0160 ha        1 0KR      0.139000
     30 H4         -2.6460    3.8430    0.5710 ha        1 0KR      0.141000
     31 H5         -2.0060    1.5140    1.1120 ha        1 0KR      0.158000
     32 H6          3.4320   -0.3370    2.5160 hn        1 0KR      0.407400
     33 H8          0.1470   -0.9310    4.4520 h1        1 0KR      0.056367
     34 H9         -1.2670   -1.6690    3.5400 h1        1 0KR      0.056367
     35 H10         0.3700   -2.4980    3.5450 h1        1 0KR      0.056367
     36 H11         0.1860   -2.8770   -1.7570 hc        1 0KR      0.075950
     37 H12         1.4940   -2.3670   -0.5840 hc        1 0KR      0.075950
     38 H13         2.0290   -0.3300   -2.0530 hc        1 0KR      0.075950
     39 H14         0.7270   -0.8330   -3.2360 hc        1 0KR      0.075950
     40 H15        -0.7570    5.3300   -3.2990 ha        1 0KR      0.150000
     41 H16         3.2240    6.3730   -4.7250 h4        1 0KR      0.032100
     42 H17         2.8810    3.6590   -1.5950 h4        1 0KR      0.023100
     43 H18         0.1610    8.4640   -7.8080 hc        1 0KR      0.060033
     44 H19        -1.5000    8.1210   -7.1460 hc        1 0KR      0.060033
     45 H20        -0.5180    9.4980   -6.4740 hc        1 0KR      0.060033
     46 H21         2.0680    0.9510    0.5850 hn        1 0KR      0.400800
@<TRIPOS>BOND
     1    1    2 1   
     2    1    5 1   
     3    1    6 1   
     4    1    8 1   
     5    2    3 1   
     6    2   46 1   
     7    3    4 1   
     8    3   14 2   
     9    4    5 1   
    10    4   15 1   
    11    5    7 2   
    12    6   16 1   
    13    6   17 1   
    14    6   27 1   
    15    8    9 ar  
    16    8   13 ar  
    17    9   10 ar  
    18    9   28 1   
    19   10   11 ar  
    20   10   18 1   
    21   11   12 ar  
    22   11   29 1   
    23   12   13 ar  
    24   12   30 1   
    25   13   31 1   
    26   14   32 1   
    27   15   33 1   
    28   15   34 1   
    29   15   35 1   
    30   16   17 1   
    31   16   36 1   
    32   16   37 1   
    33   17   38 1   
    34   17   39 1   
    35   18   19 ar  
    36   18   22 ar  
    37   19   20 ar  
    38   19   40 1   
    39   20   21 ar  
    40   20   23 1   
    41   21   24 ar  
    42   21   41 1   
    43   22   24 ar  
    44   22   42 1   
    45   23   25 3   
    46   25   26 1   
    47   26   43 1   
    48   26   44 1   
    49   26   45 1   
@<TRIPOS>SUBSTRUCTURE
     1 0KR         1 TEMP              0 ****  ****    0 ROOT
