@<TRIPOS>MOLECULE
0KR
   46    48     1     0     0
SMALL
bcc


@<TRIPOS>ATOM
      1 C1          0.2890    0.1550    0.3240 c3        1 0KR     -0.007000
      2 N1          1.7610    0.1060    0.4670 n7        1 0KR     -0.321000
      3 C2          2.1150    0.5070    1.8230 c2        1 0KR      0.172000
      4 N2          0.9110    0.7250    2.5720 n         1 0KR     -0.301000
      5 C3         -0.2200    0.5050    1.7730 c2        1 0KR      0.330000
      6 C4         -0.3450   -1.1390   -0.0700 c1        1 0KR      0.022000
      7 O1         -1.3860    0.5970    2.1540 o         1 0KR     -0.286000
      8 C5         -0.2880    1.1810   -0.6350 ca        1 0KR     -0.097000
      9 C6          0.4890    2.0770   -1.3690 ca        1 0KR     -0.110000
     10 C7         -0.1190    2.9890   -2.2450 ca        1 0KR     -0.040000
     11 C8         -1.5140    2.9940   -2.3810 ca        1 0KR     -0.103000
     12 C9         -2.2890    2.0990   -1.6480 ca        1 0KR     -0.131000
     13 C10        -1.6850    1.1960   -0.7760 ca        1 0KR     -0.079000
     14 N3          3.2960    0.6040    2.3560 n2        1 0KR     -0.295000
     15 C11         0.9000    0.9700    3.9790 c3        1 0KR     -0.053000
     16 C12        -0.4690   -3.2170   -1.3790 c3        1 0KR     -0.194000
     17 C13         0.4190   -2.1880   -0.7190 c3        1 0KR     -0.222000
     18 C14         0.6980    3.9260   -3.0070 c2        1 0KR     -0.089000
     19 C15         0.3060    5.2610   -3.1760 c2        1 0KR     -0.067000
     20 C16         1.1260    6.1280   -3.9160 c2        1 0KR     -0.006000
     21 C17         2.3250    5.6070   -4.4640 c2        1 0KR     -0.050000
     22 C19         1.9130    3.5120   -3.6000 c2        1 0KR     -0.061000
     23 C21         0.7770    7.4720   -4.1100 c1        1 0KR     -0.143000
     24 N5          2.7110    4.3280   -4.3110 n2        1 0KR     -0.136000
     25 C22         0.4800    8.6220   -4.2770 c1        1 0KR     -0.121000
     26 C23         0.1290    9.9880   -4.4750 c3        1 0KR     -0.115000
     27 H1         -1.0200   -2.7640   -2.2370 hc        1 0KR      0.080667
     28 H2          1.5850    2.1150   -1.2800 ha        1 0KR      0.129000
     29 H3         -1.9940    3.7040   -3.0720 ha        1 0KR      0.140000
     30 H4         -3.3850    2.1050   -1.7540 ha        1 0KR      0.143000
     31 H5         -2.2930    0.4930   -0.1770 ha        1 0KR      0.183000
     32 H6          4.0580    0.4340    1.7340 hn        1 0KR      0.162000
     33 H8          1.4750    1.9080    4.2050 h1        1 0KR      0.095667
     34 H9          1.3770    0.1150    4.5310 h1        1 0KR      0.095667
     35 H10        -0.1650    1.0880    4.3150 h1        1 0KR      0.095667
     36 H11        -1.2170   -3.6140   -0.6520 hc        1 0KR      0.080667
     37 H12         0.1490   -4.0660   -1.7600 hc        1 0KR      0.080667
     38 H13         1.0220   -2.6800    0.1070 hc        1 0KR      0.124000
     39 H14         1.1700   -1.8020   -1.4640 hc        1 0KR      0.124000
     40 H15        -0.6290    5.6280   -2.7290 ha        1 0KR      0.150000
     41 H16         3.0020    6.2530   -5.0520 h4        1 0KR      0.169000
     42 H17         2.2570    2.4660   -3.5050 h4        1 0KR      0.160000
     43 H18         0.2810   10.5740   -3.5300 hc        1 0KR      0.099333
     44 H19        -0.9480   10.0770   -4.7760 hc        1 0KR      0.099333
     45 H20         0.7610   10.4440   -5.2800 hc        1 0KR      0.099333
     46 H21         2.2670    0.6060   -0.2340 hn        1 0KR      0.194000
@<TRIPOS>BOND
     1    1    2 1   
     2    1    5 1   
     3    1    6 1   
     4    1    8 1   
     5    2    3 1   
     6    2   46 1   
     7    3    4 1   
     8    3   14 1   
     9    4    5 1   
    10    4   15 1   
    11    5    7 1   
    12    6   17 1   
    13    8    9 1   
    14    8   13 1   
    15    9   10 1   
    16    9   28 1   
    17   10   11 1   
    18   10   18 1   
    19   11   12 1   
    20   11   29 1   
    21   12   13 1   
    22   12   30 1   
    23   13   31 1   
    24   14   32 1   
    25   15   33 1   
    26   15   34 1   
    27   15   35 1   
    28   16   17 1   
    29   16   27 1   
    30   16   36 1   
    31   16   37 1   
    32   17   38 1   
    33   17   39 1   
    34   18   19 1   
    35   18   22 1   
    36   19   20 1   
    37   19   40 1   
    38   20   21 1   
    39   20   23 1   
    40   21   24 1   
    41   21   41 1   
    42   22   24 1   
    43   22   42 1   
    44   23   25 1   
    45   25   26 1   
    46   26   43 1   
    47   26   44 1   
    48   26   45 1   
@<TRIPOS>SUBSTRUCTURE
     1 0KR         1 TEMP              0 ****  ****    0 ROOT
