@<TRIPOS>MOLECULE
0KR
   46    49     1     0     0
SMALL
bcc


@<TRIPOS>ATOM
      1 C1          2.6050    0.2570    0.2820 c3        1 0KR      0.206500
      2 N1          2.5920   -1.2080    0.5030 nh        1 0KR     -0.768200
      3 C2          3.6860   -1.8010   -0.2390 c2        1 0KR      0.628800
      4 N2          4.2880   -0.7830   -1.0700 n         1 0KR     -0.454300
      5 C3          3.7010    0.4630   -0.8250 c         1 0KR      0.706500
      6 C4          3.0150    1.0930    1.4820 cx        1 0KR     -0.146700
      7 O1          4.0310    1.5240   -1.3620 o         1 0KR     -0.592500
      8 C5          1.2700    0.7680   -0.2260 ca        1 0KR     -0.080300
      9 C6          0.1030    0.0060   -0.1380 ca        1 0KR     -0.084000
     10 C7         -1.1220    0.5250   -0.5850 cp        1 0KR     -0.046000
     11 C8         -1.1710    1.8190   -1.1190 ca        1 0KR     -0.109000
     12 C9         -0.0070    2.5790   -1.2070 ca        1 0KR     -0.133000
     13 C10         1.2080    2.0620   -0.7630 ca        1 0KR     -0.111000
     14 N3          3.9980   -3.0580   -0.1450 n2        1 0KR     -0.825100
     15 C11         5.2240   -1.0730   -2.1040 c3        1 0KR      0.086300
     16 C12         3.9250    0.5820    2.5670 cx        1 0KR     -0.126400
     17 C13         2.4740    0.8190    2.8600 cx        1 0KR     -0.126400
     18 C14        -2.3350   -0.2800   -0.4920 cp        1 0KR     -0.151300
     19 C15        -3.5620    0.2920   -0.1310 ca        1 0KR     -0.069000
     20 C16        -4.7030   -0.5210   -0.0570 ca        1 0KR     -0.081300
     21 C17        -4.5600   -1.9000   -0.3540 ca        1 0KR      0.414200
     22 C19        -2.3060   -1.6670   -0.7690 ca        1 0KR      0.408200
     23 C21        -5.9520    0.0060    0.3020 cg        1 0KR     -0.133000
     24 N5         -3.3900   -2.4610   -0.7030 nb        1 0KR     -0.663000
     25 C22        -7.0210    0.4550    0.6090 c1        1 0KR     -0.102100
     26 C23        -8.2920    0.9870    0.9730 c3        1 0KR     -0.022000
     27 H1          3.1320    2.1550    1.1730 hc        1 0KR      0.107700
     28 H2          0.1180   -1.0120    0.2840 ha        1 0KR      0.152000
     29 H3         -2.1260    2.2300   -1.4780 ha        1 0KR      0.137000
     30 H4         -0.0440    3.5930   -1.6330 ha        1 0KR      0.138000
     31 H5          2.1250    2.6690   -0.8500 ha        1 0KR      0.158000
     32 H6          4.7190   -3.3690   -0.7600 hn        1 0KR      0.405400
     33 H8          4.7870   -1.7940   -2.8460 h1        1 0KR      0.053367
     34 H9          5.4930   -0.1180   -2.6320 h1        1 0KR      0.053367
     35 H10         6.1550   -1.5250   -1.6650 h1        1 0KR      0.053367
     36 H11         4.3120   -0.4520    2.5330 hc        1 0KR      0.078450
     37 H12         4.6780    1.2770    2.9810 hc        1 0KR      0.078450
     38 H13         2.1840    1.6800    3.4900 hc        1 0KR      0.078450
     39 H14         1.8040   -0.0440    3.0240 hc        1 0KR      0.078450
     40 H15        -3.6300    1.3660    0.0980 ha        1 0KR      0.147000
     41 H16        -5.4310   -2.5780   -0.3090 h4        1 0KR      0.030100
     42 H17        -1.3630   -2.1630   -1.0650 h4        1 0KR      0.032100
     43 H18        -8.8230    0.2900    1.6720 hc        1 0KR      0.058367
     44 H19        -8.1710    1.9780    1.4840 hc        1 0KR      0.058367
     45 H20        -8.9320    1.1330    0.0640 hc        1 0KR      0.058367
     46 H21         2.5670   -1.4770    1.4650 hn        1 0KR      0.419800
@<TRIPOS>BOND
     1    1    2 1   
     2    1    5 1   
     3    1    6 1   
     4    1    8 1   
     5    2    3 1   
     6    2   46 1   
     7    3    4 1   
     8    3   14 2   
     9    4    5 1   
    10    4   15 1   
    11    5    7 2   
    12    6   16 1   
    13    6   17 1   
    14    6   27 1   
    15    8    9 ar  
    16    8   13 ar  
    17    9   10 ar  
    18    9   28 1   
    19   10   11 ar  
    20   10   18 1   
    21   11   12 ar  
    22   11   29 1   
    23   12   13 ar  
    24   12   30 1   
    25   13   31 1   
    26   14   32 1   
    27   15   33 1   
    28   15   34 1   
    29   15   35 1   
    30   16   17 1   
    31   16   36 1   
    32   16   37 1   
    33   17   38 1   
    34   17   39 1   
    35   18   19 ar  
    36   18   22 ar  
    37   19   20 ar  
    38   19   40 1   
    39   20   21 ar  
    40   20   23 1   
    41   21   24 ar  
    42   21   41 1   
    43   22   24 ar  
    44   22   42 1   
    45   23   25 3   
    46   25   26 1   
    47   26   43 1   
    48   26   44 1   
    49   26   45 1   
@<TRIPOS>SUBSTRUCTURE
     1 0KR         1 TEMP              0 ****  ****    0 ROOT
