@<TRIPOS>MOLECULE
0KR
   46    42     1     0     0
SMALL
bcc


@<TRIPOS>ATOM
      1 C1         -0.0250   -1.8190    1.6140 c3        1 0KR      0.089000
      2 N1          1.0540   -1.2240    2.3590 n3        1 0KR     -0.287000
      3 C2          1.0540   -1.8030    3.6770 c2        1 0KR      0.168000
      4 N2         -0.2060   -2.3920    3.9050 n         1 0KR     -0.296000
      5 C3         -0.9150   -2.4010    2.6950 c2        1 0KR      0.306000
      6 C4          0.3680   -2.9090    0.6070 cx        1 0KR     -0.197000
      7 O1         -2.0540   -2.8080    2.5390 o         1 0KR     -0.322000
      8 C5         -0.8000   -0.8690    0.6720 c1        1 0KR     -0.061000
      9 C6         -0.1440   -0.2630   -0.3980 c1        1 0KR     -0.091000
     10 C7         -0.8140    0.6690   -1.1890 c1        1 0KR     -0.043000
     11 C8         -2.1390    0.9950   -0.9100 c1        1 0KR     -0.120000
     12 C9         -2.7950    0.3890    0.1600 c1        1 0KR     -0.120000
     13 C10        -2.1250   -0.5430    0.9510 c1        1 0KR     -0.110000
     14 N3          2.0590   -1.7860    4.5240 n1        1 0KR     -0.289000
     15 C11        -0.6860   -2.8890    5.1650 c3        1 0KR     -0.057000
     16 C12        -0.7800   -3.5430   -0.1620 cx        1 0KR     -0.199500
     17 C13        -0.0890   -4.3190    0.9490 cx        1 0KR     -0.199500
     18 C14        -0.1080    1.2980   -2.3970 c2        1 0KR     -0.083000
     19 C15         0.3560    2.5860   -2.3250 c2        1 0KR     -0.068000
     20 C16         0.9030    3.1790   -3.4320 c1        1 0KR     -0.009000
     21 C17         0.9870    2.4740   -4.6280 c1        1 0KR     -0.052000
     22 C19        -0.0220    0.5960   -3.5950 c1        1 0KR     -0.060000
     23 C21         1.3610    4.6300   -3.3710 c1        1 0KR     -0.139000
     24 N5          0.5240    1.1890   -4.6990 n1        1 0KR     -0.138000
     25 C22         1.7220    5.7720   -3.3220 c1        1 0KR     -0.126000
     26 C23         2.1810    7.2240   -3.2600 c2        1 0KR     -0.114000
     27 H1          1.2210   -2.8420    0.1230 hc        1 0KR      0.130000
     28 H2          0.7900   -0.4920   -0.5950 ha        1 0KR      0.138000
     29 H3         -2.6100    1.6510   -1.4670 ha        1 0KR      0.137500
     30 H4         -3.7290    0.6190    0.3560 ha        1 0KR      0.137500
     31 H5         -2.5870   -0.9690    1.7030 ha        1 0KR      0.159000
     32 H6          2.8460   -1.3800    4.2930 DU        1 0KR      0.165000
     33 H8         -1.6440   -2.6880    5.2530 h1        1 0KR      0.096333
     34 H9         -0.1920   -2.4580    5.8980 h1        1 0KR      0.096333
     35 H10        -0.5510   -3.8620    5.2070 h1        1 0KR      0.096333
     36 H11        -1.6750   -3.2030    0.0500 hc        1 0KR      0.123000
     37 H12        -0.5720   -3.8330   -1.0790 hc        1 0KR      0.123000
     38 H13        -0.5970   -4.4120    1.7820 hc        1 0KR      0.123000
     39 H14         0.5070   -5.0440    0.6550 hc        1 0KR      0.123000
     40 H15         0.2960    3.0830   -1.4810 ha        1 0KR      0.150000
     41 H16         1.3790    2.8980   -5.4210 ha        1 0KR      0.167000
     42 H17        -0.3540   -0.3260   -3.6470 ha        1 0KR      0.161000
     43 H18         1.4190    7.7980   -3.0300 ha        1 0KR      0.098333
     44 H19         2.5400    7.4910   -4.1350 ha        1 0KR      0.098333
     45 H20         2.8800    7.3170   -2.5770 ha        1 0KR      0.098333
     46 H21         1.7650   -0.7810    1.9840 hn        1 0KR      0.194000
@<TRIPOS>BOND
     1    1    2 1   
     2    1    5 1   
     3    1    6 1   
     4    1    8 1   
     5    2    3 1   
     6    2   46 1   
     7    3    4 1   
     8    3   14 1   
     9    4    5 1   
    10    4   15 1   
    11    5    7 1   
    12    6   16 1   
    13    6   17 1   
    14    6   27 1   
    15    8   13 1   
    16    9   10 1   
    17    9   28 1   
    18   10   18 1   
    19   11   12 1   
    20   11   29 1   
    21   12   30 1   
    22   13   31 1   
    23   15   33 1   
    24   15   34 1   
    25   15   35 1   
    26   16   17 1   
    27   16   36 1   
    28   16   37 1   
    29   17   38 1   
    30   17   39 1   
    31   18   19 1   
    32   18   22 1   
    33   19   20 1   
    34   19   40 1   
    35   20   23 1   
    36   21   24 1   
    37   21   41 1   
    38   22   42 1   
    39   23   25 1   
    40   26   43 1   
    41   26   44 1   
    42   26   45 1   
@<TRIPOS>SUBSTRUCTURE
     1 0KR         1 TEMP              0 ****  ****    0 ROOT
