@<TRIPOS>MOLECULE
0KR
   46    49     1     0     0
SMALL
bcc


@<TRIPOS>ATOM
      1 C1          0.1590    0.0170    0.0630 c3        1 0KR      0.202500
      2 N1          1.6360    0.0130    0.1770 nh        1 0KR     -0.810200
      3 C2          1.9970   -0.3020    1.5550 c2        1 0KR      0.617800
      4 N2          0.7980   -0.4880    2.3250 n         1 0KR     -0.405300
      5 C3         -0.3320   -0.2850    1.5250 c         1 0KR      0.700500
      6 C4         -0.4300   -1.0550   -0.8380 cx        1 0KR     -0.141700
      7 O1         -1.5000   -0.3790    1.9140 o         1 0KR     -0.591500
      8 C5         -0.3790    1.3630   -0.3850 ca        1 0KR     -0.078300
      9 C6          0.4400    2.3200   -0.9900 ca        1 0KR     -0.084000
     10 C7         -0.0950    3.5410   -1.4270 cp        1 0KR     -0.047000
     11 C8         -1.4610    3.7980   -1.2560 ca        1 0KR     -0.109000
     12 C9         -2.2780    2.8430   -0.6550 ca        1 0KR     -0.132000
     13 C10        -1.7450    1.6310   -0.2230 ca        1 0KR     -0.113000
     14 N3          3.1820   -0.3620    2.0820 n2        1 0KR     -0.822100
     15 C11         0.7980   -0.6130    3.7490 c3        1 0KR      0.100300
     16 C12         0.2270   -2.3900   -1.0690 cx        1 0KR     -0.126900
     17 C13         0.1690   -1.3850   -2.1780 cx        1 0KR     -0.126900
     18 C14         0.7700    4.5340   -2.0530 cp        1 0KR     -0.150300
     19 C15         0.3350    5.2900   -3.1510 ca        1 0KR     -0.069000
     20 C16         1.2040    6.2340   -3.7220 ca        1 0KR     -0.080300
     21 C17         2.4940    6.3800   -3.1550 ca        1 0KR      0.413200
     22 C19         2.0780    4.7650   -1.5670 ca        1 0KR      0.407200
     23 C21         0.8130    7.0110   -4.8220 cg        1 0KR     -0.134000
     24 N5          2.9240    5.6640   -2.1020 nb        1 0KR     -0.664000
     25 C22         0.4810    7.6770   -5.7620 c1        1 0KR     -0.101100
     26 C23         0.0870    8.4690   -6.8790 c3        1 0KR     -0.022000
     27 H1         -1.5390   -1.0390   -0.7540 hc        1 0KR      0.108700
     28 H2          1.5150    2.1340   -1.1400 ha        1 0KR      0.149000
     29 H3         -1.8860    4.7560   -1.5900 ha        1 0KR      0.137000
     30 H4         -3.3500    3.0470   -0.5170 ha        1 0KR      0.138000
     31 H5         -2.4010    0.8870    0.2610 ha        1 0KR      0.159000
     32 H6          3.9380   -0.2210    1.4480 hn        1 0KR      0.408400
     33 H8          1.2570    0.2950    4.2260 h1        1 0KR      0.056700
     34 H9         -0.2630   -0.7260    4.0980 h1        1 0KR      0.056700
     35 H10         1.3940   -1.5160    4.0470 h1        1 0KR      0.056700
     36 H11        -0.4220   -3.2840   -1.1180 hc        1 0KR      0.077450
     37 H12         1.1950   -2.6290   -0.5960 hc        1 0KR      0.077450
     38 H13        -0.5140   -1.5580   -3.0300 hc        1 0KR      0.077450
     39 H14         1.0950   -0.8790   -2.5030 hc        1 0KR      0.077450
     40 H15        -0.6730    5.1410   -3.5650 ha        1 0KR      0.148000
     41 H16         3.2110    7.1100   -3.5720 h4        1 0KR      0.030100
     42 H17         2.4620    4.2010   -0.6970 h4        1 0KR      0.030100
     43 H18        -0.5350    7.8640   -7.5900 hc        1 0KR      0.058700
     44 H19        -0.5170    9.3510   -6.5420 hc        1 0KR      0.058700
     45 H20         0.9880    8.8470   -7.4300 hc        1 0KR      0.058700
     46 H21         2.0770   -0.5900   -0.4880 hn        1 0KR      0.400800
@<TRIPOS>BOND
     1    1    2 1   
     2    1    5 1   
     3    1    6 1   
     4    1    8 1   
     5    2    3 1   
     6    2   46 1   
     7    3    4 1   
     8    3   14 2   
     9    4    5 1   
    10    4   15 1   
    11    5    7 2   
    12    6   16 1   
    13    6   17 1   
    14    6   27 1   
    15    8    9 ar  
    16    8   13 ar  
    17    9   10 ar  
    18    9   28 1   
    19   10   11 ar  
    20   10   18 1   
    21   11   12 ar  
    22   11   29 1   
    23   12   13 ar  
    24   12   30 1   
    25   13   31 1   
    26   14   32 1   
    27   15   33 1   
    28   15   34 1   
    29   15   35 1   
    30   16   17 1   
    31   16   36 1   
    32   16   37 1   
    33   17   38 1   
    34   17   39 1   
    35   18   19 ar  
    36   18   22 ar  
    37   19   20 ar  
    38   19   40 1   
    39   20   21 ar  
    40   20   23 1   
    41   21   24 ar  
    42   21   41 1   
    43   22   24 ar  
    44   22   42 1   
    45   23   25 3   
    46   25   26 1   
    47   26   43 1   
    48   26   44 1   
    49   26   45 1   
@<TRIPOS>SUBSTRUCTURE
     1 0KR         1 TEMP              0 ****  ****    0 ROOT
