@<TRIPOS>MOLECULE
0KS
   40    33     1     0     0
SMALL
bcc


@<TRIPOS>ATOM
      1 C1         -1.6530    0.2050   -2.5310 c1        1 0KS     -0.143000
      2 C2         -0.2830    0.5050   -2.5350 c2        1 0KS     -0.046000
      3 C3         -2.2970   -0.0810   -1.3350 c1        1 0KS     -0.078000
      4 C4          0.4300    0.5170   -1.3380 c1        1 0KS     -0.169000
      5 C5         -1.5740   -0.0690   -0.1230 c1        1 0KS     -0.092000
      6 C6         -0.2250    0.2270   -0.1250 c1        1 0KS     -0.365500
      7 N1          0.4990    0.3700    1.1540 n2        1 0KS     -0.766000
      8 S2          0.6820   -0.9510    2.1610 s4        1 0KS      2.064800
      9 O4         -0.5150   -1.1500    3.0120 o         1 0KS     -0.532400
     10 O5          0.7000   -2.1850    1.4050 o         1 0KS     -0.532400
     11 C8          2.1360   -0.7860    3.1320 c1        1 0KS     -0.365500
     12 C9          2.0440   -0.3920    4.4580 c1        1 0KS     -0.096000
     13 C10         3.3620   -1.1520    2.6020 c1        1 0KS     -0.092000
     14 C11         4.4970   -1.1250    3.3980 c1        1 0KS     -0.096000
     15 C12         3.1770   -0.3650    5.2530 c1        1 0KS     -0.096000
     16 C13         4.4040   -0.7320    4.7230 c1        1 0KS     -0.096000
     17 C7          0.9750    1.6320    1.5520 c3        1 0KS     -0.086000
     18 C18        -2.4560    0.2860   -3.8200 c2        1 0KS      0.091000
     19 C19        -3.4010    1.4690   -3.7570 c3        1 0KS      0.386500
     20 C20        -3.2610   -0.9860   -4.0010 c3        1 0KS      0.386500
     21 F5         -4.5050    1.2050   -4.4960 f         1 0KS     -0.149667
     22 F4         -3.7560    1.6860   -2.4850 f         1 0KS     -0.149667
     23 F6         -2.8090    2.5230   -4.2290 f         1 0KS     -0.149667
     24 F7         -4.2070   -1.0680   -3.0370 f         1 0KS     -0.149667
     25 F9         -3.8560   -0.9640   -5.2210 f         1 0KS     -0.149667
     26 F8         -2.4730   -2.0140   -3.9180 f         1 0KS     -0.149667
     27 O1         -1.5900    0.4400   -4.9040 oh        1 0KS     -0.280000
     28 H1          0.1790    0.7100   -3.3910 ha        1 0KS      0.160000
     29 H2         -3.2180   -0.2830   -1.3320 ha        1 0KS      0.156000
     30 H3          1.4500    0.7400   -1.3400 ha        1 0KS      0.145000
     31 H4         -2.0410   -0.2750    0.7390 ha        1 0KS      0.168500
     32 H5          1.2040   -0.1410    4.8220 ha        1 0KS      0.145250
     33 H6          3.4290   -1.4360    1.6490 ha        1 0KS      0.168500
     34 H7          5.3530   -1.3800    3.0290 ha        1 0KS      0.145250
     35 H8          3.1120   -0.0900    6.1760 ha        1 0KS      0.145250
     36 H9          5.1840   -0.7130    5.2710 ha        1 0KS      0.145250
     37 H10         0.4330    2.3280    1.1340 h1        1 0KS      0.095333
     38 H11         0.9160    1.7170    2.5730 h1        1 0KS      0.095333
     39 H12         1.8870    1.7290    1.2770 h1        1 0KS      0.095333
     40 H13        -1.9310    0.0470   -5.6040 ho        1 0KS      0.239000
@<TRIPOS>BOND
     1    1    2 1   
     2    1    3 1   
     3    2    4 1   
     4    2   28 1   
     5    3   29 1   
     6    4   30 1   
     7    5    6 1   
     8    5   31 1   
     9    7    8 1   
    10    7   17 1   
    11    8    9 1   
    12    8   10 1   
    13   11   13 1   
    14   12   15 1   
    15   12   32 1   
    16   13   33 1   
    17   14   16 1   
    18   14   34 1   
    19   15   35 1   
    20   16   36 1   
    21   17   37 1   
    22   17   38 1   
    23   17   39 1   
    24   18   19 1   
    25   18   20 1   
    26   18   27 1   
    27   19   21 1   
    28   19   22 1   
    29   19   23 1   
    30   20   24 1   
    31   20   25 1   
    32   20   26 1   
    33   27   40 1   
@<TRIPOS>SUBSTRUCTURE
     1 0KS         1 TEMP              0 ****  ****    0 ROOT
