@<TRIPOS>MOLECULE
0KS
   40    41     1     0     0
SMALL
bcc


@<TRIPOS>ATOM
      1 C1         -1.4780    0.0890   -0.1850 ca        1 0KS     -0.181300
      2 C2         -0.7030    0.3320   -1.3250 ca        1 0KS     -0.072000
      3 C3         -0.9410   -0.7000    0.8390 ca        1 0KS     -0.072000
      4 C4          0.5860   -0.1720   -1.4370 ca        1 0KS     -0.162500
      5 C5          0.3480   -1.2090    0.7430 ca        1 0KS     -0.162500
      6 C6          1.1460   -0.9460   -0.3940 ca        1 0KS      0.185600
      7 N1          2.4540   -1.4600   -0.4920 nh        1 0KS     -0.670900
      8 S2          3.7500   -0.6120   -1.0780 sy        1 0KS      1.509200
      9 O4          4.8370   -1.4990   -1.2170 o         1 0KS     -0.644800
     10 O5          3.3810    0.1090   -2.2300 o         1 0KS     -0.644800
     11 C8          4.0820    0.4740    0.1610 ca        1 0KS     -0.393500
     12 C9          4.9220    0.1090    1.2210 ca        1 0KS     -0.011500
     13 C10         3.5630    1.7750    0.1360 ca        1 0KS     -0.011500
     14 C11         3.8650    2.6840    1.1470 ca        1 0KS     -0.155500
     15 C12         5.2280    1.0120    2.2350 ca        1 0KS     -0.155500
     16 C13         4.6960    2.3020    2.2000 ca        1 0KS     -0.059000
     17 C7          2.6660   -2.7660    0.0780 c3        1 0KS      0.189100
     18 C18        -2.8660    0.6410   -0.0840 c3        1 0KS      0.156100
     19 C19        -3.9580   -0.5130   -0.1210 c3        1 0KS      0.626900
     20 C20        -3.0580    1.5200    1.2310 c3        1 0KS      0.626900
     21 F5         -3.9050   -1.3510    0.9620 f         1 0KS     -0.219133
     22 F4         -5.2410   -0.0400   -0.1440 f         1 0KS     -0.219133
     23 F6         -3.8520   -1.3240   -1.2150 f         1 0KS     -0.219133
     24 F7         -4.2980    2.0920    1.3140 f         1 0KS     -0.219133
     25 F9         -2.8900    0.8600    2.4160 f         1 0KS     -0.219133
     26 F8         -2.1870    2.5790    1.2700 f         1 0KS     -0.219133
     27 O1         -3.2230    1.4660   -1.1720 oh        1 0KS     -0.553800
     28 H1         -1.1200    0.9100   -2.1670 ha        1 0KS      0.153000
     29 H2         -1.5460   -0.9270    1.7330 ha        1 0KS      0.153000
     30 H3          1.1630    0.0390   -2.3570 ha        1 0KS      0.164500
     31 H4          0.7390   -1.8250    1.5690 ha        1 0KS      0.164500
     32 H5          5.3590   -0.9060    1.2380 ha        1 0KS      0.152500
     33 H6          2.9190    2.0830   -0.7070 ha        1 0KS      0.152500
     34 H7          3.4490    3.7030    1.1120 ha        1 0KS      0.144500
     35 H8          5.8920    0.7100    3.0590 ha        1 0KS      0.144500
     36 H9          4.9350    3.0180    3.0010 ha        1 0KS      0.140000
     37 H10         1.7720   -3.4220   -0.1000 h1        1 0KS      0.056700
     38 H11         3.5620   -3.2450   -0.4050 h1        1 0KS      0.056700
     39 H12         2.8420   -2.6970    1.1860 h1        1 0KS      0.056700
     40 H13        -2.5970    2.2060   -1.1930 ho        1 0KS      0.437000
@<TRIPOS>BOND
     1    1    2 ar  
     2    1    3 ar  
     3    1   18 1   
     4    2    4 ar  
     5    2   28 1   
     6    3    5 ar  
     7    3   29 1   
     8    4    6 ar  
     9    4   30 1   
    10    5    6 ar  
    11    5   31 1   
    12    6    7 1   
    13    7    8 1   
    14    7   17 1   
    15    8    9 2   
    16    8   10 2   
    17    8   11 1   
    18   11   12 ar  
    19   11   13 ar  
    20   12   15 ar  
    21   12   32 1   
    22   13   14 ar  
    23   13   33 1   
    24   14   16 ar  
    25   14   34 1   
    26   15   16 ar  
    27   15   35 1   
    28   16   36 1   
    29   17   37 1   
    30   17   38 1   
    31   17   39 1   
    32   18   19 1   
    33   18   20 1   
    34   18   27 1   
    35   19   21 1   
    36   19   22 1   
    37   19   23 1   
    38   20   24 1   
    39   20   25 1   
    40   20   26 1   
    41   27   40 1   
@<TRIPOS>SUBSTRUCTURE
     1 0KS         1 TEMP              0 ****  ****    0 ROOT
