@<TRIPOS>MOLECULE
0KS
   41    41     1     0     0
SMALL
bcc


@<TRIPOS>ATOM
      1 C1          0.4840    0.3130    0.0970 ca        1 0KS     -0.093300
      2 C2          1.5070    1.2650    0.1640 ca        1 0KS     -0.067000
      3 C3          0.0370   -0.3050    1.2720 ca        1 0KS     -0.067000
      4 C4          2.0860    1.5900    1.3880 ca        1 0KS     -0.136500
      5 C5          0.6110    0.0090    2.4990 ca        1 0KS     -0.136500
      6 C6          1.6530    0.9560    2.5670 ca        1 0KS      0.020600
      7 N1          2.2810    1.2520    3.8320 nh        1 0KS     -0.790600
      8 S2          3.2350   -0.6090    4.8230 s4        1 0KS      1.661300
      9 O4          3.7460    0.1170    5.8560 o         1 0KS     -0.437400
     10 O5          2.0790   -1.3190    4.9240 o         1 0KS     -0.437400
     11 C8          4.2310   -0.9990    3.6730 ca        1 0KS     -0.588500
     12 C9          5.5460   -0.4680    3.6310 ca        1 0KS      0.027000
     13 C10         3.8710   -1.9290    2.6660 ca        1 0KS      0.027000
     14 C11         4.7680   -2.3060    1.6790 ca        1 0KS     -0.150500
     15 C12         6.4420   -0.8440    2.6450 ca        1 0KS     -0.150500
     16 C13         6.0580   -1.7660    1.6620 ca        1 0KS      0.022000
     17 C7          1.3570    1.8060    4.8210 c3        1 0KS      0.090100
     18 C18        -0.1330   -0.0460   -1.2240 c3        1 0KS      0.142100
     19 C19         0.0760   -1.5920   -1.5490 c3        1 0KS      0.607400
     20 C20        -1.6890    0.2980   -1.2520 c3        1 0KS      0.607400
     21 F5         -0.6920   -2.4420   -0.8040 f         1 0KS     -0.213467
     22 F4         -0.2050   -1.8780   -2.8580 f         1 0KS     -0.213467
     23 F6          1.3650   -2.0130   -1.3610 f         1 0KS     -0.213467
     24 F7         -2.1970    0.2130   -2.5210 f         1 0KS     -0.213467
     25 F9         -2.4640   -0.5200   -0.4800 f         1 0KS     -0.213467
     26 F8         -1.9650    1.5710   -0.8380 f         1 0KS     -0.213467
     27 O1          0.4990    0.6940   -2.2400 oh        1 0KS     -0.555800
     28 H1          1.8530    1.7700   -0.7560 ha        1 0KS      0.181000
     29 H2         -0.7830   -1.0460    1.2280 ha        1 0KS      0.181000
     30 H3          2.8800    2.3540    1.4130 ha        1 0KS      0.160500
     31 H4          0.2370   -0.4930    3.4090 ha        1 0KS      0.160500
     32 H5          5.8610    0.2510    4.4120 ha        1 0KS      0.172000
     33 H6          2.8530   -2.3660    2.6770 ha        1 0KS      0.172000
     34 H7          4.4640   -3.0340    0.9070 ha        1 0KS      0.180500
     35 H8          7.4630   -0.4230    2.6350 ha        1 0KS      0.180500
     36 H9          6.7750   -2.0670    0.8770 ha        1 0KS      0.177000
     37 H10         0.5450    1.0600    5.0320 h1        1 0KS      0.086367
     38 H11         0.8790    2.7590    4.4670 h1        1 0KS      0.086367
     39 H12         1.9320    2.0170    5.7640 h1        1 0KS      0.086367
     40 H13         0.0650    0.4770   -3.0850 ho        1 0KS      0.455000
     41 H111        3.0280    1.9170    3.6780 hn        1 0KS      0.407800
@<TRIPOS>BOND
     1    1    2 ar  
     2    1    3 ar  
     3    1   18 1   
     4    2    4 ar  
     5    2   28 1   
     6    3    5 ar  
     7    3   29 1   
     8    4    6 ar  
     9    4   30 1   
    10    5    6 ar  
    11    5   31 1   
    12    6    7 1   
    13    7   17 1   
    14    7   41 1   
    15    8    9 1   
    16    8   10 1   
    17    8   11 1   
    18   11   12 ar  
    19   11   13 ar  
    20   12   15 ar  
    21   12   32 1   
    22   13   14 ar  
    23   13   33 1   
    24   14   16 ar  
    25   14   34 1   
    26   15   16 ar  
    27   15   35 1   
    28   16   36 1   
    29   17   37 1   
    30   17   38 1   
    31   17   39 1   
    32   18   19 1   
    33   18   20 1   
    34   18   27 1   
    35   19   21 1   
    36   19   22 1   
    37   19   23 1   
    38   20   24 1   
    39   20   25 1   
    40   20   26 1   
    41   27   40 1   
@<TRIPOS>SUBSTRUCTURE
     1 0KS         1 TEMP              0 ****  ****    0 ROOT
