@<TRIPOS>MOLECULE
0KS
   40    41     1     0     0
SMALL
bcc


@<TRIPOS>ATOM
      1 C1          0.1580   -0.4310    0.1270 ca        1 0KS     -0.150300
      2 C2          0.8880   -1.6020    0.3590 ca        1 0KS     -0.062500
      3 C3          0.0740    0.5330    1.1390 ca        1 0KS     -0.062500
      4 C4          1.5280   -1.8120    1.5750 ca        1 0KS     -0.171500
      5 C5          0.7130    0.3380    2.3560 ca        1 0KS     -0.171500
      6 C6          1.4610   -0.8390    2.5990 ca        1 0KS      0.188600
      7 N1          2.1100   -1.0370    3.8330 nh        1 0KS     -0.670900
      8 S2          3.6140   -1.7100    4.0000 sy        1 0KS      1.509200
      9 O4          3.8900   -1.8510    5.3760 o         1 0KS     -0.645300
     10 O5          3.7150   -2.8810    3.2240 o         1 0KS     -0.645300
     11 C8          4.6270   -0.5380    3.3520 ca        1 0KS     -0.394500
     12 C9          5.1670    0.4660    4.1680 ca        1 0KS     -0.011000
     13 C10         4.9870   -0.5650    1.9980 ca        1 0KS     -0.011000
     14 C11         5.8530    0.3880    1.4690 ca        1 0KS     -0.156000
     15 C12         6.0340    1.4220    3.6460 ca        1 0KS     -0.156000
     16 C13         6.3750    1.3860    2.2930 ca        1 0KS     -0.060000
     17 C7          1.4450   -0.5020    4.9920 c3        1 0KS      0.190100
     18 C18        -0.5300   -0.2090   -1.1830 c3        1 0KS      0.171100
     19 C19        -2.1060   -0.0610   -1.0000 c3        1 0KS      0.600400
     20 C20         0.0270    1.0890   -1.9210 c3        1 0KS      0.600400
     21 F5         -2.5130    1.1080   -0.4190 f         1 0KS     -0.221133
     22 F4         -2.7620   -0.1150   -2.2050 f         1 0KS     -0.221133
     23 F6         -2.6680   -1.0570   -0.2530 f         1 0KS     -0.221133
     24 F7         -0.4040    1.1550   -3.2230 f         1 0KS     -0.221133
     25 F9         -0.3410    2.2780   -1.3580 f         1 0KS     -0.221133
     26 F8          1.3910    1.1290   -2.0050 f         1 0KS     -0.221133
     27 O1         -0.2990   -1.3110   -2.0280 oh        1 0KS     -0.551800
     28 H1          0.9520   -2.3740   -0.4270 ha        1 0KS      0.158000
     29 H2         -0.5030    1.4580    0.9690 ha        1 0KS      0.158000
     30 H3          2.0840   -2.7550    1.7250 ha        1 0KS      0.164000
     31 H4          0.6270    1.1150    3.1310 ha        1 0KS      0.164000
     32 H5          4.9120    0.4830    5.2420 ha        1 0KS      0.153500
     33 H6          4.5830   -1.3640    1.3500 ha        1 0KS      0.153500
     34 H7          6.1240    0.3530    0.4030 ha        1 0KS      0.144000
     35 H8          6.4510    2.2020    4.3000 ha        1 0KS      0.144000
     36 H9          7.0590    2.1420    1.8770 ha        1 0KS      0.140000
     37 H10         1.6610    0.5950    5.1100 h1        1 0KS      0.056033
     38 H11         1.8000   -1.0430    5.9130 h1        1 0KS      0.056033
     39 H12         0.3340   -0.6370    4.9060 h1        1 0KS      0.056033
     40 H13        -0.7600   -1.1450   -2.8670 ho        1 0KS      0.440000
@<TRIPOS>BOND
     1    1    2 ar  
     2    1    3 ar  
     3    1   18 1   
     4    2    4 ar  
     5    2   28 1   
     6    3    5 ar  
     7    3   29 1   
     8    4    6 ar  
     9    4   30 1   
    10    5    6 ar  
    11    5   31 1   
    12    6    7 1   
    13    7    8 1   
    14    7   17 1   
    15    8    9 2   
    16    8   10 2   
    17    8   11 1   
    18   11   12 ar  
    19   11   13 ar  
    20   12   15 ar  
    21   12   32 1   
    22   13   14 ar  
    23   13   33 1   
    24   14   16 ar  
    25   14   34 1   
    26   15   16 ar  
    27   15   35 1   
    28   16   36 1   
    29   17   37 1   
    30   17   38 1   
    31   17   39 1   
    32   18   19 1   
    33   18   20 1   
    34   18   27 1   
    35   19   21 1   
    36   19   22 1   
    37   19   23 1   
    38   20   24 1   
    39   20   25 1   
    40   20   26 1   
    41   27   40 1   
@<TRIPOS>SUBSTRUCTURE
     1 0KS         1 TEMP              0 ****  ****    0 ROOT
