@<TRIPOS>MOLECULE
0KS
   40    41     1     0     0
SMALL
bcc


@<TRIPOS>ATOM
      1 C1          0.1470   -0.4230    0.1380 ca        1 0KS     -0.150300
      2 C2          0.8810   -1.5940    0.3540 ca        1 0KS     -0.062500
      3 C3          0.0700    0.5330    1.1580 ca        1 0KS     -0.062500
      4 C4          1.5320   -1.8120    1.5630 ca        1 0KS     -0.171500
      5 C5          0.7180    0.3290    2.3680 ca        1 0KS     -0.171500
      6 C6          1.4710   -0.8480    2.5950 ca        1 0KS      0.188600
      7 N1          2.1290   -1.0550    3.8240 nh        1 0KS     -0.670900
      8 S2          3.6360   -1.7270    3.9730 sy        1 0KS      1.509200
      9 O4          3.9220   -1.8790    5.3460 o         1 0KS     -0.645300
     10 O5          3.7340   -2.8900    3.1860 o         1 0KS     -0.645300
     11 C8          4.6420   -0.5470    3.3290 ca        1 0KS     -0.394500
     12 C9          5.1860    0.4510    4.1490 ca        1 0KS     -0.011000
     13 C10         4.9920   -0.5610    1.9720 ca        1 0KS     -0.011000
     14 C11         5.8530    0.3980    1.4450 ca        1 0KS     -0.156000
     15 C12         6.0470    1.4130    3.6300 ca        1 0KS     -0.156000
     16 C13         6.3790    1.3900    2.2740 ca        1 0KS     -0.060000
     17 C7          1.4720   -0.5310    4.9920 c3        1 0KS      0.190100
     18 C18        -0.5520   -0.1920   -1.1650 c3        1 0KS      0.171100
     19 C19        -2.1260   -0.0470   -0.9670 c3        1 0KS      0.600400
     20 C20        -0.0030    1.1120   -1.8970 c3        1 0KS      0.600400
     21 F5         -2.5300    1.1160   -0.3750 f         1 0KS     -0.221133
     22 F4         -2.7930   -0.0940   -2.1670 f         1 0KS     -0.221133
     23 F6         -2.6810   -1.0500   -0.2230 f         1 0KS     -0.221133
     24 F7         -0.4450    1.1880   -3.1950 f         1 0KS     -0.221133
     25 F9         -0.3680    2.2970   -1.3220 f         1 0KS     -0.221133
     26 F8          1.3600    1.1560   -1.9920 f         1 0KS     -0.221133
     27 O1         -0.3260   -1.2870   -2.0200 oh        1 0KS     -0.551800
     28 H1          0.9410   -2.3600   -0.4380 ha        1 0KS      0.158000
     29 H2         -0.5100    1.4590    1.0000 ha        1 0KS      0.158000
     30 H3          2.0910   -2.7560    1.7020 ha        1 0KS      0.164000
     31 H4          0.6380    1.1000    3.1510 ha        1 0KS      0.164000
     32 H5          4.9380    0.4580    5.2260 ha        1 0KS      0.153500
     33 H6          4.5870   -1.3550    1.3200 ha        1 0KS      0.153500
     34 H7          6.1170    0.3720    0.3770 ha        1 0KS      0.144000
     35 H8          6.4670    2.1890    4.2870 ha        1 0KS      0.144000
     36 H9          7.0590    2.1510    1.8600 ha        1 0KS      0.140000
     37 H10         0.3610   -0.6680    4.9130 h1        1 0KS      0.056033
     38 H11         1.8350   -1.0790    5.9060 h1        1 0KS      0.056033
     39 H12         1.6880    0.5650    5.1180 h1        1 0KS      0.056033
     40 H13        -0.7950   -1.1150   -2.8540 ho        1 0KS      0.440000
@<TRIPOS>BOND
     1    1    2 ar  
     2    1    3 ar  
     3    1   18 1   
     4    2    4 ar  
     5    2   28 1   
     6    3    5 ar  
     7    3   29 1   
     8    4    6 ar  
     9    4   30 1   
    10    5    6 ar  
    11    5   31 1   
    12    6    7 1   
    13    7    8 1   
    14    7   17 1   
    15    8    9 2   
    16    8   10 2   
    17    8   11 1   
    18   11   12 ar  
    19   11   13 ar  
    20   12   15 ar  
    21   12   32 1   
    22   13   14 ar  
    23   13   33 1   
    24   14   16 ar  
    25   14   34 1   
    26   15   16 ar  
    27   15   35 1   
    28   16   36 1   
    29   17   37 1   
    30   17   38 1   
    31   17   39 1   
    32   18   19 1   
    33   18   20 1   
    34   18   27 1   
    35   19   21 1   
    36   19   22 1   
    37   19   23 1   
    38   20   24 1   
    39   20   25 1   
    40   20   26 1   
    41   27   40 1   
@<TRIPOS>SUBSTRUCTURE
     1 0KS         1 TEMP              0 ****  ****    0 ROOT
