@<TRIPOS>MOLECULE
0KT
   55    57     1     0     0
SMALL
bcc


@<TRIPOS>ATOM
      1 C1          0.0900    0.1630    0.0390 ca        1 0KT     -0.134300
      2 C2          1.4380   -0.0490    0.3460 ca        1 0KT     -0.071500
      3 C3         -0.7790    0.5990    1.0440 ca        1 0KT     -0.071500
      4 C4          1.9110    0.1610    1.6360 ca        1 0KT     -0.171000
      5 C5         -0.3180    0.8180    2.3380 ca        1 0KT     -0.171000
      6 C6          1.0390    0.5920    2.6620 ca        1 0KT      0.172600
      7 N1          1.5170    0.8060    3.9720 nh        1 0KT     -0.673900
      8 S2          0.6930    0.3800    5.3380 sy        1 0KT      1.508200
      9 O4          1.4430    0.7900    6.4620 o         1 0KT     -0.647300
     10 O5         -0.6360    0.8420    5.2800 o         1 0KT     -0.647300
     11 C8          0.6820   -1.3020    5.2720 ca        1 0KT     -0.388500
     12 C9         -0.3950   -1.9910    4.7010 ca        1 0KT     -0.011500
     13 C10         1.7320   -2.0430    5.8310 ca        1 0KT     -0.011500
     14 C11         1.7120   -3.4350    5.8110 ca        1 0KT     -0.157500
     15 C12        -0.4210   -3.3830    4.6780 ca        1 0KT     -0.157500
     16 C13         0.6350   -4.1070    5.2320 ca        1 0KT     -0.063000
     17 C7          2.8530    1.3270    4.0820 c3        1 0KT      0.193100
     18 C18        -0.4000   -0.0820   -1.3630 c3        1 0KT      0.281400
     19 C19         0.0850   -1.3900   -1.9060 cc        1 0KT     -0.197600
     20 C20         0.0670    1.1180   -2.3080 c3        1 0KT      0.601900
     21 F7         -0.4220    1.0050   -3.5860 f         1 0KT     -0.232633
     22 F9         -0.3840    2.3410   -1.8880 f         1 0KT     -0.232633
     23 F8          1.4180    1.2730   -2.4540 f         1 0KT     -0.232633
     24 O1         -1.8210   -0.0350   -1.3560 oh        1 0KT     -0.581800
     25 C14         0.9990   -1.6370   -2.9480 cd        1 0KT     -0.154000
     26 N2         -0.3250   -2.6290   -1.3860 na        1 0KT     -0.036100
     27 C16         0.3070   -3.6380   -2.1060 cc        1 0KT     -0.142300
     28 C17         1.1380   -3.0530   -3.0740 cd        1 0KT     -0.200000
     29 C15        -1.2810   -2.8490   -0.3390 c3        1 0KT      0.023300
     30 C21        -2.7020   -3.1480   -0.8480 c3        1 0KT      0.109400
     31 O2         -3.4110   -3.6190    0.2950 os        1 0KT     -0.424600
     32 C23        -4.7940   -3.7980    0.0380 c3        1 0KT      0.117700
     33 H1          2.1300   -0.3820   -0.4450 ha        1 0KT      0.156000
     34 H2         -1.8410    0.7820    0.8080 ha        1 0KT      0.156000
     35 H3          2.9780   -0.0120    1.8470 ha        1 0KT      0.159500
     36 H4         -1.0300    1.1780    3.1030 ha        1 0KT      0.159500
     37 H5         -1.2380   -1.4170    4.2750 ha        1 0KT      0.154000
     38 H6          2.5740   -1.5110    6.3070 ha        1 0KT      0.154000
     39 H7          2.5430   -4.0030    6.2560 ha        1 0KT      0.143500
     40 H8         -1.2760   -3.9090    4.2260 ha        1 0KT      0.143500
     41 H9          0.6180   -5.2080    5.2150 ha        1 0KT      0.138000
     42 H10         3.6150    0.5050    3.9920 h1        1 0KT      0.054367
     43 H11         3.0480    2.0810    3.2740 h1        1 0KT      0.054367
     44 H12         2.9810    1.8300    5.0800 h1        1 0KT      0.054367
     45 H13        -2.1140   -0.2470   -2.2540 ho        1 0KT      0.427000
     46 H14         1.4990   -0.8800   -3.5490 ha        1 0KT      0.165000
     47 H15         0.1300   -4.6890   -1.8770 h4        1 0KT      0.170000
     48 H16         1.7700   -3.5780   -3.7840 ha        1 0KT      0.158000
     49 H17        -1.3240   -1.9270    0.3120 h1        1 0KT      0.083200
     50 H18        -0.9340   -3.7180    0.2890 h1        1 0KT      0.083200
     51 H19        -3.1820   -2.2150   -1.2480 h1        1 0KT      0.040200
     52 H20        -2.7030   -3.9420   -1.6410 h1        1 0KT      0.040200
     53 H21        -4.9500   -4.5510   -0.7740 h1        1 0KT      0.037367
     54 H22        -5.2090   -4.1720    1.0070 h1        1 0KT      0.037367
     55 H23        -5.2710   -2.8270   -0.2450 h1        1 0KT      0.037367
@<TRIPOS>BOND
     1    1    2 ar  
     2    1    3 ar  
     3    1   18 1   
     4    2    4 ar  
     5    2   33 1   
     6    3    5 ar  
     7    3   34 1   
     8    4    6 ar  
     9    4   35 1   
    10    5    6 ar  
    11    5   36 1   
    12    6    7 1   
    13    7    8 1   
    14    7   17 1   
    15    8    9 2   
    16    8   10 2   
    17    8   11 1   
    18   11   12 ar  
    19   11   13 ar  
    20   12   15 ar  
    21   12   37 1   
    22   13   14 ar  
    23   13   38 1   
    24   14   16 ar  
    25   14   39 1   
    26   15   16 ar  
    27   15   40 1   
    28   16   41 1   
    29   17   42 1   
    30   17   43 1   
    31   17   44 1   
    32   18   19 1   
    33   18   20 1   
    34   18   24 1   
    35   19   25 2   
    36   19   26 1   
    37   20   21 1   
    38   20   22 1   
    39   20   23 1   
    40   24   45 1   
    41   25   28 1   
    42   25   46 1   
    43   26   27 1   
    44   26   29 1   
    45   27   28 2   
    46   27   47 1   
    47   28   48 1   
    48   29   30 1   
    49   29   49 1   
    50   29   50 1   
    51   30   31 1   
    52   30   51 1   
    53   30   52 1   
    54   31   32 1   
    55   32   53 1   
    56   32   54 1   
    57   32   55 1   
@<TRIPOS>SUBSTRUCTURE
     1 0KT         1 TEMP              0 ****  ****    0 ROOT
