@<TRIPOS>MOLECULE
0KT
   55    47     1     0     0
SMALL
bcc


@<TRIPOS>ATOM
      1 C1         -0.2590   -0.9440   -1.2320 c1        1 0KT     -0.141000
      2 C2          1.1040   -0.6830   -1.1870 c1        1 0KT     -0.119250
      3 C3         -0.9310   -1.3310   -0.0760 c1        1 0KT     -0.086000
      4 C4          1.7990   -0.8070    0.0130 c1        1 0KT     -0.119250
      5 C5         -0.2370   -1.4560    1.1230 c1        1 0KT     -0.158000
      6 C6          1.1290   -1.1940    1.1670 c1        1 0KT      0.090000
      7 N1          1.8440   -1.2790    2.4270 n3        1 0KT     -0.769000
      8 S2          2.3910    0.1260    3.1800 s4        1 0KT      2.063800
      9 O4          2.5900    1.1830    2.2280 o         1 0KT     -0.534400
     10 O5          1.3770    0.6950    4.0210 o         1 0KT     -0.534400
     11 C8          3.8990   -0.2080    4.1080 c1        1 0KT     -0.835000
     12 C9          5.1420    0.0570    3.5330 c2        1 0KT     -0.009000
     13 C10         3.8210   -0.6070    5.4360 c1        1 0KT     -0.013000
     14 C11         4.9890   -0.7430    6.1970 c1        1 0KT     -0.119250
     15 C12         6.3030   -0.0790    4.2900 c1        1 0KT     -0.156000
     16 C13         6.2230   -0.4800    5.6240 c1        1 0KT     -0.119250
     17 C7          1.9920   -2.5590    3.0870 c3        1 0KT     -0.083000
     18 C18        -1.0160   -0.8230   -2.5450 c3        1 0KT      0.209000
     19 C19        -1.5110    0.6220   -2.7230 c2        1 0KT     -0.140000
     20 C20        -0.0970   -1.1850   -3.6920 c3        1 0KT      0.370000
     21 F7          0.6970   -0.1630   -3.9590 f         1 0KT     -0.166333
     22 F9          0.6470   -2.2540   -3.3510 f         1 0KT     -0.166333
     23 F8         -0.8270   -1.4770   -4.7740 f         1 0KT     -0.166333
     24 O1         -2.1120   -1.6930   -2.5340 oh        1 0KT     -0.311000
     25 C14        -0.5280    1.5710   -2.6480 c1        1 0KT     -0.140000
     26 N2         -2.6840    1.2530   -3.0560 n2        1 0KT     -0.095000
     27 C16        -2.4240    2.5860   -3.1880 c1        1 0KT     -0.102000
     28 C17        -1.0900    2.7860   -2.9350 c1        1 0KT     -0.215000
     29 C15        -3.9410    0.6130   -3.3030 c2        1 0KT     -0.029000
     30 C21        -5.0580    1.6820   -3.3790 c3        1 0KT     -0.040000
     31 O2         -5.8010    1.6750   -2.1650 os        1 0KT     -0.287000
     32 C23        -7.0490    2.3640   -2.2450 c3        1 0KT     -0.074000
     33 H1          1.5740   -0.4110   -1.9970 ha        1 0KT      0.153500
     34 H2         -1.8980   -1.5180   -0.1070 ha        1 0KT      0.149000
     35 H3          2.7490   -0.6250    0.0440 ha        1 0KT      0.153500
     36 H4         -0.7080   -1.7280    1.9340 ha        1 0KT      0.142000
     37 H5          5.1990    0.3410    2.5910 ha        1 0KT      0.156000
     38 H6          2.9410   -0.7940    5.8450 ha        1 0KT      0.152000
     39 H7          4.9340   -1.0260    7.1390 ha        1 0KT      0.153500
     40 H8          7.1800    0.1080    3.8840 ha        1 0KT      0.145000
     41 H9          7.0380   -0.5740    6.1540 ha        1 0KT      0.153500
     42 H10         1.3410   -3.1960    2.7170 h1        1 0KT      0.094000
     43 H11         2.8990   -2.8980    2.9410 h1        1 0KT      0.094000
     44 H12         1.8320   -2.4490    4.0620 h1        1 0KT      0.094000
     45 H13        -1.8350   -2.5210   -2.7000 ho        1 0KT      0.222000
     46 H14         0.4160    1.4090   -2.4270 DU        1 0KT      0.166000
     47 H15        -3.0730    3.2770   -3.4200 DU        1 0KT      0.166000
     48 H16        -0.6280    3.6360   -2.9570 DU        1 0KT      0.166000
     49 H17        -4.1390   -0.0170   -2.5690 ha        1 0KT      0.122000
     50 H18        -3.8970    0.1220   -4.1530 ha        1 0KT      0.122000
     51 H19        -4.6590    2.5630   -3.5110 h1        1 0KT      0.084500
     52 H20        -5.6520    1.4800   -4.1260 h1        1 0KT      0.084500
     53 H21        -6.8940    3.2890   -2.5520 h1        1 0KT      0.075333
     54 H22        -7.6310    1.9080   -2.8740 h1        1 0KT      0.075333
     55 H23        -7.4730    2.3800   -1.3570 h1        1 0KT      0.075333
@<TRIPOS>BOND
     1    1    3 1   
     2    1   18 1   
     3    2    4 1   
     4    2   33 1   
     5    3   34 1   
     6    4   35 1   
     7    5    6 1   
     8    5   36 1   
     9    6    7 1   
    10    7    8 1   
    11    7   17 1   
    12    8    9 1   
    13    8   10 1   
    14   11   12 1   
    15   11   13 1   
    16   12   15 1   
    17   12   37 1   
    18   13   38 1   
    19   14   16 1   
    20   14   39 1   
    21   15   40 1   
    22   16   41 1   
    23   17   42 1   
    24   17   43 1   
    25   17   44 1   
    26   18   19 1   
    27   18   20 1   
    28   18   24 1   
    29   19   25 1   
    30   19   26 1   
    31   20   21 1   
    32   20   22 1   
    33   20   23 1   
    34   24   45 1   
    35   25   28 1   
    36   26   27 1   
    37   27   28 1   
    38   29   30 1   
    39   29   49 1   
    40   29   50 1   
    41   30   31 1   
    42   30   51 1   
    43   30   52 1   
    44   31   32 1   
    45   32   53 1   
    46   32   54 1   
    47   32   55 1   
@<TRIPOS>SUBSTRUCTURE
     1 0KT         1 TEMP              0 ****  ****    0 ROOT
