@<TRIPOS>MOLECULE
0KT
   55    57     1     0     0
SMALL
bcc


@<TRIPOS>ATOM
      1 C1         -0.9310    0.6770    0.3230 ca        1 0KT     -0.121300
      2 C2         -0.4920    1.1550   -0.9170 ca        1 0KT     -0.078500
      3 C3         -0.0100    0.5270    1.3620 ca        1 0KT     -0.078500
      4 C4          0.8430    1.4810   -1.1170 ca        1 0KT     -0.160500
      5 C5          1.3310    0.8510    1.1770 ca        1 0KT     -0.160500
      6 C6          1.7830    1.3310   -0.0720 ca        1 0KT      0.158600
      7 N1          3.1390    1.6760   -0.2700 nh        1 0KT     -0.676900
      8 S2          4.4050    0.7340    0.2010 sy        1 0KT      1.506200
      9 O4          5.5990    1.4740    0.0530 o         1 0KT     -0.647800
     10 O5          4.1710    0.1820    1.4760 o         1 0KT     -0.647800
     11 C8          4.4000   -0.5130   -0.9330 ca        1 0KT     -0.383500
     12 C9          3.7640   -1.7310   -0.6610 ca        1 0KT     -0.012500
     13 C10         5.0710   -0.3670   -2.1540 ca        1 0KT     -0.012500
     14 C11         5.0990   -1.4030   -3.0840 ca        1 0KT     -0.157500
     15 C12         3.7880   -2.7720   -1.5850 ca        1 0KT     -0.157500
     16 C13         4.4540   -2.6070   -2.8000 ca        1 0KT     -0.063000
     17 C7          3.3810    2.8680   -1.0380 c3        1 0KT      0.194100
     18 C18        -2.3840    0.3220    0.5130 c3        1 0KT      0.281400
     19 C19        -2.8630   -0.5890   -0.5760 cc        1 0KT     -0.176600
     20 C20        -3.2680    1.6550    0.5460 c3        1 0KT      0.601900
     21 F7         -4.6020    1.4030    0.7390 f         1 0KT     -0.234633
     22 F9         -2.9330    2.4910    1.5780 f         1 0KT     -0.234633
     23 F8         -3.2130    2.4460   -0.5700 f         1 0KT     -0.234633
     24 O1         -2.5380   -0.2440    1.8040 oh        1 0KT     -0.583800
     25 C14        -3.5370   -0.2450   -1.7640 cd        1 0KT     -0.162000
     26 N2         -2.6230   -1.9720   -0.5980 na        1 0KT     -0.037100
     27 C16        -3.1670   -2.4920   -1.7720 cc        1 0KT     -0.151300
     28 C17        -3.7290   -1.4460   -2.5150 cd        1 0KT     -0.195000
     29 C15        -2.0240   -2.7740    0.4290 c3        1 0KT      0.021300
     30 C21        -3.0060   -3.6530    1.2170 c3        1 0KT      0.110400
     31 O2         -3.7450   -2.7920    2.0780 os        1 0KT     -0.431600
     32 C23        -4.7410   -3.4780    2.8180 c3        1 0KT      0.116700
     33 H1         -1.2180    1.2760   -1.7390 ha        1 0KT      0.156000
     34 H2         -0.3480    0.1590    2.3450 ha        1 0KT      0.156000
     35 H3          1.1600    1.8630   -2.1000 ha        1 0KT      0.157500
     36 H4          2.0330    0.7240    2.0200 ha        1 0KT      0.157500
     37 H5          3.2520   -1.8660    0.3090 ha        1 0KT      0.153000
     38 H6          5.5980    0.5800   -2.3690 ha        1 0KT      0.153000
     39 H7          5.6320   -1.2720   -4.0370 ha        1 0KT      0.141000
     40 H8          3.2860   -3.7230   -1.3550 ha        1 0KT      0.141000
     41 H9          4.4730   -3.4280   -3.5340 ha        1 0KT      0.137000
     42 H10         2.6050    3.6460   -0.8090 h1        1 0KT      0.053700
     43 H11         4.3930    3.2840   -0.7790 h1        1 0KT      0.053700
     44 H12         3.3480    2.6480   -2.1400 h1        1 0KT      0.053700
     45 H13        -3.4200   -0.6450    1.8470 ho        1 0KT      0.446000
     46 H14        -3.8590    0.7530   -2.0490 ha        1 0KT      0.165000
     47 H15        -3.1080   -3.5570   -1.9940 h4        1 0KT      0.165000
     48 H16        -4.2180   -1.5300   -3.4810 ha        1 0KT      0.156000
     49 H17        -1.2740   -3.4630   -0.0570 h1        1 0KT      0.083200
     50 H18        -1.4830   -2.0950    1.1520 h1        1 0KT      0.083200
     51 H19        -3.7050   -4.2080    0.5370 h1        1 0KT      0.040200
     52 H20        -2.4220   -4.3870    1.8340 h1        1 0KT      0.040200
     53 H21        -5.4920   -3.9420    2.1310 h1        1 0KT      0.038367
     54 H22        -4.2780   -4.2630    3.4660 h1        1 0KT      0.038367
     55 H23        -5.2190   -2.6830    3.4430 h1        1 0KT      0.038367
@<TRIPOS>BOND
     1    1    2 ar  
     2    1    3 ar  
     3    1   18 1   
     4    2    4 ar  
     5    2   33 1   
     6    3    5 ar  
     7    3   34 1   
     8    4    6 ar  
     9    4   35 1   
    10    5    6 ar  
    11    5   36 1   
    12    6    7 1   
    13    7    8 1   
    14    7   17 1   
    15    8    9 2   
    16    8   10 2   
    17    8   11 1   
    18   11   12 ar  
    19   11   13 ar  
    20   12   15 ar  
    21   12   37 1   
    22   13   14 ar  
    23   13   38 1   
    24   14   16 ar  
    25   14   39 1   
    26   15   16 ar  
    27   15   40 1   
    28   16   41 1   
    29   17   42 1   
    30   17   43 1   
    31   17   44 1   
    32   18   19 1   
    33   18   20 1   
    34   18   24 1   
    35   19   25 2   
    36   19   26 1   
    37   20   21 1   
    38   20   22 1   
    39   20   23 1   
    40   24   45 1   
    41   25   28 1   
    42   25   46 1   
    43   26   27 1   
    44   26   29 1   
    45   27   28 2   
    46   27   47 1   
    47   28   48 1   
    48   29   30 1   
    49   29   49 1   
    50   29   50 1   
    51   30   31 1   
    52   30   51 1   
    53   30   52 1   
    54   31   32 1   
    55   32   53 1   
    56   32   54 1   
    57   32   55 1   
@<TRIPOS>SUBSTRUCTURE
     1 0KT         1 TEMP              0 ****  ****    0 ROOT
