@<TRIPOS>MOLECULE
0KT
   56    57     1     0     0
SMALL
bcc


@<TRIPOS>ATOM
      1 C1         -0.4900   -1.0920    0.9210 ca        1 0KT     -0.079300
      2 C2          0.5260   -0.1330    0.8320 ca        1 0KT     -0.074500
      3 C3         -0.3850   -2.1240    1.8590 ca        1 0KT     -0.074500
      4 C4          1.6200   -0.1830    1.6900 ca        1 0KT     -0.139000
      5 C5          0.7030   -2.1840    2.7260 ca        1 0KT     -0.139000
      6 C6          1.7080   -1.1990    2.6620 ca        1 0KT      0.002600
      7 N1          2.8010   -1.2150    3.6040 nh        1 0KT     -0.788600
      8 S2          2.0710   -1.0140    5.7600 s4        1 0KT      1.656300
      9 O4          1.4190   -2.2090    5.8060 o         1 0KT     -0.441400
     10 O5          3.3300   -0.8470    6.2570 o         1 0KT     -0.441400
     11 C8          1.1990    0.2850    5.6030 ca        1 0KT     -0.583500
     12 C9          1.7580    1.5730    5.8050 ca        1 0KT      0.027000
     13 C10        -0.1820    0.2140    5.2960 ca        1 0KT      0.027000
     14 C11        -0.9580    1.3590    5.1960 ca        1 0KT     -0.150000
     15 C12         0.9830    2.7160    5.7070 ca        1 0KT     -0.150000
     16 C13        -0.3800    2.6160    5.4000 ca        1 0KT      0.020000
     17 C7          3.6030   -2.4360    3.5470 c3        1 0KT      0.091100
     18 C18        -1.6830   -0.9940    0.0010 c3        1 0KT      0.277400
     19 C19        -1.2720   -0.8320   -1.4250 cc        1 0KT     -0.229600
     20 C20        -2.5950    0.2330    0.4700 c3        1 0KT      0.603900
     21 F7         -3.7550    0.3390   -0.2490 f         1 0KT     -0.230633
     22 F9         -3.0070    0.1190    1.7740 f         1 0KT     -0.230633
     23 F8         -2.0080    1.4680    0.4100 f         1 0KT     -0.230633
     24 O1         -2.4820   -2.1520    0.1920 oh        1 0KT     -0.583800
     25 C14        -1.3680    0.3050   -2.2500 cd        1 0KT     -0.140000
     26 N2         -0.6630   -1.8590   -2.1680 na        1 0KT     -0.039100
     27 C16        -0.4040   -1.3770   -3.4470 cc        1 0KT     -0.124300
     28 C17        -0.8210   -0.0380   -3.5230 cd        1 0KT     -0.195000
     29 C15        -0.4250   -3.2080   -1.7400 c3        1 0KT      0.021300
     30 C21        -1.4770   -4.2160   -2.2370 c3        1 0KT      0.112400
     31 O2         -1.0090   -5.4810   -1.7830 os        1 0KT     -0.426600
     32 C23        -1.8350   -6.5530   -2.2150 c3        1 0KT      0.115700
     33 H1          0.4540    0.6670    0.0730 ha        1 0KT      0.179000
     34 H2         -1.1720   -2.8990    1.9130 ha        1 0KT      0.179000
     35 H3          2.4100    0.5790    1.5920 ha        1 0KT      0.156000
     36 H4          0.7600   -3.0070    3.4590 ha        1 0KT      0.156000
     37 H5          2.8320    1.6580    6.0590 ha        1 0KT      0.171000
     38 H6         -0.6470   -0.7780    5.1350 ha        1 0KT      0.171000
     39 H7         -2.0320    1.2760    4.9540 ha        1 0KT      0.180000
     40 H8          1.4380    3.7070    5.8740 ha        1 0KT      0.180000
     41 H9         -0.9970    3.5280    5.3210 ha        1 0KT      0.175000
     42 H10         4.4440   -2.3430    4.2870 h1        1 0KT      0.085367
     43 H11         4.0340   -2.6110    2.5260 h1        1 0KT      0.085367
     44 H12         2.9590   -3.3170    3.8160 h1        1 0KT      0.085367
     45 H13        -3.1660   -2.1450   -0.4950 ho        1 0KT      0.443000
     46 H14        -1.7950    1.2660   -1.9680 ha        1 0KT      0.166000
     47 H15         0.0600   -2.0100   -4.2050 h4        1 0KT      0.180000
     48 H16        -0.7440    0.6120   -4.3900 ha        1 0KT      0.169000
     49 H17        -0.4130   -3.2360   -0.6120 h1        1 0KT      0.078700
     50 H18         0.5860   -3.5330   -2.1190 h1        1 0KT      0.078700
     51 H19        -1.5540   -4.2100   -3.3560 h1        1 0KT      0.040200
     52 H20        -2.4830   -4.0000   -1.7910 h1        1 0KT      0.040200
     53 H21        -2.8710   -6.4350   -1.8140 h1        1 0KT      0.042367
     54 H22        -1.8590   -6.6050   -3.3310 h1        1 0KT      0.042367
     55 H23        -1.3470   -7.4640   -1.7880 h1        1 0KT      0.042367
     56 H111        3.4040   -0.4220    3.4200 hn        1 0KT      0.409800
@<TRIPOS>BOND
     1    1    2 ar  
     2    1    3 ar  
     3    1   18 1   
     4    2    4 ar  
     5    2   33 1   
     6    3    5 ar  
     7    3   34 1   
     8    4    6 ar  
     9    4   35 1   
    10    5    6 ar  
    11    5   36 1   
    12    6    7 1   
    13    7   17 1   
    14    7   56 1   
    15    8    9 1   
    16    8   10 1   
    17    8   11 1   
    18   11   12 ar  
    19   11   13 ar  
    20   12   15 ar  
    21   12   37 1   
    22   13   14 ar  
    23   13   38 1   
    24   14   16 ar  
    25   14   39 1   
    26   15   16 ar  
    27   15   40 1   
    28   16   41 1   
    29   17   42 1   
    30   17   43 1   
    31   17   44 1   
    32   18   19 1   
    33   18   20 1   
    34   18   24 1   
    35   19   25 2   
    36   19   26 1   
    37   20   21 1   
    38   20   22 1   
    39   20   23 1   
    40   24   45 1   
    41   25   28 1   
    42   25   46 1   
    43   26   27 1   
    44   26   29 1   
    45   27   28 2   
    46   27   47 1   
    47   28   48 1   
    48   29   30 1   
    49   29   49 1   
    50   29   50 1   
    51   30   31 1   
    52   30   51 1   
    53   30   52 1   
    54   31   32 1   
    55   32   53 1   
    56   32   54 1   
    57   32   55 1   
@<TRIPOS>SUBSTRUCTURE
     1 0KT         1 TEMP              0 ****  ****    0 ROOT
