@<TRIPOS>MOLECULE
0KT
   55    57     1     0     0
SMALL
bcc


@<TRIPOS>ATOM
      1 C1          0.0880    0.1550    0.0300 ca        1 0KT     -0.134300
      2 C2          1.4370   -0.0530    0.3400 ca        1 0KT     -0.071500
      3 C3         -0.7820    0.5970    1.0310 ca        1 0KT     -0.071500
      4 C4          1.9080    0.1660    1.6290 ca        1 0KT     -0.171000
      5 C5         -0.3230    0.8250    2.3240 ca        1 0KT     -0.171000
      6 C6          1.0350    0.6030    2.6510 ca        1 0KT      0.172600
      7 N1          1.5110    0.8250    3.9600 nh        1 0KT     -0.673900
      8 S2          0.6860    0.4060    5.3280 sy        1 0KT      1.508200
      9 O4          1.4350    0.8270    6.4500 o         1 0KT     -0.647300
     10 O5         -0.6440    0.8640    5.2660 o         1 0KT     -0.647300
     11 C8          0.6810   -1.2760    5.2740 ca        1 0KT     -0.388500
     12 C9         -0.3940   -1.9720    4.7070 ca        1 0KT     -0.011500
     13 C10         1.7330   -2.0100    5.8370 ca        1 0KT     -0.011500
     14 C11         1.7180   -3.4020    5.8270 ca        1 0KT     -0.157500
     15 C12        -0.4160   -3.3650    4.6940 ca        1 0KT     -0.157500
     16 C13         0.6430   -4.0810    5.2520 ca        1 0KT     -0.063000
     17 C7          2.8460    1.3500    4.0680 c3        1 0KT      0.193100
     18 C18        -0.3990   -0.0990   -1.3710 c3        1 0KT      0.281400
     19 C19         0.0870   -1.4110   -1.9050 cc        1 0KT     -0.197600
     20 C20         0.0670    1.0950   -2.3230 c3        1 0KT      0.601900
     21 F7         -0.4200    0.9730   -3.6020 f         1 0KT     -0.232633
     22 F9         -0.3850    2.3210   -1.9120 f         1 0KT     -0.232633
     23 F8          1.4190    1.2510   -2.4690 f         1 0KT     -0.232633
     24 O1         -1.8210   -0.0530   -1.3660 oh        1 0KT     -0.581800
     25 C14         1.0020   -1.6630   -2.9440 cd        1 0KT     -0.154000
     26 N2         -0.3230   -2.6460   -1.3770 na        1 0KT     -0.036100
     27 C16         0.3110   -3.6590   -2.0910 cc        1 0KT     -0.142300
     28 C17         1.1430   -3.0800   -3.0600 cd        1 0KT     -0.200000
     29 C15        -1.2800   -2.8600   -0.3310 c3        1 0KT      0.023300
     30 C21        -2.7000   -3.1630   -0.8400 c3        1 0KT      0.109400
     31 O2         -3.4110   -3.6280    0.3050 os        1 0KT     -0.424600
     32 C23        -4.7940   -3.8080    0.0480 c3        1 0KT      0.117700
     33 H1          2.1300   -0.3900   -0.4490 ha        1 0KT      0.156000
     34 H2         -1.8440    0.7770    0.7930 ha        1 0KT      0.156000
     35 H3          2.9750   -0.0050    1.8420 ha        1 0KT      0.159500
     36 H4         -1.0360    1.1880    3.0860 ha        1 0KT      0.159500
     37 H5         -1.2380   -1.4030    4.2780 ha        1 0KT      0.154000
     38 H6          2.5730   -1.4720    6.3100 ha        1 0KT      0.154000
     39 H7          2.5500   -3.9640    6.2760 ha        1 0KT      0.143500
     40 H8         -1.2690   -3.8960    4.2450 ha        1 0KT      0.143500
     41 H9          0.6280   -5.1820    5.2430 ha        1 0KT      0.138000
     42 H10         3.6090    0.5280    3.9850 h1        1 0KT      0.054367
     43 H11         2.9720    1.8600    5.0630 h1        1 0KT      0.054367
     44 H12         3.0410    2.0980    3.2550 h1        1 0KT      0.054367
     45 H13        -2.1120   -0.2710   -2.2630 ho        1 0KT      0.427000
     46 H14         1.5030   -0.9100   -3.5490 ha        1 0KT      0.165000
     47 H15         0.1340   -4.7090   -1.8540 h4        1 0KT      0.170000
     48 H16         1.7760   -3.6090   -3.7660 ha        1 0KT      0.158000
     49 H17        -0.9330   -3.7250    0.3040 h1        1 0KT      0.083200
     50 H18        -1.3250   -1.9340    0.3140 h1        1 0KT      0.083200
     51 H19        -2.7000   -3.9620   -1.6280 h1        1 0KT      0.040200
     52 H20        -3.1800   -2.2330   -1.2460 h1        1 0KT      0.040200
     53 H21        -4.9480   -4.5660   -0.7600 h1        1 0KT      0.037367
     54 H22        -5.2100   -4.1770    1.0180 h1        1 0KT      0.037367
     55 H23        -5.2700   -2.8400   -0.2420 h1        1 0KT      0.037367
@<TRIPOS>BOND
     1    1    2 ar  
     2    1    3 ar  
     3    1   18 1   
     4    2    4 ar  
     5    2   33 1   
     6    3    5 ar  
     7    3   34 1   
     8    4    6 ar  
     9    4   35 1   
    10    5    6 ar  
    11    5   36 1   
    12    6    7 1   
    13    7    8 1   
    14    7   17 1   
    15    8    9 2   
    16    8   10 2   
    17    8   11 1   
    18   11   12 ar  
    19   11   13 ar  
    20   12   15 ar  
    21   12   37 1   
    22   13   14 ar  
    23   13   38 1   
    24   14   16 ar  
    25   14   39 1   
    26   15   16 ar  
    27   15   40 1   
    28   16   41 1   
    29   17   42 1   
    30   17   43 1   
    31   17   44 1   
    32   18   19 1   
    33   18   20 1   
    34   18   24 1   
    35   19   25 2   
    36   19   26 1   
    37   20   21 1   
    38   20   22 1   
    39   20   23 1   
    40   24   45 1   
    41   25   28 1   
    42   25   46 1   
    43   26   27 1   
    44   26   29 1   
    45   27   28 2   
    46   27   47 1   
    47   28   48 1   
    48   29   30 1   
    49   29   49 1   
    50   29   50 1   
    51   30   31 1   
    52   30   51 1   
    53   30   52 1   
    54   31   32 1   
    55   32   53 1   
    56   32   54 1   
    57   32   55 1   
@<TRIPOS>SUBSTRUCTURE
     1 0KT         1 TEMP              0 ****  ****    0 ROOT
