@<TRIPOS>MOLECULE
0KU
   52    54     1     0     0
SMALL
bcc


@<TRIPOS>ATOM
      1 C01         0.1570    1.2820    0.0900 ca        1 0KU      0.024400
      2 C02         1.5470    1.1210    0.1690 ca        1 0KU     -0.100500
      3 C03         2.1210    0.5640    1.3040 ca        1 0KU     -0.128500
      4 C04         1.3040    0.1540    2.3830 ca        1 0KU      0.005600
      5 C05        -0.0910    0.3170    2.2970 ca        1 0KU     -0.128500
      6 C06        -0.6550    0.8790    1.1540 ca        1 0KU     -0.100500
      7 Cl1        -0.5350    1.9630   -1.2940 cl        1 0KU     -0.045400
      8 N08         1.9430   -0.4280    3.5090 ns        1 0KU     -0.393100
      9 C09         1.3590   -0.6720    4.7100 c         1 0KU      0.610100
     10 C10         2.3150   -1.2730    5.7760 c         1 0KU      0.444100
     11 N11         1.6270   -1.8420    6.9730 ny        1 0KU     -0.653800
     12 O12         3.5340   -1.3200    5.7070 o         1 0KU     -0.407100
     13 O13         0.1770   -0.4910    5.0520 o         1 0KU     -0.557100
     14 C14         2.3270   -1.5570    8.2860 c3        1 0KU      0.137200
     15 C15         1.9170   -0.1620    8.8640 c3        1 0KU      0.147500
     16 C16         1.9930   -2.6290    9.2750 cc        1 0KU      0.189700
     17 C17         2.0690    0.9540    7.8190 c3        1 0KU     -0.131400
     18 C18         1.7220    2.2980    8.4340 c3        1 0KU     -0.075400
     19 C19         2.4820    2.5530    9.7190 c3        1 0KU     -0.120400
     20 C20         2.3440    1.3700   10.6750 c3        1 0KU      0.144800
     21 N21         2.6760    0.0810   10.0900 n7        1 0KU     -0.785200
     22 N22         0.7730   -3.2210    9.3090 nd        1 0KU     -0.654000
     23 C23         0.7310   -4.1120   10.3530 cd        1 0KU      0.361600
     24 C24         1.9310   -4.1680   11.1020 cc        1 0KU     -0.230700
     25 S25         3.0540   -3.1220   10.4870 ss        1 0KU      0.225700
     26 C26        -0.4600   -4.9350   10.6650 c3        1 0KU     -0.135400
     27 C27         2.0950   -5.0570   12.2730 c3        1 0KU      0.205700
     28 O28         3.4470   -4.9890   12.7040 oh        1 0KU     -0.611800
     29 H1          2.1910    1.4370   -0.6680 ha        1 0KU      0.167500
     30 H2          3.2160    0.4470    1.3430 ha        1 0KU      0.158000
     31 H3         -0.7570    0.0110    3.1200 ha        1 0KU      0.158000
     32 H4         -1.7490    1.0030    1.0970 ha        1 0KU      0.167500
     33 H5          2.9270   -0.5930    3.4140 hn        1 0KU      0.352500
     34 H6          1.5630   -2.8640    6.8510 hn        1 0KU      0.488300
     35 H7          3.4390   -1.5720    8.0670 hx        1 0KU      0.111700
     36 H8          0.8270   -0.2200    9.1670 h1        1 0KU      0.100700
     37 H9          3.1200    0.9720    7.4290 hc        1 0KU      0.042200
     38 H10         1.3780    0.7810    6.9530 hc        1 0KU      0.042200
     39 H12         0.6190    2.3310    8.6430 hc        1 0KU      0.060700
     40 H11         1.9480    3.1100    7.6940 hc        1 0KU      0.060700
     41 H13         3.5640    2.7370    9.4910 hc        1 0KU      0.063700
     42 H14         2.0830    3.4740   10.2170 hc        1 0KU      0.063700
     43 H16         3.0180    1.5200   11.5650 h1        1 0KU      0.074200
     44 H15         1.2820    1.3150   11.0490 h1        1 0KU      0.074200
     45 H17         3.6610    0.0550    9.8820 hn        1 0KU      0.352800
     46 H21        -0.7700   -4.7500   11.7250 hc        1 0KU      0.064700
     47 H19        -1.3220   -4.7020    9.9940 hc        1 0KU      0.064700
     48 H20        -0.2020   -6.0190   10.5550 hc        1 0KU      0.064700
     49 H23         1.4060   -4.7260   13.1010 h1        1 0KU      0.056700
     50 H22         1.8360   -6.1160   11.9860 h1        1 0KU      0.056700
     51 H24         3.5160   -5.5450   13.4910 ho        1 0KU      0.429000
     52 H112        0.6630   -1.4670    7.0190 hn        1 0KU      0.488300
@<TRIPOS>BOND
     1    1    2 ar  
     2    1    6 ar  
     3    1    7 1   
     4    2    3 ar  
     5    2   29 1   
     6    3    4 ar  
     7    3   30 1   
     8    4    5 ar  
     9    4    8 1   
    10    5    6 ar  
    11    5   31 1   
    12    6   32 1   
    13    8    9 1   
    14    8   33 1   
    15    9   10 1   
    16    9   13 2   
    17   10   11 1   
    18   10   12 2   
    19   11   14 1   
    20   11   34 1   
    21   11   52 1   
    22   14   15 1   
    23   14   16 1   
    24   14   35 1   
    25   15   17 1   
    26   15   21 1   
    27   15   36 1   
    28   16   22 2   
    29   16   25 1   
    30   17   18 1   
    31   17   37 1   
    32   17   38 1   
    33   18   19 1   
    34   18   39 1   
    35   18   40 1   
    36   19   20 1   
    37   19   41 1   
    38   19   42 1   
    39   20   21 1   
    40   20   43 1   
    41   20   44 1   
    42   21   45 1   
    43   22   23 1   
    44   23   24 2   
    45   23   26 1   
    46   24   25 1   
    47   24   27 1   
    48   26   46 1   
    49   26   47 1   
    50   26   48 1   
    51   27   28 1   
    52   27   49 1   
    53   27   50 1   
    54   28   51 1   
@<TRIPOS>SUBSTRUCTURE
     1 0KU         1 TEMP              0 ****  ****    0 ROOT
