@<TRIPOS>MOLECULE
0KU
   53    55     1     0     0
SMALL
bcc


@<TRIPOS>ATOM
      1 C01         0.6270   -1.1350    0.3730 ca        1 0KU      0.084400
      2 C02         1.9030   -1.0620    0.9600 ca        1 0KU     -0.105000
      3 C03         2.1120   -0.2860    2.0930 ca        1 0KU     -0.080500
      4 C04         1.0300    0.4270    2.6460 ca        1 0KU     -0.125400
      5 C05        -0.2530    0.3620    2.0670 ca        1 0KU     -0.080500
      6 C06        -0.4450   -0.4210    0.9350 ca        1 0KU     -0.105000
      7 CL1         0.3870   -2.0690   -0.9980 cl        1 0KU      0.046600
      8 N08         1.2580    1.3100    3.7990 n4        1 0KU     -0.500200
      9 C09         0.8170    0.6690    5.0730 c         1 0KU      0.449100
     10 C10         1.8450   -0.2340    5.7660 c         1 0KU      0.476100
     11 N11         1.3290   -1.0640    6.8670 n4        1 0KU     -0.653800
     12 O12         3.0200   -0.2610    5.4280 o         1 0KU     -0.359100
     13 O13        -0.3030    0.8780    5.5100 o         1 0KU     -0.336100
     14 C14         2.2530   -1.1300    8.1040 c3        1 0KU      0.168200
     15 C15         2.0380    0.1170    9.0170 c3        1 0KU      0.145500
     16 C16         1.9230   -2.3850    8.8260 cc        1 0KU      0.122700
     17 C17         2.2840    1.4260    8.2520 c3        1 0KU     -0.120400
     18 C18         2.1040    2.6120    9.1850 c3        1 0KU     -0.078400
     19 C19         2.9390    2.4740   10.4410 c3        1 0KU     -0.121400
     20 C20         2.7140    1.1160   11.1020 c3        1 0KU      0.140800
     21 N21         2.8730   -0.0220   10.2090 n3        1 0KU     -0.773200
     22 N22         0.6240   -2.7380    9.0660 nd        1 0KU     -0.651000
     23 C23         0.5980   -3.8620    9.8400 cd        1 0KU      0.371600
     24 C24         1.8920   -4.3410   10.1930 cc        1 0KU     -0.211700
     25 S25         3.0650   -3.3900    9.5440 ss        1 0KU      0.280700
     26 C26        -0.6520   -4.5240   10.2800 c3        1 0KU     -0.141400
     27 C27         2.0940   -5.5380   11.0410 c3        1 0KU      0.197700
     28 O28         3.4820   -5.8310   11.0620 oh        1 0KU     -0.615800
     29 H1          2.7500   -1.6140    0.5130 ha        1 0KU      0.199500
     30 H2          3.1250   -0.2300    2.5270 ha        1 0KU      0.168500
     31 H3         -1.1070    0.9250    2.4830 ha        1 0KU      0.168500
     32 H4         -1.4490   -0.4700    0.4710 ha        1 0KU      0.199500
     33 H5          2.2640    1.5410    3.8540 hn        1 0KU      0.495300
     34 H6          0.4040   -0.7230    7.1840 hn        1 0KU      0.498800
     35 H7          3.3120   -1.1550    7.7080 hx        1 0KU      0.111700
     36 H8          0.9650    0.1090    9.3840 h1        1 0KU      0.106700
     37 H9          3.3190    1.4340    7.8200 hc        1 0KU      0.014700
     38 H10         1.5550    1.5280    7.4030 hc        1 0KU      0.014700
     39 H12         2.3880    3.5540    8.6460 hc        1 0KU      0.063700
     40 H11         1.0200    2.6970    9.4660 hc        1 0KU      0.063700
     41 H13         2.6600    3.2830   11.1670 hc        1 0KU      0.074700
     42 H14         4.0240    2.6070   10.1940 hc        1 0KU      0.074700
     43 H16         1.6730    1.0740   11.5330 h1        1 0KU      0.086200
     44 H15         3.4440    0.9800   11.9500 h1        1 0KU      0.086200
     45 H17         3.8380   -0.1040    9.9360 hn        1 0KU      0.357800
     46 H21        -0.6730   -4.5640   11.3990 hc        1 0KU      0.072700
     47 H19        -1.5650   -3.9830    9.9270 hc        1 0KU      0.072700
     48 H20        -0.6790   -5.5710    9.8860 hc        1 0KU      0.072700
     49 H23         1.5210   -6.4100   10.6120 h1        1 0KU      0.069200
     50 H22         1.7170   -5.3320   12.0840 h1        1 0KU      0.069200
     51 H24         3.6070   -6.5680   11.6750 ho        1 0KU      0.442000
     52 H082        0.7140    2.1810    3.6580 hn        1 0KU      0.495300
     53 H112        1.2110   -2.0370    6.5250 hn        1 0KU      0.498800
@<TRIPOS>BOND
     1    1    2 ar  
     2    1    6 ar  
     3    1    7 1   
     4    2    3 ar  
     5    2   29 1   
     6    3    4 ar  
     7    3   30 1   
     8    4    5 ar  
     9    4    8 1   
    10    5    6 ar  
    11    5   31 1   
    12    6   32 1   
    13    8    9 1   
    14    8   33 1   
    15    8   52 1   
    16    9   10 1   
    17    9   13 2   
    18   10   11 1   
    19   10   12 2   
    20   11   14 1   
    21   11   34 1   
    22   11   53 1   
    23   14   15 1   
    24   14   16 1   
    25   14   35 1   
    26   15   17 1   
    27   15   21 1   
    28   15   36 1   
    29   16   22 2   
    30   16   25 1   
    31   17   18 1   
    32   17   37 1   
    33   17   38 1   
    34   18   19 1   
    35   18   39 1   
    36   18   40 1   
    37   19   20 1   
    38   19   41 1   
    39   19   42 1   
    40   20   21 1   
    41   20   43 1   
    42   20   44 1   
    43   21   45 1   
    44   22   23 1   
    45   23   24 2   
    46   23   26 1   
    47   24   25 1   
    48   24   27 1   
    49   26   46 1   
    50   26   47 1   
    51   26   48 1   
    52   27   28 1   
    53   27   49 1   
    54   27   50 1   
    55   28   51 1   
@<TRIPOS>SUBSTRUCTURE
     1 0KU         1 TEMP              0 ****  ****    0 ROOT
