@<TRIPOS>MOLECULE
0KU
   51    53     1     0     0
SMALL
bcc


@<TRIPOS>ATOM
      1 C01        -6.8580   -1.3580   -0.1930 ca        1 0KU     -0.007600
      2 C02        -6.3680   -1.2170   -1.4950 ca        1 0KU     -0.099000
      3 C03        -5.0570   -0.8120   -1.7040 ca        1 0KU     -0.156500
      4 C04        -4.2030   -0.5400   -0.6060 ca        1 0KU      0.064600
      5 C05        -4.7130   -0.6880    0.7010 ca        1 0KU     -0.156500
      6 C06        -6.0300   -1.0930    0.8990 ca        1 0KU     -0.099000
      7 CL1        -8.4640   -1.8520    0.0580 cl        1 0KU     -0.092400
      8 N08        -2.8810   -0.1480   -0.8760 n         1 0KU     -0.442100
      9 C09        -1.9390    0.2800    0.0320 c         1 0KU      0.600100
     10 C10        -0.5770    0.6700   -0.5960 c         1 0KU      0.594100
     11 N11         0.4640    0.8060    0.2810 n         1 0KU     -0.522900
     12 O12        -0.4750    0.8730   -1.8230 o         1 0KU     -0.609100
     13 O13        -2.1120    0.3580    1.2610 o         1 0KU     -0.577100
     14 C14         1.8150    1.0720   -0.1590 c3        1 0KU      0.081400
     15 C15         2.4590    2.2700    0.6200 c3        1 0KU      0.155500
     16 C16         2.6970   -0.1420    0.0070 cc        1 0KU      0.370700
     17 C17         1.5670    3.5170    0.5040 c3        1 0KU     -0.112400
     18 C18         2.2140    4.7070    1.1870 c3        1 0KU     -0.078400
     19 C19         3.6280    4.9360    0.7000 c3        1 0KU     -0.117400
     20 C20         4.4400    3.6440    0.7910 c3        1 0KU      0.152800
     21 N21         3.8300    2.4890    0.1610 n3        1 0KU     -0.792200
     22 N22         2.7990   -0.8320    1.1470 nd        1 0KU     -0.636000
     23 C23         3.7020   -1.8770    0.9790 cd        1 0KU      0.381600
     24 C24         4.2710   -1.9480   -0.2970 cc        1 0KU     -0.217700
     25 S25         3.6620   -0.7280   -1.2750 ss        1 0KU     -0.044300
     26 C26         4.0150   -2.8130    2.0840 c3        1 0KU     -0.130400
     27 C27         5.2800   -2.9280   -0.7440 c3        1 0KU      0.215700
     28 O28         4.6910   -4.2230   -0.7560 oh        1 0KU     -0.591800
     29 H1         -7.0180   -1.4250   -2.3590 ha        1 0KU      0.150000
     30 H2         -4.6910   -0.7070   -2.7370 ha        1 0KU      0.158000
     31 H3         -4.0800   -0.4850    1.5810 ha        1 0KU      0.158000
     32 H4         -6.4120   -1.2030    1.9260 ha        1 0KU      0.150000
     33 H5         -2.6230   -0.1070   -1.8430 hn        1 0KU      0.345500
     34 H6          0.3270    0.5790    1.2420 hn        1 0KU      0.350500
     35 H7          1.7750    1.3370   -1.2610 h1        1 0KU      0.091700
     36 H8          2.5290    1.9830    1.7120 h1        1 0KU      0.083700
     37 H9          1.3810    3.7500   -0.5760 hc        1 0KU      0.052200
     38 H10         0.5760    3.3210    0.9860 hc        1 0KU      0.052200
     39 H12         1.5960    5.6230    0.9990 hc        1 0KU      0.045200
     40 H11         2.2280    4.5330    2.2950 hc        1 0KU      0.045200
     41 H13         3.6100    5.3010   -0.3600 hc        1 0KU      0.045700
     42 H14         4.1230    5.7260    1.3200 hc        1 0KU      0.045700
     43 H16         5.4490    3.8010    0.3180 h1        1 0KU      0.055700
     44 H15         4.6020    3.3910    1.8770 h1        1 0KU      0.055700
     45 H17         3.8300    2.6120   -0.8380 hn        1 0KU      0.345800
     46 H21         4.7330   -2.3340    2.7960 hc        1 0KU      0.056367
     47 H19         3.0910   -3.0920    2.6490 hc        1 0KU      0.056367
     48 H20         4.4770   -3.7430    1.6670 hc        1 0KU      0.056367
     49 H23         5.6480   -2.6740   -1.7770 h1        1 0KU      0.032700
     50 H22         6.1570   -2.9230   -0.0360 h1        1 0KU      0.032700
     51 H24         5.3840   -4.8300   -1.0440 ho        1 0KU      0.400000
@<TRIPOS>BOND
     1    1    2 ar  
     2    1    6 ar  
     3    1    7 1   
     4    2    3 ar  
     5    2   29 1   
     6    3    4 ar  
     7    3   30 1   
     8    4    5 ar  
     9    4    8 1   
    10    5    6 ar  
    11    5   31 1   
    12    6   32 1   
    13    8    9 1   
    14    8   33 1   
    15    9   10 1   
    16    9   13 2   
    17   10   11 1   
    18   10   12 2   
    19   11   14 1   
    20   11   34 1   
    21   14   15 1   
    22   14   16 1   
    23   14   35 1   
    24   15   17 1   
    25   15   21 1   
    26   15   36 1   
    27   16   22 2   
    28   16   25 1   
    29   17   18 1   
    30   17   37 1   
    31   17   38 1   
    32   18   19 1   
    33   18   39 1   
    34   18   40 1   
    35   19   20 1   
    36   19   41 1   
    37   19   42 1   
    38   20   21 1   
    39   20   43 1   
    40   20   44 1   
    41   21   45 1   
    42   22   23 1   
    43   23   24 2   
    44   23   26 1   
    45   24   25 1   
    46   24   27 1   
    47   26   46 1   
    48   26   47 1   
    49   26   48 1   
    50   27   28 1   
    51   27   49 1   
    52   27   50 1   
    53   28   51 1   
@<TRIPOS>SUBSTRUCTURE
     1 0KU         1 TEMP              0 ****  ****    0 ROOT
