@<TRIPOS>MOLECULE
0KU
   51    45     1     0     0
SMALL
bcc


@<TRIPOS>ATOM
      1 C01        -2.1080   -2.4170   -6.9290 c1        1 0KU     -0.086000
      2 C02        -1.8880   -3.1990   -5.7990 c1        1 0KU     -0.133500
      3 C03        -1.1100   -2.7090   -4.7540 c1        1 0KU     -0.133500
      4 C04        -0.5530   -1.4400   -4.8410 c1        1 0KU      0.073000
      5 C05        -0.7730   -0.6590   -5.9710 c1        1 0KU     -0.147000
      6 C06        -1.5510   -1.1490   -7.0150 c1        1 0KU     -0.099000
      7 CL1        -2.9700   -3.0790   -8.2870 cl        1 0KU     -0.015000
      8 N08         0.2880   -0.9440   -3.7700 n2        1 0KU     -0.297000
      9 C09        -0.2970   -0.2360   -2.6680 c1        1 0KU      0.293000
     10 C10         0.5970    0.2910   -1.5290 c1        1 0KU      0.287000
     11 N11         0.0110    1.0080   -0.4350 n2        1 0KU     -0.333000
     12 O12         1.8040    0.1750   -1.6020 o         1 0KU     -0.372000
     13 O13        -1.4900   -0.0530   -2.6330 o         1 0KU     -0.340000
     14 C14         0.7410    1.1270    0.8450 c3        1 0KU      0.102000
     15 C15         0.2850    2.2110    1.5230 c3        1 0KU     -0.030000
     16 C16         0.5000   -0.1800    1.7150 c2        1 0KU     -0.342000
     17 C17         1.0650    3.5100    1.1430 c3        1 0KU     -0.179000
     18 C18         0.6020    4.7080    1.8930 c3        1 0KU     -0.158000
     19 C19        -0.0660    4.3660    2.9830 c3        1 0KU     -0.194000
     20 C20         0.2500    3.3420    3.7940 c3        1 0KU     -0.081000
     21 N21         0.7080    2.1790    3.0350 n3        1 0KU     -0.290000
     22 N22        -0.7480   -0.7280    2.1560 n2        1 0KU     -0.113000
     23 C23        -0.4620   -2.0950    2.8810 c1        1 0KU     -0.081000
     24 C24         0.9640   -2.3330    2.8550 c1        1 0KU     -0.441000
     25 S25         1.6230   -1.1580    2.1320 ss        1 0KU      0.656000
     26 C26        -1.5170   -3.0470    3.4410 c2        1 0KU     -0.149000
     27 C27         1.6850   -3.5420    3.4530 c2        1 0KU      0.059000
     28 O28         3.0240   -3.5610    3.0050 oh        1 0KU     -0.332000
     29 H1         -2.2820   -4.0940   -5.7380 ha        1 0KU      0.144500
     30 H2         -0.9570   -3.2530   -3.9670 ha        1 0KU      0.144500
     31 H3         -0.3830    0.2280   -6.0320 ha        1 0KU      0.176000
     32 H4         -1.7060   -0.6000   -7.8110 ha        1 0KU      0.151000
     33 H5          1.1930   -1.0340   -3.8240 hn        1 0KU      0.259000
     34 H6         -0.7860    1.4350   -0.5450 hn        1 0KU      0.262000
     35 H7          1.6960    1.2300    0.6680 h1        1 0KU      0.138000
     36 H8         -0.6740    2.3280    1.4210 h1        1 0KU      0.103000
     37 H9          2.0160    3.3710    1.3300 hc        1 0KU      0.094000
     38 H10         0.9530    3.6750    0.1850 hc        1 0KU      0.094000
     39 H12         1.3800    5.2470    2.1490 hc        1 0KU      0.082500
     40 H11         0.0180    5.2420    1.3140 hc        1 0KU      0.082500
     41 H13        -0.0810    5.1730    3.5580 hc        1 0KU      0.084000
     42 H14        -0.9950    4.2060    2.6930 hc        1 0KU      0.084000
     43 H16        -0.5400    3.0930    4.3160 h1        1 0KU      0.093000
     44 H15         0.9630    3.6270    4.4070 h1        1 0KU      0.093000
     45 H17         0.3900    1.4180    3.4240 hn        1 0KU      0.160000
     46 H21        -1.4820   -3.8980    2.9540 ha        1 0KU      0.089667
     47 H19        -2.4070   -2.6470    3.3370 ha        1 0KU      0.089667
     48 H20        -1.3410   -3.2080    4.3930 ha        1 0KU      0.089667
     49 H23         1.2330   -4.3660    3.1690 h4        1 0KU      0.076000
     50 H22         1.6680   -3.4810    4.4340 h4        1 0KU      0.076000
     51 H24         3.5100   -4.0820    3.5430 ho        1 0KU      0.208000
@<TRIPOS>BOND
     1    1    6 1   
     2    1    7 1   
     3    2    3 1   
     4    2   29 1   
     5    3   30 1   
     6    4    5 1   
     7    5   31 1   
     8    6   32 1   
     9    8    9 1   
    10    8   33 1   
    11    9   13 1   
    12   10   12 1   
    13   11   14 1   
    14   11   34 1   
    15   14   15 1   
    16   14   16 1   
    17   14   35 1   
    18   15   17 1   
    19   15   21 1   
    20   15   36 1   
    21   16   22 1   
    22   16   25 1   
    23   17   18 1   
    24   17   37 1   
    25   17   38 1   
    26   18   19 1   
    27   18   39 1   
    28   18   40 1   
    29   19   20 1   
    30   19   41 1   
    31   19   42 1   
    32   20   21 1   
    33   20   43 1   
    34   20   44 1   
    35   21   45 1   
    36   22   23 1   
    37   23   24 1   
    38   24   25 1   
    39   26   46 1   
    40   26   47 1   
    41   26   48 1   
    42   27   28 1   
    43   27   49 1   
    44   27   50 1   
    45   28   51 1   
@<TRIPOS>SUBSTRUCTURE
     1 0KU         1 TEMP              0 ****  ****    0 ROOT
