@<TRIPOS>MOLECULE
0KU
   52    54     1     0     0
SMALL
bcc


@<TRIPOS>ATOM
      1 C01         0.1200    1.2780    0.0960 ca        1 0KU      0.024400
      2 C02         1.5080    1.1010    0.1640 ca        1 0KU     -0.100500
      3 C03         2.0850    0.5390    1.2950 ca        1 0KU     -0.128500
      4 C04         1.2730    0.1430    2.3830 ca        1 0KU      0.005600
      5 C05        -0.1210    0.3240    2.3080 ca        1 0KU     -0.128500
      6 C06        -0.6880    0.8900    1.1690 ca        1 0KU     -0.100500
      7 CL1        -0.5760    1.9640   -1.2840 cl        1 0KU     -0.045400
      8 N08         1.9150   -0.4430    3.5050 n         1 0KU     -0.393100
      9 C09         1.3380   -0.6770    4.7120 c         1 0KU      0.610100
     10 C10         2.2960   -1.2860    5.7700 c         1 0KU      0.444100
     11 N11         1.6130   -1.8430    6.9750 n4        1 0KU     -0.653800
     12 O12         3.5140   -1.3480    5.6910 o         1 0KU     -0.407100
     13 O13         0.1620   -0.4800    5.0630 o         1 0KU     -0.557100
     14 C14         2.3270   -1.5630    8.2810 c3        1 0KU      0.137200
     15 C15         1.9390   -0.1620    8.8590 c3        1 0KU      0.147500
     16 C16         1.9890   -2.6290    9.2760 cc        1 0KU      0.189700
     17 C17         2.0950    0.9490    7.8100 c3        1 0KU     -0.131400
     18 C18         1.7700    2.2990    8.4240 c3        1 0KU     -0.075400
     19 C19         2.5450    2.5480    9.7010 c3        1 0KU     -0.120400
     20 C20         2.4010    1.3700   10.6620 c3        1 0KU      0.144800
     21 N21         2.7120    0.0750   10.0770 n3        1 0KU     -0.785200
     22 N22         0.7620   -3.2060    9.3220 nd        1 0KU     -0.654000
     23 C23         0.7190   -4.0930   10.3700 cd        1 0KU      0.361600
     24 C24         1.9240   -4.1620   11.1080 cc        1 0KU     -0.230700
     25 S25         3.0540   -3.1310   10.4800 ss        1 0KU      0.225700
     26 C26        -0.4790   -4.9020   10.6940 c3        1 0KU     -0.135400
     27 C27         2.0880   -5.0490   12.2810 c3        1 0KU      0.205700
     28 O28         3.4440   -4.9970   12.7000 oh        1 0KU     -0.611800
     29 H1          2.1480    1.4060   -0.6810 ha        1 0KU      0.167500
     30 H2          3.1790    0.4090    1.3250 ha        1 0KU      0.158000
     31 H3         -0.7830    0.0280    3.1390 ha        1 0KU      0.158000
     32 H4         -1.7810    1.0270    1.1210 ha        1 0KU      0.167500
     33 H5          2.8950   -0.6200    3.4010 hn        1 0KU      0.352500
     34 H6          1.5350   -2.8650    6.8570 hn        1 0KU      0.488300
     35 H7          3.4370   -1.5930    8.0520 hx        1 0KU      0.111700
     36 H8          0.8520   -0.2060    9.1720 h1        1 0KU      0.100700
     37 H9          1.3940    0.7820    6.9500 hc        1 0KU      0.042200
     38 H10         3.1430    0.9530    7.4100 hc        1 0KU      0.042200
     39 H12         2.0000    3.1060    7.6800 hc        1 0KU      0.060700
     40 H11         0.6700    2.3460    8.6420 hc        1 0KU      0.060700
     41 H13         2.1610    3.4750   10.2000 hc        1 0KU      0.063700
     42 H14         3.6270    2.7190    9.4630 hc        1 0KU      0.063700
     43 H16         3.0850    1.5140   11.5450 h1        1 0KU      0.074200
     44 H15         1.3430    1.3280   11.0460 h1        1 0KU      0.074200
     45 H17         3.6950    0.0370    9.8600 hn        1 0KU      0.352800
     46 H21        -0.7770   -4.7110   11.7560 hc        1 0KU      0.064700
     47 H19        -1.3450   -4.6590   10.0310 hc        1 0KU      0.064700
     48 H20        -0.2350   -5.9890   10.5830 hc        1 0KU      0.064700
     49 H23         1.8130   -6.1060   11.9990 h1        1 0KU      0.056700
     50 H22         1.4100   -4.7070   13.1140 h1        1 0KU      0.056700
     51 H24         3.5130   -5.5510   13.4870 ho        1 0KU      0.429000
     52 H112        0.6530   -1.4570    7.0290 hn        1 0KU      0.488300
@<TRIPOS>BOND
     1    1    2 ar  
     2    1    6 ar  
     3    1    7 1   
     4    2    3 ar  
     5    2   29 1   
     6    3    4 ar  
     7    3   30 1   
     8    4    5 ar  
     9    4    8 1   
    10    5    6 ar  
    11    5   31 1   
    12    6   32 1   
    13    8    9 1   
    14    8   33 1   
    15    9   10 1   
    16    9   13 2   
    17   10   11 1   
    18   10   12 2   
    19   11   14 1   
    20   11   34 1   
    21   11   52 1   
    22   14   15 1   
    23   14   16 1   
    24   14   35 1   
    25   15   17 1   
    26   15   21 1   
    27   15   36 1   
    28   16   22 2   
    29   16   25 1   
    30   17   18 1   
    31   17   37 1   
    32   17   38 1   
    33   18   19 1   
    34   18   39 1   
    35   18   40 1   
    36   19   20 1   
    37   19   41 1   
    38   19   42 1   
    39   20   21 1   
    40   20   43 1   
    41   20   44 1   
    42   21   45 1   
    43   22   23 1   
    44   23   24 2   
    45   23   26 1   
    46   24   25 1   
    47   24   27 1   
    48   26   46 1   
    49   26   47 1   
    50   26   48 1   
    51   27   28 1   
    52   27   49 1   
    53   27   50 1   
    54   28   51 1   
@<TRIPOS>SUBSTRUCTURE
     1 0KU         1 TEMP              0 ****  ****    0 ROOT
