@<TRIPOS>MOLECULE
0KV
   69    71     1     0     0
SMALL
bcc


@<TRIPOS>ATOM
      1 C7          3.3560    0.0550   -1.1370 c3        1 0KV     -0.268300
      2 C8          3.9280   -1.1690   -1.7460 ca        1 0KV     -0.068300
      3 C9          3.2240   -2.3780   -1.7020 ca        1 0KV     -0.115500
      4 C10         3.7550   -3.5200   -2.3010 ca        1 0KV     -0.128500
      5 C11         4.9870   -3.4620   -2.9520 ca        1 0KV     -0.123000
      6 C12         5.6910   -2.2590   -2.9990 ca        1 0KV     -0.128500
      7 C13         5.1660   -1.1150   -2.4020 ca        1 0KV     -0.115500
      8 S           4.2480    0.6130    0.2290 s6        1 0KV      1.449900
      9 O1S         4.2960   -0.3780    1.2270 o         1 0KV     -0.645800
     10 O2S         5.4740    1.1360   -0.2350 o         1 0KV     -0.645800
     11 N1          3.3460    1.8640    0.7540 n3        1 0KV     -0.901100
     12 C1          0.9200    1.7970    1.1920 c         1 0KV      0.678500
     13 O1          0.6560    1.0750    0.2040 o         1 0KV     -0.674500
     14 CA1         2.3520    1.7870    1.7860 c3        1 0KV      0.188500
     15 CB1         2.5340    2.8630    2.8650 c3        1 0KV     -0.090400
     16 CD1         0.0830    3.2650    3.0150 c3        1 0KV      0.092000
     17 CG1         1.3380    2.8700    3.7850 c3        1 0KV     -0.097400
     18 C2         -2.3270    1.4990    1.7080 c         1 0KV      0.641100
     19 N2         -0.0710    2.5840    1.7480 n         1 0KV     -0.458800
     20 O2         -3.3670    1.8080    2.3250 o         1 0KV     -0.623100
     21 CA2        -1.3910    2.5980    1.1720 c3        1 0KV      0.020000
     22 C3         -1.9650   -1.8250    2.8930 c         1 0KV      0.548900
     23 N3         -1.9720    0.1970    1.4540 n         1 0KV     -0.547900
     24 C4         -5.4250   -0.4870    0.5690 c3        1 0KV     -0.083400
     25 C5         -6.4170    0.0770   -0.4260 c3        1 0KV     -0.105400
     26 C6         -6.8220   -0.9780   -1.4540 c3        1 0KV      0.170800
     27 CA3        -2.7390   -0.9210    1.9380 c3        1 0KV     -0.015300
     28 CB3        -3.3000   -1.8200    0.8210 c3        1 0KV     -0.079400
     29 CD3        -4.6870   -2.0980   -1.2110 c3        1 0KV      0.187800
     30 NE3        -5.7170   -1.6450   -2.1310 nh        1 0KV     -0.696600
     31 CG3        -4.2250   -1.0940   -0.1400 c3        1 0KV     -0.092700
     32 NH1        -6.0990   -1.0320   -4.4430 nh        1 0KV     -0.929800
     33 NH2        -4.1460   -0.1970   -3.2680 n2        1 0KV     -0.858100
     34 H7          3.3170    0.8490   -1.9330 h1        1 0KV      0.130700
     35 H7A         2.2760   -0.1330   -0.8680 h1        1 0KV      0.130700
     36 H9          2.2520   -2.4290   -1.1890 ha        1 0KV      0.144000
     37 H10         3.1990   -4.4680   -2.2580 ha        1 0KV      0.133000
     38 H11         5.4040   -4.3630   -3.4240 ha        1 0KV      0.131000
     39 H12         6.6650   -2.2100   -3.5080 ha        1 0KV      0.133000
     40 H13         5.7280   -0.1680   -2.4280 ha        1 0KV      0.144000
     41 HA1         2.4410    0.7680    2.2880 h1        1 0KV      0.112700
     42 HN1         3.4570    2.7730    0.3730 hn        1 0KV      0.448800
     43 HB1         3.4670    2.6430    3.4460 hc        1 0KV      0.061200
     44 HB1A        2.6560    3.8750    2.3970 hc        1 0KV      0.061200
     45 HG1         1.2040    1.8600    4.2540 hc        1 0KV      0.065700
     46 HG1A        1.4930    3.6110    4.6130 hc        1 0KV      0.065700
     47 HD1         0.1090    4.3760    2.8110 h1        1 0KV      0.053700
     48 HD1A       -0.8240    3.0540    3.6530 h1        1 0KV      0.053700
     49 HA2        -1.3080    2.4800    0.0520 h1        1 0KV      0.092200
     50 HA2A       -1.8810    3.5860    1.4030 h1        1 0KV      0.092200
     51 HN3        -1.1380    0.0000    0.9470 hn        1 0KV      0.343500
     52 H4A        -5.0820    0.3370    1.2530 hc        1 0KV      0.049700
     53 H5A        -7.3350    0.4290    0.1100 hc        1 0KV      0.053200
     54 H6A        -7.3950   -1.7950   -0.9280 h1        1 0KV      0.055700
     55 HA3        -3.6150   -0.5090    2.5340 h1        1 0KV      0.108700
     56 HB3        -2.4510   -2.2680    0.2400 hc        1 0KV      0.048200
     57 HB3A       -3.8590   -2.6600    1.3130 hc        1 0KV      0.048200
     58 HD3        -5.1340   -2.9940   -0.6890 h1        1 0KV      0.053700
     59 HD3A       -3.7920   -2.4450   -1.7960 h1        1 0KV      0.053700
     60 HG3        -3.6540   -0.2670   -0.6460 hc        1 0KV      0.087700
     61 HNH1       -6.8050   -1.7310   -4.3690 hn        1 0KV      0.392300
     62 HNHA       -5.6080   -1.0790   -5.3090 hn        1 0KV      0.392300
     63 HNH2       -3.8650    0.2150   -4.1310 hn        1 0KV      0.391400
     64 H3         -2.5840   -2.6500    3.3130 h4        1 0KV      0.001200
     65 H4         -5.9260   -1.2690    1.1990 hc        1 0KV      0.049700
     66 H5         -5.9650    0.9610   -0.9480 hc        1 0KV      0.053200
     67 H6         -7.5050   -0.5080   -2.2140 h1        1 0KV      0.055700
     68 O3         -0.7830   -1.6820    3.1950 o         1 0KV     -0.516100
     69 CZ3        -5.2390   -0.9130   -3.3050 c2        1 0KV      0.738100
@<TRIPOS>BOND
     1    1    2 1   
     2    1    8 1   
     3    1   34 1   
     4    1   35 1   
     5    2    3 ar  
     6    2    7 ar  
     7    3    4 ar  
     8    3   36 1   
     9    4    5 ar  
    10    4   37 1   
    11    5    6 ar  
    12    5   38 1   
    13    6    7 ar  
    14    6   39 1   
    15    7   40 1   
    16    8    9 2   
    17    8   10 2   
    18    8   11 1   
    19   11   14 1   
    20   11   42 1   
    21   12   13 2   
    22   12   14 1   
    23   12   19 1   
    24   14   15 1   
    25   14   41 1   
    26   15   17 1   
    27   15   43 1   
    28   15   44 1   
    29   16   17 1   
    30   16   19 1   
    31   16   47 1   
    32   16   48 1   
    33   17   45 1   
    34   17   46 1   
    35   18   20 2   
    36   18   21 1   
    37   18   23 1   
    38   19   21 1   
    39   21   49 1   
    40   21   50 1   
    41   22   27 1   
    42   22   64 1   
    43   22   68 2   
    44   23   27 1   
    45   23   51 1   
    46   24   25 1   
    47   24   31 1   
    48   24   52 1   
    49   24   65 1   
    50   25   26 1   
    51   25   53 1   
    52   25   66 1   
    53   26   30 1   
    54   26   54 1   
    55   26   67 1   
    56   27   28 1   
    57   27   55 1   
    58   28   31 1   
    59   28   56 1   
    60   28   57 1   
    61   29   30 1   
    62   29   31 1   
    63   29   58 1   
    64   29   59 1   
    65   30   69 1   
    66   31   60 1   
    67   32   61 1   
    68   32   62 1   
    69   32   69 1   
    70   33   63 1   
    71   33   69 2   
@<TRIPOS>SUBSTRUCTURE
     1 0KV         1 TEMP              0 ****  ****    0 ROOT
