@<TRIPOS>MOLECULE
0KV
   69    64     1     0     0
SMALL
bcc


@<TRIPOS>ATOM
      1 C7         -1.2060    5.8220    0.2660 c3        1 0KV     -0.819000
      2 C8         -0.7660    6.1300    1.6850 c2        1 0KV     -0.073000
      3 C9         -0.9710    5.1990    2.6890 c2        1 0KV     -0.110000
      4 C10        -0.6510    5.5180    4.0150 c1        1 0KV     -0.131000
      5 C11        -0.1280    6.7660    4.3220 c2        1 0KV     -0.123000
      6 C12         0.0780    7.7050    3.3110 c1        1 0KV     -0.126000
      7 C13        -0.2380    7.3920    1.9980 c1        1 0KV     -0.129000
      8 S           0.1840    5.1220   -0.6590 s4        1 0KV      2.028800
      9 O1S         0.6820    6.0540   -1.6450 o         1 0KV     -0.533400
     10 O2S         1.3470    4.9590    0.1840 o         1 0KV     -0.533400
     11 N1         -0.2630    3.6750   -1.3640 n2        1 0KV     -0.887000
     12 C1          0.9310    1.4330   -1.5680 c1        1 0KV      0.288000
     13 O1          0.0060    0.8380   -1.0210 o         1 0KV     -0.397000
     14 CA1         0.7030    2.9200   -2.1650 c3        1 0KV      0.064000
     15 CB1         1.9910    3.6190   -2.2570 c3        1 0KV     -0.197000
     16 CD1         3.2430    1.4650   -2.4160 c3        1 0KV     -0.026000
     17 CG1         3.0640    2.7940   -2.9900 c3        1 0KV     -0.164000
     18 C2          2.8930   -1.2650   -1.0490 c1        1 0KV      0.284000
     19 N2          1.9610    0.6920   -2.2540 n2        1 0KV     -0.319000
     20 O2          4.0210   -0.7860   -0.9320 o         1 0KV     -0.362000
     21 CA2         1.9800   -0.8080   -2.1940 c3        1 0KV     -0.044000
     22 C3          0.2660   -2.2210    1.0150 c1        1 0KV      0.183000
     23 N3          2.4140   -2.2410   -0.0790 n2        1 0KV     -0.374000
     24 O3         -0.3950   -1.1850    0.9080 o         1 0KV     -0.298000
     25 C4         -1.2110   -3.7580   -0.9360 c3        1 0KV     -0.163000
     26 C5         -2.4570   -3.7030   -0.3750 c3        1 0KV     -0.156000
     27 C6         -3.1950   -4.7730   -0.0130 c3        1 0KV     -0.051000
     28 CA3         1.0580   -2.7340   -0.1580 c2        1 0KV     -0.043000
     29 CB3         1.0670   -4.2840   -0.1400 c3        1 0KV     -0.170000
     30 CD3        -0.9490   -5.2900    1.0890 c3        1 0KV     -0.045000
     31 NE3        -2.3740   -5.8150    0.5720 n3        1 0KV     -0.299000
     32 CG3        -0.3980   -4.8180   -0.3280 c3        1 0KV     -0.122000
     33 CZ3        -2.9830   -6.9150    1.1980 c2        1 0KV      0.165000
     34 NH1        -2.5750   -7.3040    2.5130 n3        1 0KV     -0.323000
     35 NH2        -3.9240   -7.5800    0.5800 n1        1 0KV     -0.343000
     36 H7         -1.5100    6.6550   -0.1740 h1        1 0KV      0.164500
     37 H7A        -1.9430    5.1730    0.2860 h1        1 0KV      0.164500
     38 H9         -1.3440    4.3100    2.4690 ha        1 0KV      0.138000
     39 H10        -0.7930    4.8710    4.7130 DU        1 0KV      0.142000
     40 H11         0.1030    6.9950    5.2790 ha        1 0KV      0.135000
     41 H12         0.4470    8.5840    3.5290 ha        1 0KV      0.139000
     42 H13        -0.0920    8.0560    1.2850 ha        1 0KV      0.158000
     43 HA1         0.2490    2.8910   -3.0340 h1        1 0KV      0.112000
     44 HN1        -1.1470    3.3950   -1.3220 hn        1 0KV      0.261000
     45 HB1         1.8550    4.4830   -2.7520 hc        1 0KV      0.127000
     46 HB1A        2.3070    3.8190   -1.3550 hc        1 0KV      0.127000
     47 HG1         3.9240    3.2790   -2.9450 hc        1 0KV      0.101500
     48 HG1A        2.7990    2.6980   -3.9420 hc        1 0KV      0.101500
     49 HD1         3.6760    1.5610   -1.5150 h1        1 0KV      0.095000
     50 HD1A        3.8570    0.9430   -3.0100 h1        1 0KV      0.095000
     51 HA2         1.0520   -1.1470   -2.0370 h1        1 0KV      0.133500
     52 HA2A        2.3170   -1.1630   -3.0400 h1        1 0KV      0.133500
     53 HN3         2.9520   -2.5050    0.5960 hn        1 0KV      0.232000
     54 H4A        -1.3000   -3.9330   -1.8850 hc        1 0KV      0.094500
     55 H5A        -2.3660   -3.1580    0.4240 hc        1 0KV      0.094000
     56 H6A        -3.8750   -4.4870    0.6540 h1        1 0KV      0.077500
     57 HA3         0.6570   -2.4290   -0.9700 h4        1 0KV      0.150000
     58 HB3         1.4270   -4.6050    0.7380 hc        1 0KV      0.095000
     59 HB3A        1.6350   -4.6160   -0.8680 hc        1 0KV      0.095000
     60 HD3        -1.0410   -4.5360    1.7140 h1        1 0KV      0.087500
     61 HD3A       -0.3980   -6.0320    1.4710 h1        1 0KV      0.087500
     62 HG3        -0.3790   -5.6080   -0.9470 hc        1 0KV      0.098000
     63 HNH1       -2.3180   -6.6640    3.1240 hn        1 0KV      0.197000
     64 HNHA       -2.5770   -8.1780    2.7470 hn        1 0KV      0.197000
     65 HNH2       -4.1860   -7.3290   -0.2650 DU        1 0KV      0.142000
     66 H3          0.2570   -2.7230    1.8590 ha        1 0KV      0.105000
     67 H4         -0.7690   -2.9090   -0.8100 hc        1 0KV      0.094500
     68 H5         -3.0220   -3.1850   -1.0140 hc        1 0KV      0.094000
     69 H6         -3.6530   -5.1310   -0.8050 h1        1 0KV      0.077500
@<TRIPOS>BOND
     1    1    2 1   
     2    1    8 1   
     3    1   36 1   
     4    1   37 1   
     5    2    3 1   
     6    2    7 1   
     7    3    4 1   
     8    3   38 1   
     9    4    5 1   
    10    5    6 1   
    11    5   40 1   
    12    6   41 1   
    13    7   42 1   
    14    8    9 1   
    15    8   10 1   
    16   11   14 1   
    17   11   44 1   
    18   12   13 1   
    19   12   14 1   
    20   14   15 1   
    21   14   43 1   
    22   15   17 1   
    23   15   45 1   
    24   15   46 1   
    25   16   17 1   
    26   16   19 1   
    27   16   49 1   
    28   16   50 1   
    29   17   47 1   
    30   17   48 1   
    31   18   20 1   
    32   18   21 1   
    33   19   21 1   
    34   21   51 1   
    35   21   52 1   
    36   22   24 1   
    37   22   66 1   
    38   23   28 1   
    39   23   53 1   
    40   25   26 1   
    41   25   32 1   
    42   25   54 1   
    43   25   67 1   
    44   26   27 1   
    45   26   55 1   
    46   26   68 1   
    47   27   31 1   
    48   27   56 1   
    49   27   69 1   
    50   28   29 1   
    51   28   57 1   
    52   29   32 1   
    53   29   58 1   
    54   29   59 1   
    55   30   31 1   
    56   30   32 1   
    57   30   60 1   
    58   30   61 1   
    59   31   33 1   
    60   32   62 1   
    61   33   34 1   
    62   33   35 1   
    63   34   63 1   
    64   34   64 1   
@<TRIPOS>SUBSTRUCTURE
     1 0KV         1 TEMP              0 ****  ****    0 ROOT
