@<TRIPOS>MOLECULE
0KW
   54    56     1     0     0
SMALL
bcc


@<TRIPOS>ATOM
      1 C01         6.9620    1.6410   -0.2100 ca        1 0KW     -0.007600
      2 C02         6.1130    1.4450    0.8800 ca        1 0KW     -0.099000
      3 C03         4.8160    0.9770    0.6870 ca        1 0KW     -0.157500
      4 C04         4.3480    0.6960   -0.6140 ca        1 0KW      0.064600
      5 C05         5.2230    0.9000   -1.7100 ca        1 0KW     -0.157500
      6 C06         6.5140    1.3670   -1.5060 ca        1 0KW     -0.099000
      7 CL1         8.5430    2.2130    0.0350 cl        1 0KW     -0.092400
      8 N08         3.0550    0.2150   -0.8800 n         1 0KW     -0.442100
      9 C09         2.0460   -0.0120    0.0280 c         1 0KW      0.599100
     10 C10         0.7230   -0.5250   -0.5960 c         1 0KW      0.591100
     11 N11        -0.2400   -0.9210    0.2940 n         1 0KW     -0.519900
     12 O12         0.5890   -0.6030   -1.8340 o         1 0KW     -0.608100
     13 O13         2.1370    0.1630    1.2560 o         1 0KW     -0.577100
     14 C14        -1.5670   -1.3030   -0.1340 c3        1 0KW      0.079400
     15 C15        -2.0500   -2.6150    0.5760 c3        1 0KW      0.158500
     16 C16        -2.5740   -0.2100    0.1320 cc        1 0KW      0.362700
     17 C17        -1.0350   -3.7460    0.3400 c3        1 0KW     -0.111400
     18 C18        -1.5230   -5.0430    0.9530 c3        1 0KW     -0.078400
     19 C19        -2.9230   -5.3920    0.4940 c3        1 0KW     -0.117400
     20 C20        -3.8650   -4.2060    0.7060 c3        1 0KW      0.152800
     21 N21        -3.4070   -2.9490    0.1450 n3        1 0KW     -0.791200
     22 N22        -2.7210    0.3860    1.3190 nd        1 0KW     -0.630000
     23 C23        -3.7370    1.3340    1.2400 cd        1 0KW      0.354600
     24 C24        -4.3380    1.4370   -0.0200 cc        1 0KW     -0.204700
     25 S25        -3.6340    0.3480   -1.0870 ss        1 0KW     -0.051300
     26 C26        -4.1400    2.1420    2.4150 c3        1 0KW     -0.126400
     27 C27        -5.4430    2.3390   -0.3720 c3        1 0KW     -0.007100
     28 C28        -4.9300    3.7000   -0.8300 c3        1 0KW      0.133400
     29 O29        -6.0750    4.4870   -1.1200 oh        1 0KW     -0.602800
     30 H1          6.4620    1.6600    1.9030 ha        1 0KW      0.150500
     31 H2          4.1660    0.8320    1.5660 ha        1 0KW      0.158500
     32 H3          4.8890    0.6910   -2.7390 ha        1 0KW      0.158500
     33 H4          7.1810    1.5210   -2.3690 ha        1 0KW      0.150500
     34 H5          2.8360    0.0530   -1.8440 hn        1 0KW      0.345500
     35 H6         -0.1100   -0.7240    1.2640 hn        1 0KW      0.350500
     36 H7         -1.5300   -1.4890   -1.2520 h1        1 0KW      0.090700
     37 H8         -2.1070   -2.4140    1.6860 h1        1 0KW      0.082700
     38 H9         -0.8680   -3.8810   -0.7600 hc        1 0KW      0.050200
     39 H10        -0.0520   -3.4760    0.8030 hc        1 0KW      0.050200
     40 H12        -0.8190   -5.8710    0.6790 hc        1 0KW      0.044700
     41 H11        -1.5130   -4.9500    2.0710 hc        1 0KW      0.044700
     42 H13        -2.9070   -5.6770   -0.5900 hc        1 0KW      0.045700
     43 H14        -3.3070   -6.2720    1.0700 hc        1 0KW      0.045700
     44 H16        -4.8690   -4.4390    0.2550 h1        1 0KW      0.056700
     45 H15        -4.0100   -4.0490    1.8120 h1        1 0KW      0.056700
     46 H17        -3.4340   -3.0000   -0.8600 hn        1 0KW      0.345800
     47 H20        -5.1130    1.7570    2.8120 hc        1 0KW      0.053367
     48 H19        -3.3800    2.0980    3.2330 hc        1 0KW      0.053367
     49 H21        -4.2780    3.2080    2.1080 hc        1 0KW      0.053367
     50 H22        -6.0750    1.8960   -1.1880 hc        1 0KW      0.068700
     51 H23        -6.1140    2.4880    0.5200 hc        1 0KW      0.068700
     52 H25        -4.3240    4.1860   -0.0190 h1        1 0KW      0.027200
     53 H24        -4.2940    3.5950   -1.7500 h1        1 0KW      0.027200
     54 H26        -5.7500    5.3510   -1.3980 ho        1 0KW      0.402000
@<TRIPOS>BOND
     1    1    2 ar  
     2    1    6 ar  
     3    1    7 1   
     4    2    3 ar  
     5    2   30 1   
     6    3    4 ar  
     7    3   31 1   
     8    4    5 ar  
     9    4    8 1   
    10    5    6 ar  
    11    5   32 1   
    12    6   33 1   
    13    8    9 1   
    14    8   34 1   
    15    9   10 1   
    16    9   13 2   
    17   10   11 1   
    18   10   12 2   
    19   11   14 1   
    20   11   35 1   
    21   14   15 1   
    22   14   16 1   
    23   14   36 1   
    24   15   17 1   
    25   15   21 1   
    26   15   37 1   
    27   16   22 2   
    28   16   25 1   
    29   17   18 1   
    30   17   38 1   
    31   17   39 1   
    32   18   19 1   
    33   18   40 1   
    34   18   41 1   
    35   19   20 1   
    36   19   42 1   
    37   19   43 1   
    38   20   21 1   
    39   20   44 1   
    40   20   45 1   
    41   21   46 1   
    42   22   23 1   
    43   23   24 2   
    44   23   26 1   
    45   24   25 1   
    46   24   27 1   
    47   26   47 1   
    48   26   48 1   
    49   26   49 1   
    50   27   28 1   
    51   27   50 1   
    52   27   51 1   
    53   28   29 1   
    54   28   52 1   
    55   28   53 1   
    56   29   54 1   
@<TRIPOS>SUBSTRUCTURE
     1 0KW         1 TEMP              0 ****  ****    0 ROOT
