@<TRIPOS>MOLECULE
0KW
   56    58     1     0     0
SMALL
bcc


@<TRIPOS>ATOM
      1 C01        -0.0670    1.1760    0.8390 ca        1 0KW      0.084400
      2 C02         0.9600    0.4910    0.1670 ca        1 0KW     -0.105000
      3 C03         1.8620   -0.2950    0.8730 ca        1 0KW     -0.080500
      4 C04         1.7360   -0.3940    2.2730 ca        1 0KW     -0.126400
      5 C05         0.7120    0.2900    2.9590 ca        1 0KW     -0.080500
      6 C06        -0.1820    1.0690    2.2370 ca        1 0KW     -0.105000
      7 CL1        -1.1560    2.1140   -0.0220 cl        1 0KW      0.046600
      8 N08         2.6390   -1.2810    3.0190 n4        1 0KW     -0.500200
      9 C09         3.9600   -0.6330    3.2680 c         1 0KW      0.450100
     10 C10         4.0580    0.2380    4.5270 c         1 0KW      0.476100
     11 N11         5.2660    1.0750    4.6330 n4        1 0KW     -0.652800
     12 O12         3.1910    0.2380    5.3880 o         1 0KW     -0.358100
     13 O13         4.8880   -0.8100    2.4950 o         1 0KW     -0.336100
     14 C14         5.8940    1.1090    6.0430 c3        1 0KW      0.164200
     15 C15         6.7940   -0.1450    6.2770 c3        1 0KW      0.144500
     16 C16         6.6940    2.3600    6.1390 cc        1 0KW      0.151700
     17 C17         6.0110   -1.4510    6.0760 c3        1 0KW     -0.121400
     18 C18         6.9140   -2.6410    6.3510 c3        1 0KW     -0.078400
     19 C19         7.5900   -2.5380    7.7020 c3        1 0KW     -0.121400
     20 C20         8.2720   -1.1810    7.8720 c3        1 0KW      0.140800
     21 N21         7.4120   -0.0390    7.5970 n3        1 0KW     -0.774200
     22 N22         7.4970    2.7650    5.1150 nd        1 0KW     -0.656000
     23 C23         8.2130    3.8650    5.5040 cd        1 0KW      0.374600
     24 C24         7.9510    4.2780    6.8380 cc        1 0KW     -0.175700
     25 S25         6.8270    3.2890    7.5380 ss        1 0KW      0.192700
     26 C26         9.1920    4.5440    4.6220 c3        1 0KW     -0.140400
     27 C27         8.6180    5.3960    7.5200 c3        1 0KW     -0.040100
     28 C28         7.9210    6.7320    7.2630 c3        1 0KW      0.143400
     29 O29         8.5270    7.6540    8.1480 oh        1 0KW     -0.588800
     30 H1          1.0490    0.5660   -0.9340 ha        1 0KW      0.200000
     31 H2          2.6520   -0.8340    0.3220 ha        1 0KW      0.168500
     32 H3          0.5930    0.2070    4.0530 ha        1 0KW      0.168500
     33 H4         -0.9960    1.5980    2.7680 ha        1 0KW      0.200000
     34 H5          2.1980   -1.5340    3.9180 hn        1 0KW      0.495800
     35 H6          5.0180    2.0510    4.3870 hn        1 0KW      0.499800
     36 H7          5.0310    1.1230    6.7740 hx        1 0KW      0.112700
     37 H8          7.6450   -0.1140    5.5290 h1        1 0KW      0.107700
     38 H9          5.1220   -1.4790    6.7590 hc        1 0KW      0.014700
     39 H10         5.6370   -1.5260    5.0190 hc        1 0KW      0.014700
     40 H12         6.3080   -3.5840    6.3060 hc        1 0KW      0.064200
     41 H11         7.6960   -2.7030    5.5480 hc        1 0KW      0.064200
     42 H13         6.8390   -2.6960    8.5190 hc        1 0KW      0.075200
     43 H14         8.3620   -3.3470    7.7980 hc        1 0KW      0.075200
     44 H16         9.1610   -1.1170    7.1830 h1        1 0KW      0.087200
     45 H15         8.6460   -1.0720    8.9290 h1        1 0KW      0.087200
     46 H17         6.6950    0.0180    8.3020 hn        1 0KW      0.357800
     47 H20         9.0090    5.6480    4.6390 hc        1 0KW      0.073367
     48 H19         9.1300    4.1840    3.5660 hc        1 0KW      0.073367
     49 H21        10.2280    4.3500    5.0030 hc        1 0KW      0.073367
     50 H22         8.6540    5.2220    8.6310 hc        1 0KW      0.094700
     51 H23         9.6850    5.4730    7.1680 hc        1 0KW      0.094700
     52 H25         8.0590    7.0510    6.1960 h1        1 0KW      0.025200
     53 H24         6.8220    6.6580    7.4840 h1        1 0KW      0.025200
     54 H26         8.2190    8.5340    7.8970 ho        1 0KW      0.423000
     55 H082        2.7910   -2.1410    2.4580 hn        1 0KW      0.495800
     56 H112        5.9960    0.7540    3.9720 hn        1 0KW      0.499800
@<TRIPOS>BOND
     1    1    2 ar  
     2    1    6 ar  
     3    1    7 1   
     4    2    3 ar  
     5    2   30 1   
     6    3    4 ar  
     7    3   31 1   
     8    4    5 ar  
     9    4    8 1   
    10    5    6 ar  
    11    5   32 1   
    12    6   33 1   
    13    8    9 1   
    14    8   34 1   
    15    8   55 1   
    16    9   10 1   
    17    9   13 2   
    18   10   11 1   
    19   10   12 2   
    20   11   14 1   
    21   11   35 1   
    22   11   56 1   
    23   14   15 1   
    24   14   16 1   
    25   14   36 1   
    26   15   17 1   
    27   15   21 1   
    28   15   37 1   
    29   16   22 2   
    30   16   25 1   
    31   17   18 1   
    32   17   38 1   
    33   17   39 1   
    34   18   19 1   
    35   18   40 1   
    36   18   41 1   
    37   19   20 1   
    38   19   42 1   
    39   19   43 1   
    40   20   21 1   
    41   20   44 1   
    42   20   45 1   
    43   21   46 1   
    44   22   23 1   
    45   23   24 2   
    46   23   26 1   
    47   24   25 1   
    48   24   27 1   
    49   26   47 1   
    50   26   48 1   
    51   26   49 1   
    52   27   28 1   
    53   27   50 1   
    54   27   51 1   
    55   28   29 1   
    56   28   52 1   
    57   28   53 1   
    58   29   54 1   
@<TRIPOS>SUBSTRUCTURE
     1 0KW         1 TEMP              0 ****  ****    0 ROOT
