@<TRIPOS>MOLECULE
0KW
   55    57     1     0     0
SMALL
bcc


@<TRIPOS>ATOM
      1 C01        -0.0510   -1.4010    0.1890 ca        1 0KW      0.025400
      2 C02         1.2640   -0.9650    0.0060 ca        1 0KW     -0.100500
      3 C03         1.9670   -0.3860    1.0600 ca        1 0KW     -0.128500
      4 C04         1.3510   -0.2400    2.3170 ca        1 0KW      0.004600
      5 C05         0.0200   -0.6840    2.4970 ca        1 0KW     -0.128500
      6 C06        -0.6700   -1.2580    1.4380 ca        1 0KW     -0.100500
      7 Cl1        -0.8980   -2.1030   -1.0950 cl        1 0KW     -0.044400
      8 N08         2.0020    0.3580    3.4280 ns        1 0KW     -0.393100
      9 C09         3.3300    0.6280    3.5130 c         1 0KW      0.611100
     10 C10         3.7720    1.2400    4.8700 c         1 0KW      0.444100
     11 N11         5.1410    1.8380    4.8620 ny        1 0KW     -0.652800
     12 O12         3.1110    1.2750    5.8970 o         1 0KW     -0.407100
     13 O13         4.2140    0.4640    2.6550 o         1 0KW     -0.556100
     14 C14         5.9410    1.5750    6.1190 c3        1 0KW      0.133200
     15 C15         6.6670    0.1890    6.0600 c3        1 0KW      0.146500
     16 C16         6.9550    2.6600    6.3120 cc        1 0KW      0.219700
     17 C17         5.7070   -0.9430    5.6630 c3        1 0KW     -0.131400
     18 C18         6.4360   -2.2750    5.6760 c3        1 0KW     -0.076400
     19 C19         7.1640   -2.5170    6.9810 c3        1 0KW     -0.120400
     20 C20         8.0390   -1.3190    7.3470 c3        1 0KW      0.144800
     21 N21         7.3420   -0.0420    7.3370 n7        1 0KW     -0.786200
     22 N22         7.5300    3.3070    5.2710 nd        1 0KW     -0.658000
     23 C23         8.4660    4.1990    5.7450 cd        1 0KW      0.366600
     24 C24         8.5850    4.2100    7.1520 cc        1 0KW     -0.200700
     25 S25         7.5420    3.1080    7.8300 ss        1 0KW      0.137700
     26 C26         9.2810    5.0500    4.8470 c3        1 0KW     -0.134400
     27 C27         9.5260    5.0430    7.9150 c3        1 0KW     -0.025100
     28 C28         8.9450    6.4190    8.2280 c3        1 0KW      0.139400
     29 O29         9.9370    7.0990    8.9770 oh        1 0KW     -0.593800
     30 H1          1.7550   -1.0760   -0.9750 ha        1 0KW      0.168000
     31 H2          3.0030   -0.0530    0.8860 ha        1 0KW      0.158000
     32 H3         -0.4870   -0.5810    3.4690 ha        1 0KW      0.158000
     33 H4         -1.7080   -1.6000    1.5850 ha        1 0KW      0.168000
     34 H5          1.4300    0.5110    4.2360 hn        1 0KW      0.352500
     35 H6          5.6650    1.4710    4.0470 hn        1 0KW      0.489300
     36 H7          5.2020    1.5880    6.9780 hx        1 0KW      0.112700
     37 H8          7.4800    0.2590    5.2740 h1        1 0KW      0.100700
     38 H9          5.3080   -0.7790    4.6270 hc        1 0KW      0.042700
     39 H10         4.8390   -0.9740    6.3710 hc        1 0KW      0.042700
     40 H12         7.1740   -2.2960    4.8300 hc        1 0KW      0.061700
     41 H11         5.6970   -3.0990    5.4970 hc        1 0KW      0.061700
     42 H13         6.4240   -2.7150    7.8000 hc        1 0KW      0.064200
     43 H14         7.8120   -3.4270    6.8890 hc        1 0KW      0.064200
     44 H16         8.4670   -1.4610    8.3780 h1        1 0KW      0.074700
     45 H15         8.8970   -1.2480    6.6210 h1        1 0KW      0.074700
     46 H17         6.6610   -0.0310    8.0790 hn        1 0KW      0.352800
     47 H20         9.2540    6.1090    5.2070 hc        1 0KW      0.066033
     48 H19        10.3440    4.6960    4.8670 hc        1 0KW      0.066033
     49 H21         8.9160    5.0190    3.7910 hc        1 0KW      0.066033
     50 H22        10.4760    5.1790    7.3270 hc        1 0KW      0.083700
     51 H23         9.8100    4.5430    8.8810 hc        1 0KW      0.083700
     52 H25         8.0030    6.3260    8.8320 h1        1 0KW      0.025700
     53 H24         8.7190    6.9770    7.2800 h1        1 0KW      0.025700
     54 H26         9.6020    7.9890    9.1400 ho        1 0KW      0.414000
     55 H112        5.0440    2.8580    4.7410 hn        1 0KW      0.489300
@<TRIPOS>BOND
     1    1    2 ar  
     2    1    6 ar  
     3    1    7 1   
     4    2    3 ar  
     5    2   30 1   
     6    3    4 ar  
     7    3   31 1   
     8    4    5 ar  
     9    4    8 1   
    10    5    6 ar  
    11    5   32 1   
    12    6   33 1   
    13    8    9 1   
    14    8   34 1   
    15    9   10 1   
    16    9   13 2   
    17   10   11 1   
    18   10   12 2   
    19   11   14 1   
    20   11   35 1   
    21   11   55 1   
    22   14   15 1   
    23   14   16 1   
    24   14   36 1   
    25   15   17 1   
    26   15   21 1   
    27   15   37 1   
    28   16   22 2   
    29   16   25 1   
    30   17   18 1   
    31   17   38 1   
    32   17   39 1   
    33   18   19 1   
    34   18   40 1   
    35   18   41 1   
    36   19   20 1   
    37   19   42 1   
    38   19   43 1   
    39   20   21 1   
    40   20   44 1   
    41   20   45 1   
    42   21   46 1   
    43   22   23 1   
    44   23   24 2   
    45   23   26 1   
    46   24   25 1   
    47   24   27 1   
    48   26   47 1   
    49   26   48 1   
    50   26   49 1   
    51   27   28 1   
    52   27   50 1   
    53   27   51 1   
    54   28   29 1   
    55   28   52 1   
    56   28   53 1   
    57   29   54 1   
@<TRIPOS>SUBSTRUCTURE
     1 0KW         1 TEMP              0 ****  ****    0 ROOT
