@<TRIPOS>MOLECULE
0KW
   54    48     1     0     0
SMALL
bcc


@<TRIPOS>ATOM
      1 C01        -5.6750    0.4660   -5.4400 c1        1 0KW     -0.086000
      2 C02        -5.9270   -0.7540   -4.8370 c1        1 0KW     -0.133500
      3 C03        -5.2590   -1.1040   -3.6670 c1        1 0KW     -0.133500
      4 C04        -4.3380   -0.2250   -3.1020 c1        1 0KW      0.072000
      5 C05        -4.0860    1.0000   -3.7080 c1        1 0KW     -0.147000
      6 C06        -4.7530    1.3470   -4.8760 c1        1 0KW     -0.099000
      7 CL1        -6.5120    0.9010   -6.9470 cl        1 0KW     -0.014000
      8 N08        -3.6630   -0.5780   -1.8960 n2        1 0KW     -0.296000
      9 C09        -2.1940   -0.5880   -1.8500 c1        1 0KW      0.293000
     10 C10        -1.4740   -0.9860   -0.5650 c1        1 0KW      0.285000
     11 N11        -0.0360   -0.9550   -0.5050 n2        1 0KW     -0.329000
     12 O12        -2.1070   -1.2880    0.4060 o         1 0KW     -0.369000
     13 O13        -1.5520   -0.2950   -2.8410 o         1 0KW     -0.338000
     14 C14         0.6170   -0.9740    0.7490 c3        1 0KW      0.097000
     15 C15         1.7870   -1.9450    0.6940 c3        1 0KW     -0.039000
     16 C16         1.1280    0.4200    1.0750 c2        1 0KW     -0.309000
     17 C17         1.2670   -3.3530    0.7870 c3        1 0KW     -0.190000
     18 C18         2.3680   -4.3570    0.9070 c3        1 0KW     -0.157000
     19 C19         3.3170   -4.0250    1.9960 c3        1 0KW     -0.196000
     20 C20         3.8280   -2.6110    1.9030 c3        1 0KW     -0.084000
     21 N21         2.7400   -1.6210    1.7820 n3        1 0KW     -0.270000
     22 N22         1.8780    1.1290    0.0860 n2        1 0KW     -0.104000
     23 C23         2.2490    2.5630    0.6660 c1        1 0KW     -0.068000
     24 C24         1.7030    2.6680    2.0040 c1        1 0KW     -0.402000
     25 S25         0.9830    1.3480    2.3220 ss        1 0KW      0.533000
     26 C26         2.9050    3.6840   -0.1070 c2        1 0KW     -0.150000
     27 C27         1.9530    3.8390    3.0050 c2        1 0KW     -0.093000
     28 C28         0.6590    4.1810    3.7220 c3        1 0KW     -0.017000
     29 O29         0.9230    5.1350    4.7500 oh        1 0KW     -0.330000
     30 H1         -6.5860   -1.3820   -5.2420 ha        1 0KW      0.144500
     31 H2         -5.4330   -1.9470   -3.2500 ha        1 0KW      0.144500
     32 H3         -3.4590    1.6000   -3.3250 ha        1 0KW      0.177000
     33 H4         -4.5770    2.2070   -5.3030 ha        1 0KW      0.152000
     34 H5         -4.1580   -0.7910   -1.1270 hn        1 0KW      0.259000
     35 H6          0.4540   -0.8630   -1.2750 hn        1 0KW      0.264000
     36 H7         -0.0050   -1.2570    1.4320 h1        1 0KW      0.130000
     37 H8          2.2300   -1.8390   -0.1360 h1        1 0KW      0.122000
     38 H9          0.7370   -3.5540   -0.0180 hc        1 0KW      0.089500
     39 H10         0.6810   -3.4240    1.5830 hc        1 0KW      0.089500
     40 H12         1.9820   -5.2240    1.0820 hc        1 0KW      0.084000
     41 H11         2.8650   -4.3940    0.0500 hc        1 0KW      0.084000
     42 H13         2.8660   -4.1420    2.8540 hc        1 0KW      0.085000
     43 H14         4.1000   -4.6570    1.9500 hc        1 0KW      0.085000
     44 H16         4.4330   -2.5340    1.0930 h1        1 0KW      0.096000
     45 H15         4.3450   -2.4130    2.7000 h1        1 0KW      0.096000
     46 H17         2.2720   -1.5680    2.6040 hn        1 0KW      0.141000
     47 H20         2.2680    4.4270   -0.2120 ha        1 0KW      0.092667
     48 H19         3.6870    3.9930    0.3730 ha        1 0KW      0.092667
     49 H21         3.1700    3.3600   -0.9820 ha        1 0KW      0.092667
     50 H22         2.6340    3.5680    3.6680 ha        1 0KW      0.108000
     51 H23         2.2770    4.6410    2.5020 ha        1 0KW      0.108000
     52 H25         0.0040    4.5670    3.0650 h1        1 0KW      0.066500
     53 H24         0.2900    3.3880    4.1130 h1        1 0KW      0.066500
     54 H26         0.1920    5.2150    5.2860 ho        1 0KW      0.201000
@<TRIPOS>BOND
     1    1    6 1   
     2    1    7 1   
     3    2    3 1   
     4    2   30 1   
     5    3   31 1   
     6    4    5 1   
     7    5   32 1   
     8    6   33 1   
     9    8    9 1   
    10    8   34 1   
    11    9   13 1   
    12   10   12 1   
    13   11   14 1   
    14   11   35 1   
    15   14   15 1   
    16   14   16 1   
    17   14   36 1   
    18   15   17 1   
    19   15   21 1   
    20   15   37 1   
    21   16   22 1   
    22   16   25 1   
    23   17   18 1   
    24   17   38 1   
    25   17   39 1   
    26   18   19 1   
    27   18   40 1   
    28   18   41 1   
    29   19   20 1   
    30   19   42 1   
    31   19   43 1   
    32   20   21 1   
    33   20   44 1   
    34   20   45 1   
    35   21   46 1   
    36   22   23 1   
    37   23   24 1   
    38   24   25 1   
    39   26   47 1   
    40   26   48 1   
    41   26   49 1   
    42   27   28 1   
    43   27   50 1   
    44   27   51 1   
    45   28   29 1   
    46   28   52 1   
    47   28   53 1   
    48   29   54 1   
@<TRIPOS>SUBSTRUCTURE
     1 0KW         1 TEMP              0 ****  ****    0 ROOT
