@<TRIPOS>MOLECULE
0KW
   55    57     1     0     0
SMALL
bcc


@<TRIPOS>ATOM
      1 C01        -0.0200   -1.4540    0.1800 ca        1 0KW      0.024400
      2 C02         1.2980   -1.0240    0.0030 ca        1 0KW     -0.100500
      3 C03         1.9940   -0.4350    1.0550 ca        1 0KW     -0.128500
      4 C04         1.3700   -0.2730    2.3060 ca        1 0KW      0.004600
      5 C05         0.0360   -0.7110    2.4800 ca        1 0KW     -0.128500
      6 C06        -0.6480   -1.2940    1.4230 ca        1 0KW     -0.100500
      7 CL1        -0.8600   -2.1680   -1.1030 cl        1 0KW     -0.044400
      8 N08         2.0140    0.3350    3.4150 n         1 0KW     -0.393100
      9 C09         3.3410    0.6070    3.5050 c         1 0KW      0.611100
     10 C10         3.7750    1.2330    4.8590 c         1 0KW      0.444100
     11 N11         5.1430    1.8320    4.8520 n4        1 0KW     -0.652800
     12 O12         3.1070    1.2780    5.8810 o         1 0KW     -0.407100
     13 O13         4.2310    0.4340    2.6550 o         1 0KW     -0.556100
     14 C14         5.9360    1.5830    6.1170 c3        1 0KW      0.133200
     15 C15         6.6640    0.1980    6.0770 c3        1 0KW      0.146500
     16 C16         6.9470    2.6730    6.3060 cc        1 0KW      0.219700
     17 C17         5.7080   -0.9390    5.6860 c3        1 0KW     -0.131400
     18 C18         6.4390   -2.2700    5.7180 c3        1 0KW     -0.076400
     19 C19         7.1590   -2.4980    7.0300 c3        1 0KW     -0.120400
     20 C20         8.0300   -1.2940    7.3880 c3        1 0KW      0.144800
     21 N21         7.3310   -0.0190    7.3600 n3        1 0KW     -0.786200
     22 N22         7.5290    3.3080    5.2620 nd        1 0KW     -0.658000
     23 C23         8.4590    4.2070    5.7320 cd        1 0KW      0.366600
     24 C24         8.5680    4.2340    7.1400 cc        1 0KW     -0.200700
     25 S25         7.5220    3.1380    7.8230 ss        1 0KW      0.137700
     26 C26         9.2800    5.0490    4.8300 c3        1 0KW     -0.134400
     27 C27         9.5030    5.0760    7.9000 c3        1 0KW     -0.025100
     28 C28         8.9180    6.4560    8.1930 c3        1 0KW      0.139400
     29 O29         9.9020    7.1460    8.9420 oh        1 0KW     -0.593800
     30 H1          1.7960   -1.1470   -0.9730 ha        1 0KW      0.168000
     31 H2          3.0330   -0.1070    0.8850 ha        1 0KW      0.158000
     32 H3         -0.4780   -0.5960    3.4480 ha        1 0KW      0.158000
     33 H4         -1.6880   -1.6320    1.5660 ha        1 0KW      0.168000
     34 H5          1.4370    0.4970    4.2180 hn        1 0KW      0.352500
     35 H6          5.6720    1.4580    4.0450 hn        1 0KW      0.489300
     36 H7          5.1910    1.6040    6.9710 hx        1 0KW      0.112700
     37 H8          7.4810    0.2610    5.2950 h1        1 0KW      0.100700
     38 H9          5.3150   -0.7860    4.6470 hc        1 0KW      0.042700
     39 H10         4.8350   -0.9650    6.3900 hc        1 0KW      0.042700
     40 H12         5.7020   -3.0970    5.5430 hc        1 0KW      0.061700
     41 H11         7.1820   -2.2990    4.8760 hc        1 0KW      0.061700
     42 H13         6.4150   -2.6870    7.8460 hc        1 0KW      0.064200
     43 H14         7.8090   -3.4070    6.9500 hc        1 0KW      0.064200
     44 H16         8.8930   -1.2300    6.6660 h1        1 0KW      0.074700
     45 H15         8.4520   -1.4250    8.4230 h1        1 0KW      0.074700
     46 H17         6.6460   -0.0010    8.0980 hn        1 0KW      0.352800
     47 H20        10.3430    4.6970    4.8640 hc        1 0KW      0.066033
     48 H19         8.9240    5.0040    3.7720 hc        1 0KW      0.066033
     49 H21         9.2470    6.1120    5.1780 hc        1 0KW      0.066033
     50 H22         9.7790    4.5880    8.8740 hc        1 0KW      0.083700
     51 H23        10.4570    5.2070    7.3180 hc        1 0KW      0.083700
     52 H25         8.6980    7.0030    7.2370 h1        1 0KW      0.025700
     53 H24         7.9710    6.3680    8.7910 h1        1 0KW      0.025700
     54 H26         9.5650    8.0370    9.0920 ho        1 0KW      0.414000
     55 H112        5.0460    2.8510    4.7200 hn        1 0KW      0.489300
@<TRIPOS>BOND
     1    1    2 ar  
     2    1    6 ar  
     3    1    7 1   
     4    2    3 ar  
     5    2   30 1   
     6    3    4 ar  
     7    3   31 1   
     8    4    5 ar  
     9    4    8 1   
    10    5    6 ar  
    11    5   32 1   
    12    6   33 1   
    13    8    9 1   
    14    8   34 1   
    15    9   10 1   
    16    9   13 2   
    17   10   11 1   
    18   10   12 2   
    19   11   14 1   
    20   11   35 1   
    21   11   55 1   
    22   14   15 1   
    23   14   16 1   
    24   14   36 1   
    25   15   17 1   
    26   15   21 1   
    27   15   37 1   
    28   16   22 2   
    29   16   25 1   
    30   17   18 1   
    31   17   38 1   
    32   17   39 1   
    33   18   19 1   
    34   18   40 1   
    35   18   41 1   
    36   19   20 1   
    37   19   42 1   
    38   19   43 1   
    39   20   21 1   
    40   20   44 1   
    41   20   45 1   
    42   21   46 1   
    43   22   23 1   
    44   23   24 2   
    45   23   26 1   
    46   24   25 1   
    47   24   27 1   
    48   26   47 1   
    49   26   48 1   
    50   26   49 1   
    51   27   28 1   
    52   27   50 1   
    53   27   51 1   
    54   28   29 1   
    55   28   52 1   
    56   28   53 1   
    57   29   54 1   
@<TRIPOS>SUBSTRUCTURE
     1 0KW         1 TEMP              0 ****  ****    0 ROOT
