@<TRIPOS>MOLECULE
0KX
   43    44     1     0     0
SMALL
bcc


@<TRIPOS>ATOM
      1 PG          0.0000    0.0000    0.0000 p5        1 0KX      0.894900
      2 O1G         1.6100    0.0000    0.0000 o         1 0KX     -0.422500
      3 O2G        -0.4920    0.0000    1.3960 o         1 0KX     -0.422500
      4 O3G        -0.5370    1.3150   -0.7590 o         1 0KX     -0.422500
      5 PB         -0.7190   -2.8560   -0.3320 p5        1 0KX      0.750700
      6 O1B        -1.6510   -2.9430    0.8150 o         1 0KX     -0.560000
      7 O2B         0.7090   -3.4700    0.0890 o         1 0KX     -0.560000
      8 O3B        -0.5360   -1.3150   -0.7580 os        1 0KX     -0.526800
      9 PA         -1.5500   -5.3470   -1.2240 p5        1 0KX      0.707700
     10 O1A        -0.2450   -5.9320   -0.8450 o         1 0KX     -0.553500
     11 O2A        -2.5710   -5.4640    0.0160 o         1 0KX     -0.553500
     12 N3A        -1.3430   -3.7270   -1.6290 ny        1 0KX     -0.207200
     13 O5'        -2.1480   -6.1450   -2.4890 os        1 0KX     -0.487200
     14 C5'        -1.3630   -6.4960   -3.6290 c3        1 0KX      0.287400
     15 C4'        -2.2370   -7.2430   -4.6390 c3        1 0KX      0.154100
     16 O4'        -3.1990   -6.3450   -5.2320 os        1 0KX     -0.363600
     17 C3'        -1.3810   -7.7430   -5.8250 c3        1 0KX      0.159100
     18 O3'        -1.0380   -9.1190   -5.6500 oh        1 0KX     -0.593800
     19 C2'        -2.3010   -7.5660   -7.0530 c3        1 0KX     -0.114400
     20 C1'        -3.6030   -6.9800   -6.4640 c3        1 0KX      0.243500
     21 N1         -4.1800   -5.9940   -7.3820 n         1 0KX      0.010000
     22 C2         -3.4850   -4.8840   -7.6930 c         1 0KX      0.743900
     23 N3         -3.9840   -3.9710   -8.5240 nc        1 0KX     -0.758100
     24 C4         -5.1840   -4.1330   -9.0680 cd        1 0KX     -0.094500
     25 C5         -5.9370   -5.2850   -8.7620 cd        1 0KX     -0.248600
     26 C6         -5.4130   -6.2080   -7.9200 cc        1 0KX     -0.208400
     27 O2         -2.3800   -4.7110   -7.2050 o         1 0KX     -0.756500
     28 N4         -5.6890   -3.1830   -9.9240 nz        1 0KX      0.327400
     29 H5         -2.2280   -3.3380   -1.8900 hn        1 0KX      0.285300
     30 H6         -0.9690   -5.5970   -4.0870 h1        1 0KX     -0.013300
     31 H7         -0.5430   -7.1330   -3.3200 h1        1 0KX     -0.013300
     32 H8         -2.7430   -8.0750   -4.1650 h1        1 0KX      0.026700
     33 H9         -0.4910   -7.1350   -5.9300 h1        1 0KX      0.021700
     34 H10        -0.1600   -9.2660   -5.9600 ho        1 0KX      0.377000
     35 H11        -1.8600   -6.8720   -7.7590 hc        1 0KX      0.036200
     36 H12        -2.4950   -8.5230   -7.5220 hc        1 0KX      0.036200
     37 H13        -4.3120   -7.7740   -6.2610 h2        1 0KX      0.003700
     38 H14        -6.8300   -5.5150   -9.3310 ha        1 0KX      0.072000
     39 H15        -6.0300   -7.0200   -7.5550 h4        1 0KX      0.106000
     40 H16        -5.7660   -3.5700  -10.8440 hn        1 0KX      0.116800
     41 H17        -5.0760   -2.3920   -9.9440 hn        1 0KX      0.116800
     42 H3A2       -0.7130   -3.6600   -2.4040 hn        1 0KX      0.285300
     43 H43        -6.5940   -2.8960   -9.6070 hn        1 0KX      0.116800
@<TRIPOS>BOND
     1    1    2 1   
     2    1    3 1   
     3    1    4 1   
     4    1    8 1   
     5    5    6 1   
     6    5    7 1   
     7    5    8 1   
     8    5   12 1   
     9    9   10 1   
    10    9   11 1   
    11    9   12 1   
    12    9   13 1   
    13   12   29 1   
    14   12   42 1   
    15   13   14 1   
    16   14   15 1   
    17   14   30 1   
    18   14   31 1   
    19   15   16 1   
    20   15   17 1   
    21   15   32 1   
    22   16   20 1   
    23   17   18 1   
    24   17   19 1   
    25   17   33 1   
    26   18   34 1   
    27   19   20 1   
    28   19   35 1   
    29   19   36 1   
    30   20   21 1   
    31   20   37 1   
    32   21   22 1   
    33   21   26 1   
    34   22   23 1   
    35   22   27 2   
    36   23   24 2   
    37   24   25 1   
    38   24   28 1   
    39   25   26 2   
    40   25   38 1   
    41   26   39 1   
    42   28   40 1   
    43   28   41 1   
    44   28   43 1   
@<TRIPOS>SUBSTRUCTURE
     1 0KX         1 TEMP              0 ****  ****    0 ROOT
