@<TRIPOS>MOLECULE
0KY
   31    32     1     0     0
SMALL
bcc


@<TRIPOS>ATOM
      1 S           0.0880   -0.8200    0.3230 s         1 0KY     -0.484400
      2 C9          1.6420   -0.4260    0.1660 c         1 0KY      0.572400
      3 N2          2.4450   -0.3390    1.3020 n         1 0KY     -0.551500
      4 N1          2.2320   -0.2160   -1.1040 n         1 0KY     -0.292000
      5 C5          1.4120   -0.0160   -2.2790 c3        1 0KY      0.067000
      6 C3          1.3750    1.4260   -2.8320 c3        1 0KY      0.122100
      7 O1          0.6660    2.2020   -1.8710 os        1 0KY     -0.411600
      8 C2          0.9060    3.6060   -1.9830 c3        1 0KY      0.129400
      9 C1          0.1040    4.2670   -0.8860 c3        1 0KY     -0.097100
     10 C4          0.6490    1.4190   -4.1660 c3        1 0KY     -0.126100
     11 C6          3.6020    0.0170   -1.1470 cc        1 0KY     -0.027000
     12 N4          4.4560    0.1790   -2.2400 na        1 0KY     -0.331900
     13 C10         5.7540    0.3280   -1.6950 cc        1 0KY      0.392400
     14 N3          5.7660    0.2700   -0.3510 nd        1 0KY     -0.570000
     15 C7          4.4350    0.0770    0.0190 cd        1 0KY      0.205800
     16 C8          3.8370   -0.0800    1.3370 c         1 0KY      0.644000
     17 O2          4.4070   -0.0140    2.4330 o         1 0KY     -0.572500
     18 H1          1.9770   -0.4970    2.1760 hn        1 0KY      0.366500
     19 H2          0.3500   -0.3210   -2.0210 h1        1 0KY      0.098200
     20 H3          1.8050   -0.6930   -3.0900 h1        1 0KY      0.098200
     21 H4          2.4140    1.8380   -2.9650 h1        1 0KY      0.031700
     22 H5          2.0030    3.8100   -1.8610 h1        1 0KY      0.025700
     23 H6          0.5780    3.9640   -2.9950 h1        1 0KY      0.025700
     24 H7         -0.9820    4.0360   -1.0040 hc        1 0KY      0.049700
     25 H8          0.4330    3.8970    0.1140 hc        1 0KY      0.049700
     26 H9          0.2530    5.3720   -0.9360 hc        1 0KY      0.049700
     27 H10         0.6180    2.4510   -4.5900 hc        1 0KY      0.049700
     28 H11         1.1730    0.7500   -4.8890 hc        1 0KY      0.049700
     29 H12        -0.4000    1.0620   -4.0320 hc        1 0KY      0.049700
     30 H13         4.2030    0.1820   -3.1920 hn        1 0KY      0.312700
     31 H14         6.6290    0.4740   -2.3380 h5        1 0KY      0.074100
@<TRIPOS>BOND
     1    1    2 2   
     2    2    3 1   
     3    2    4 1   
     4    3   16 1   
     5    3   18 1   
     6    4    5 1   
     7    4   11 1   
     8    5    6 1   
     9    5   19 1   
    10    5   20 1   
    11    6    7 1   
    12    6   10 1   
    13    6   21 1   
    14    7    8 1   
    15    8    9 1   
    16    8   22 1   
    17    8   23 1   
    18    9   24 1   
    19    9   25 1   
    20    9   26 1   
    21   10   27 1   
    22   10   28 1   
    23   10   29 1   
    24   11   12 1   
    25   11   15 2   
    26   12   13 1   
    27   12   30 1   
    28   13   14 2   
    29   13   31 1   
    30   14   15 1   
    31   15   16 1   
    32   16   17 2   
@<TRIPOS>SUBSTRUCTURE
     1 0KY         1 TEMP              0 ****  ****    0 ROOT
