@<TRIPOS>MOLECULE
0KY
   31    32     1     0     0
SMALL
bcc


@<TRIPOS>ATOM
      1 S           0.7750    2.1310   -1.9570 s         1 0KY     -0.484400
      2 C9         -0.2890    1.2980   -1.0800 c         1 0KY      0.572400
      3 N2         -1.3470    1.9690   -0.4690 n         1 0KY     -0.551500
      4 N1         -0.2090   -0.1100   -0.9550 n         1 0KY     -0.292000
      5 C5          0.9960   -0.8210   -1.3200 c3        1 0KY      0.067000
      6 C3          1.8340   -1.3680   -0.1420 c3        1 0KY      0.122100
      7 O1          2.3820   -0.2300    0.5170 os        1 0KY     -0.411600
      8 C2          2.8060   -0.4960    1.8560 c3        1 0KY      0.129400
      9 C1          3.3340    0.8080    2.4060 c3        1 0KY     -0.097100
     10 C4          2.9350   -2.2550   -0.6960 c3        1 0KY     -0.126100
     11 C6         -1.2310   -0.7540   -0.2640 cc        1 0KY     -0.027000
     12 N4         -1.4570   -2.1150   -0.0510 na        1 0KY     -0.331900
     13 C10        -2.6760   -2.1950    0.6650 cc        1 0KY      0.392400
     14 N3         -3.2180   -0.9880    0.9080 nd        1 0KY     -0.570000
     15 C7         -2.3370   -0.0680    0.3390 cd        1 0KY      0.205800
     16 C8         -2.4060    1.3830    0.2690 c         1 0KY      0.644000
     17 O2         -3.2650    2.1200    0.7690 o         1 0KY     -0.572500
     18 H1         -1.3560    2.9650   -0.5900 hn        1 0KY      0.366500
     19 H2          0.6970   -1.6910   -1.9710 h1        1 0KY      0.098200
     20 H3          1.6510   -0.1150   -1.9190 h1        1 0KY      0.098200
     21 H4          1.1940   -1.9540    0.5750 h1        1 0KY      0.031700
     22 H5          1.9340   -0.8670    2.4590 h1        1 0KY      0.025700
     23 H6          3.6040   -1.2850    1.8470 h1        1 0KY      0.025700
     24 H7          4.1840    1.1770    1.7830 hc        1 0KY      0.049700
     25 H8          2.5340    1.5860    2.4000 hc        1 0KY      0.049700
     26 H9          3.6860    0.6500    3.4530 hc        1 0KY      0.049700
     27 H10         2.4960   -3.1030   -1.2720 hc        1 0KY      0.049700
     28 H11         3.6040   -1.6650   -1.3680 hc        1 0KY      0.049700
     29 H12         3.5500   -2.6680    0.1390 hc        1 0KY      0.049700
     30 H13        -0.8860   -2.8620   -0.3440 hn        1 0KY      0.312700
     31 H14        -3.0960   -3.1590    0.9700 h5        1 0KY      0.074100
@<TRIPOS>BOND
     1    1    2 2   
     2    2    3 1   
     3    2    4 1   
     4    3   16 1   
     5    3   18 1   
     6    4    5 1   
     7    4   11 1   
     8    5    6 1   
     9    5   19 1   
    10    5   20 1   
    11    6    7 1   
    12    6   10 1   
    13    6   21 1   
    14    7    8 1   
    15    8    9 1   
    16    8   22 1   
    17    8   23 1   
    18    9   24 1   
    19    9   25 1   
    20    9   26 1   
    21   10   27 1   
    22   10   28 1   
    23   10   29 1   
    24   11   12 1   
    25   11   15 2   
    26   12   13 1   
    27   12   30 1   
    28   13   14 2   
    29   13   31 1   
    30   14   15 1   
    31   15   16 1   
    32   16   17 2   
@<TRIPOS>SUBSTRUCTURE
     1 0KY         1 TEMP              0 ****  ****    0 ROOT
