@<TRIPOS>MOLECULE
0KY
   31    32     1     0     0
SMALL
bcc


@<TRIPOS>ATOM
      1 S           0.0740   -0.8150    0.3120 s         1 0KY     -0.484400
      2 C9          1.6310   -0.4310    0.1580 c         1 0KY      0.572400
      3 N2          2.4340   -0.3560    1.2950 n         1 0KY     -0.551500
      4 N1          2.2220   -0.2190   -1.1110 n         1 0KY     -0.292000
      5 C5          1.4050   -0.0070   -2.2850 c3        1 0KY      0.067000
      6 C3          1.3780    1.4380   -2.8310 c3        1 0KY      0.122100
      7 O1          0.6700    2.2130   -1.8680 os        1 0KY     -0.411600
      8 C2          0.9210    3.6160   -1.9700 c3        1 0KY      0.129400
      9 C1          0.1170    4.2770   -0.8740 c3        1 0KY     -0.097100
     10 C4          0.6550    1.4420   -4.1670 c3        1 0KY     -0.126100
     11 C6          3.5950    0.0060   -1.1520 cc        1 0KY     -0.027000
     12 N4          4.4500    0.1670   -2.2440 na        1 0KY     -0.331900
     13 C10         5.7480    0.3050   -1.6980 cc        1 0KY      0.392400
     14 N3          5.7600    0.2400   -0.3540 nd        1 0KY     -0.570000
     15 C7          4.4280    0.0530    0.0150 cd        1 0KY      0.205800
     16 C8          3.8280   -0.1060    1.3310 c         1 0KY      0.644000
     17 O2          4.3970   -0.0500    2.4280 o         1 0KY     -0.572500
     18 H1          1.9640   -0.5150    2.1670 hn        1 0KY      0.366500
     19 H2          0.3410   -0.3070   -2.0290 h1        1 0KY      0.098200
     20 H3          1.7940   -0.6820   -3.0990 h1        1 0KY      0.098200
     21 H4          2.4200    1.8450   -2.9590 h1        1 0KY      0.031700
     22 H5          2.0190    3.8120   -1.8410 h1        1 0KY      0.025700
     23 H6          0.6020    3.9820   -2.9820 h1        1 0KY      0.025700
     24 H7          0.4370    3.8980    0.1260 hc        1 0KY      0.049700
     25 H8         -0.9690    4.0550   -1.0010 hc        1 0KY      0.049700
     26 H9          0.2750    5.3800   -0.9170 hc        1 0KY      0.049700
     27 H10         0.6290    2.4770   -4.5850 hc        1 0KY      0.049700
     28 H11         1.1770    0.7750   -4.8920 hc        1 0KY      0.049700
     29 H12        -0.3960    1.0890   -4.0370 hc        1 0KY      0.049700
     30 H13         4.1970    0.1770   -3.1960 hn        1 0KY      0.312700
     31 H14         6.6250    0.4480   -2.3400 h5        1 0KY      0.074100
@<TRIPOS>BOND
     1    1    2 2   
     2    2    3 1   
     3    2    4 1   
     4    3   16 1   
     5    3   18 1   
     6    4    5 1   
     7    4   11 1   
     8    5    6 1   
     9    5   19 1   
    10    5   20 1   
    11    6    7 1   
    12    6   10 1   
    13    6   21 1   
    14    7    8 1   
    15    8    9 1   
    16    8   22 1   
    17    8   23 1   
    18    9   24 1   
    19    9   25 1   
    20    9   26 1   
    21   10   27 1   
    22   10   28 1   
    23   10   29 1   
    24   11   12 1   
    25   11   15 2   
    26   12   13 1   
    27   12   30 1   
    28   13   14 2   
    29   13   31 1   
    30   14   15 1   
    31   15   16 1   
    32   16   17 2   
@<TRIPOS>SUBSTRUCTURE
     1 0KY         1 TEMP              0 ****  ****    0 ROOT
