@<TRIPOS>MOLECULE
0KY
   31    28     1     0     0
SMALL
bcc


@<TRIPOS>ATOM
      1 S          -1.9620   -0.3760    1.8660 s         1 0KY     -0.543900
      2 C9         -0.3270   -0.7370    1.8580 c1        1 0KY      0.497900
      3 N2          0.4180   -0.6870    3.0680 n2        1 0KY     -0.795800
      4 N1          0.3260   -1.0950    0.6230 nh        1 0KY     -0.148600
      5 C5         -0.3960   -1.0510   -0.6010 c3        1 0KY      0.010300
      6 C3         -0.4930    0.3800   -1.0790 c3        1 0KY      0.122100
      7 O1         -1.6900    0.9500   -0.6100 os        1 0KY     -0.411600
      8 C2         -1.8660    2.2950   -0.9860 c3        1 0KY      0.129400
      9 C1         -3.1260    2.8360   -0.3470 c3        1 0KY     -0.097100
     10 C4         -0.4790    0.4090   -2.5910 c3        1 0KY     -0.126100
     11 C6          1.7230   -1.5120    0.6310 ce        1 0KY      0.469500
     12 N4          2.5470   -1.9400   -0.3540 n1        1 0KY     -1.033500
     13 C10         3.7640   -2.1850    0.1940 cg        1 0KY      0.281800
     14 N3          3.6920   -1.9060    1.5210 ne        1 0KY     -0.316400
     15 C7          2.4330   -1.4910    1.7930 c1        1 0KY      0.071500
     16 C8          1.7650   -1.0620    3.0750 c1        1 0KY      0.844900
     17 O2          2.4040   -1.0170    4.1070 o         1 0KY     -0.530500
     18 H1          0.0090   -0.4390    3.8450 hn        1 0KY      0.524400
     19 H2         -1.2960   -1.4110   -0.4620 h1        1 0KY      0.098200
     20 H3          0.0700   -1.5890   -1.2740 h1        1 0KY      0.098200
     21 H4          0.2670    0.8910   -0.7360 h1        1 0KY      0.031700
     22 H5         -1.0960    2.8220   -0.6870 h1        1 0KY      0.025700
     23 H6         -1.9440    2.3540   -1.9610 h1        1 0KY      0.025700
     24 H7         -3.8980    2.3140   -0.6510 hc        1 0KY      0.049700
     25 H8         -3.0520    2.7710    0.6280 hc        1 0KY      0.049700
     26 H9         -3.2460    3.7740   -0.6030 hc        1 0KY      0.049700
     27 H10        -1.2930   -0.0160   -2.9330 hc        1 0KY      0.049700
     28 H11         0.3070   -0.0760   -2.9200 hc        1 0KY      0.049700
     29 H12        -0.4410    1.3390   -2.8990 hc        1 0KY      0.049700
     30 H13         2.3230   -2.0460   -1.2320 DU        1 0KY      0.237000
     31 H14         4.5550   -2.5020   -0.2830 DU        1 0KY      0.237000
@<TRIPOS>BOND
     1    1    2 2   
     2    2    4 2   
     3    3   16 2   
     4    3   18 1   
     5    4    5 1   
     6    4   11 1   
     7    5    6 1   
     8    5   19 1   
     9    5   20 1   
    10    6    7 1   
    11    6   10 1   
    12    6   21 1   
    13    7    8 1   
    14    8    9 1   
    15    8   22 1   
    16    8   23 1   
    17    9   24 1   
    18    9   25 1   
    19    9   26 1   
    20   10   27 1   
    21   10   28 1   
    22   10   29 1   
    23   11   12 1   
    24   11   15 2   
    25   12   13 3   
    26   13   14 1   
    27   14   15 2   
    28   16   17 2   
@<TRIPOS>SUBSTRUCTURE
     1 0KY         1 TEMP              0 ****  ****    0 ROOT
