@<TRIPOS>MOLECULE
0KY
   31    32     1     0     0
SMALL
bcc


@<TRIPOS>ATOM
      1 S           0.0600   -0.7990    0.3150 s         1 0KY     -0.484400
      2 C9          1.6190   -0.4260    0.1600 c         1 0KY      0.572400
      3 N2          2.4240   -0.3560    1.2960 ns        1 0KY     -0.551500
      4 N1          2.2120   -0.2200   -1.1100 n         1 0KY     -0.292000
      5 C5          1.3950   -0.0030   -2.2840 c3        1 0KY      0.067000
      6 C3          1.3780    1.4420   -2.8310 c3        1 0KY      0.122100
      7 O1          0.6780    2.2240   -1.8670 os        1 0KY     -0.411600
      8 C2          0.9390    3.6250   -1.9710 c3        1 0KY      0.129400
      9 C1          0.1420    4.2920   -0.8740 c3        1 0KY     -0.097100
     10 C4          0.6540    1.4510   -4.1650 c3        1 0KY     -0.126100
     11 C6          3.5850   -0.0050   -1.1530 cc        1 0KY     -0.027000
     12 N4          4.4410    0.1480   -2.2450 na        1 0KY     -0.331900
     13 C10         5.7410    0.2770   -1.7000 cc        1 0KY      0.392400
     14 N3          5.7530    0.2130   -0.3570 nd        1 0KY     -0.570000
     15 C7          4.4200    0.0370    0.0140 cd        1 0KY      0.205800
     16 C8          3.8200   -0.1170    1.3310 c         1 0KY      0.644000
     17 O2          4.3910   -0.0650    2.4270 o         1 0KY     -0.572500
     18 H1          1.9540   -0.5110    2.1690 hn        1 0KY      0.366500
     19 H2          1.7780   -0.6810   -3.0980 h1        1 0KY      0.098200
     20 H3          0.3280   -0.2940   -2.0270 h1        1 0KY      0.098200
     21 H4          2.4230    1.8410   -2.9600 h1        1 0KY      0.031700
     22 H5          2.0390    3.8120   -1.8440 h1        1 0KY      0.025700
     23 H6          0.6210    3.9930   -2.9830 h1        1 0KY      0.025700
     24 H7          0.3080    5.3940   -0.9180 hc        1 0KY      0.049700
     25 H8          0.4620    3.9120    0.1260 hc        1 0KY      0.049700
     26 H9         -0.9460    4.0780   -0.9980 hc        1 0KY      0.049700
     27 H10         1.1690    0.7790   -4.8910 hc        1 0KY      0.049700
     28 H11        -0.4000    1.1060   -4.0340 hc        1 0KY      0.049700
     29 H12         0.6360    2.4860   -4.5840 hc        1 0KY      0.049700
     30 H13         4.1870    0.1590   -3.1970 hn        1 0KY      0.312700
     31 H14         6.6180    0.4130   -2.3430 h5        1 0KY      0.074100
@<TRIPOS>BOND
     1    1    2 2   
     2    2    3 1   
     3    2    4 1   
     4    3   16 1   
     5    3   18 1   
     6    4    5 1   
     7    4   11 1   
     8    5    6 1   
     9    5   19 1   
    10    5   20 1   
    11    6    7 1   
    12    6   10 1   
    13    6   21 1   
    14    7    8 1   
    15    8    9 1   
    16    8   22 1   
    17    8   23 1   
    18    9   24 1   
    19    9   25 1   
    20    9   26 1   
    21   10   27 1   
    22   10   28 1   
    23   10   29 1   
    24   11   12 1   
    25   11   15 2   
    26   12   13 1   
    27   12   30 1   
    28   13   14 2   
    29   13   31 1   
    30   14   15 1   
    31   15   16 1   
    32   16   17 2   
@<TRIPOS>SUBSTRUCTURE
     1 0KY         1 TEMP              0 ****  ****    0 ROOT
