@<TRIPOS>MOLECULE
0KZ
   37    34     1     0     0
SMALL
bcc


@<TRIPOS>ATOM
      1 C2          1.9420   -0.8120    0.6410 c1        1 0KZ      0.375000
      2 N3          3.3330   -1.2790    0.5820 n3        1 0KZ     -0.374000
      3 C4          3.7420   -2.1690   -0.4520 c1        1 0KZ      0.375000
      4 C5          2.7510   -2.6890   -1.4110 c1        1 0KZ     -0.291000
      5 C6          1.3480   -2.2410   -1.3310 c1        1 0KZ      0.082000
      6 C7          3.1960   -3.6100   -2.5470 c2        1 0KZ     -0.138000
      7 P          -2.5760    4.9380    0.9960 p3        1 0KZ      2.505000
      8 OP1        -1.8030    5.2230    2.2650 o         1 0KZ     -1.245333
      9 OP2        -3.9760    5.4980    1.1220 o         1 0KZ     -1.245333
     10 O5'        -2.6530    3.3660    0.7640 o         1 0KZ     -0.721000
     11 C5'        -1.4410    2.6300    0.7140 c3        1 0KZ      0.120000
     12 C4'        -1.7400    1.1770    0.3100 cx        1 0KZ     -0.157000
     13 C6'        -0.5740    0.6090   -0.3910 cx        1 0KZ     -0.254000
     14 C7'        -1.8020    0.8620   -1.1250 cx        1 0KZ     -0.152000
     15 C1'        -0.4220   -0.9450   -0.1920 c3        1 0KZ      0.052000
     16 N1          0.9500   -1.3280   -0.3120 n1        1 0KZ     -0.236000
     17 O2          1.6130    0.0130    1.4740 o         1 0KZ     -0.393500
     18 O4          4.9020   -2.5370   -0.5150 o         1 0KZ     -0.393500
     19 C2'        -0.8920   -1.2040    1.1190 c3        1 0KZ     -0.191000
     20 C3'        -1.9740    0.1080    1.4810 c3        1 0KZ      0.076000
     21 O3'        -3.1230   -0.2770    1.4810 oh        1 0KZ     -0.368000
     22 H1          3.9500   -0.9550    1.1790 hn        1 0KZ      0.246000
     23 H2          0.6860   -2.5850   -1.9680 ha        1 0KZ      0.213000
     24 H3          2.4400   -4.1710   -2.8300 ha        1 0KZ      0.080667
     25 H4          3.5040   -3.0680   -3.3070 ha        1 0KZ      0.080667
     26 H5          3.9300   -4.1840   -2.2350 ha        1 0KZ      0.080667
     27 H8         -0.8380    3.0350    0.0530 h1        1 0KZ      0.030500
     28 H9         -1.0130    2.6420    1.5980 h1        1 0KZ      0.030500
     29 H10         0.1840    1.1940   -0.6150 hc        1 0KZ      0.124000
     30 H11        -2.3270    0.0670   -1.3640 hc        1 0KZ      0.150500
     31 H12        -1.7840    1.6360   -1.7320 hc        1 0KZ      0.150500
     32 H13        -0.9690   -1.4280   -0.8520 h1        1 0KZ      0.120000
     33 H14        -1.3750   -2.0620    1.1460 hc        1 0KZ      0.088000
     34 H15        -0.1430   -1.2140    1.7540 hc        1 0KZ      0.088000
     35 H16        -1.7480    0.5040    2.3520 h1        1 0KZ      0.060000
     36 H17        -3.4190   -0.3320    2.3220 ho        1 0KZ      0.275000
     37 OP3        -1.8770    5.5880   -0.1770 o         1 0KZ     -1.245333
@<TRIPOS>BOND
     1    1    2 1   
     2    1   17 1   
     3    2    3 1   
     4    2   22 1   
     5    3   18 1   
     6    4    5 1   
     7    5   23 1   
     8    6   24 1   
     9    6   25 1   
    10    6   26 1   
    11    7    8 1   
    12    7    9 1   
    13    7   37 1   
    14   10   11 1   
    15   11   12 1   
    16   11   27 1   
    17   11   28 1   
    18   12   13 1   
    19   12   14 1   
    20   12   20 1   
    21   13   14 1   
    22   13   15 1   
    23   13   29 1   
    24   14   30 1   
    25   14   31 1   
    26   15   16 1   
    27   15   19 1   
    28   15   32 1   
    29   19   20 1   
    30   19   33 1   
    31   19   34 1   
    32   20   21 1   
    33   20   35 1   
    34   21   36 1   
@<TRIPOS>SUBSTRUCTURE
     1 0KZ         1 TEMP              0 ****  ****    0 ROOT
