@<TRIPOS>MOLECULE
0KZ
   37    39     1     0     0
SMALL
bcc


@<TRIPOS>ATOM
      1 C2         -3.8110    1.0890    1.5420 c         1 0KZ      0.798500
      2 N3         -5.0330    0.5330    1.1130 n         1 0KZ     -0.594500
      3 C4         -5.1380   -0.3430    0.0190 c         1 0KZ      0.722700
      4 C5         -3.8890   -0.6640   -0.6740 cc        1 0KZ     -0.314400
      5 C6         -2.7120   -0.1130   -0.2430 cd        1 0KZ      0.084600
      6 C7         -3.9570   -1.5840   -1.8250 c3        1 0KZ     -0.015900
      7 P           3.6600    1.0050   -2.1210 p5        1 0KZ      1.312900
      8 OP1         3.2840    0.6510   -3.5310 o         1 0KZ     -0.925833
      9 OP2         3.1370    2.3380   -1.6440 o         1 0KZ     -0.925833
     10 O5'         2.5860   -0.0600   -1.2130 os        1 0KZ     -0.559200
     11 C5'         1.2690    0.2660   -1.3870 c3        1 0KZ      0.270400
     12 C4'         0.6720    0.7560   -0.0790 cx        1 0KZ     -0.157000
     13 C6'        -0.4950    1.7200    0.0550 cx        1 0KZ     -0.214700
     14 C7'         0.9120    2.1690    0.3670 cx        1 0KZ     -0.073400
     15 C1'        -1.3390    1.2920    1.2530 c3        1 0KZ      0.128700
     16 N1         -2.6390    0.7480    0.8330 n         1 0KZ     -0.343000
     17 O2         -3.8110    1.8610    2.5290 o         1 0KZ     -0.669500
     18 O4         -6.2720   -0.7750   -0.2750 o         1 0KZ     -0.668500
     19 C2'        -0.4770    0.2490    2.0170 c3        1 0KZ     -0.112400
     20 C3'         0.5650   -0.2880    1.0170 c3        1 0KZ      0.187100
     21 O3'         1.7870   -0.5170    1.6870 oh        1 0KZ     -0.640800
     22 H1         -5.8480    0.7930    1.6200 hn        1 0KZ      0.332500
     23 H2         -1.7360   -0.3250   -0.7400 h4        1 0KZ      0.213000
     24 H3         -4.2080   -2.6180   -1.4790 hc        1 0KZ      0.041367
     25 H4         -4.7590   -1.2550   -2.5330 hc        1 0KZ      0.041367
     26 H5         -2.9820   -1.6160   -2.3720 hc        1 0KZ      0.041367
     27 H8          1.1410    1.0630   -2.1740 h1        1 0KZ     -0.008800
     28 H9          0.6720   -0.6490   -1.6940 h1        1 0KZ     -0.008800
     29 H10        -1.0270    2.1430   -0.8080 hc        1 0KZ      0.084700
     30 H11         1.1870    2.3650    1.4180 hc        1 0KZ      0.111200
     31 H12         1.4640    2.8160   -0.3600 hc        1 0KZ      0.111200
     32 H13        -1.5590    2.1710    1.9230 h1        1 0KZ      0.080700
     33 H14         0.0460    0.7690    2.8570 hc        1 0KZ      0.048700
     34 H15        -1.0850   -0.5800    2.4470 hc        1 0KZ      0.048700
     35 H16         0.2140   -1.2670    0.5830 h1        1 0KZ      0.020700
     36 H17         2.4870   -0.3860    1.0160 ho        1 0KZ      0.476000
     37 OP3         5.0060    0.5780   -1.6200 o         1 0KZ     -0.925833
@<TRIPOS>BOND
     1    1    2 1   
     2    1   16 1   
     3    1   17 2   
     4    2    3 1   
     5    2   22 1   
     6    3    4 1   
     7    3   18 2   
     8    4    5 2   
     9    4    6 1   
    10    5   16 1   
    11    5   23 1   
    12    6   24 1   
    13    6   25 1   
    14    6   26 1   
    15    7    8 1   
    16    7    9 1   
    17    7   10 1   
    18    7   37 1   
    19   10   11 1   
    20   11   12 1   
    21   11   27 1   
    22   11   28 1   
    23   12   13 1   
    24   12   14 1   
    25   12   20 1   
    26   13   14 1   
    27   13   15 1   
    28   13   29 1   
    29   14   30 1   
    30   14   31 1   
    31   15   16 1   
    32   15   19 1   
    33   15   32 1   
    34   19   20 1   
    35   19   33 1   
    36   19   34 1   
    37   20   21 1   
    38   20   35 1   
    39   21   36 1   
@<TRIPOS>SUBSTRUCTURE
     1 0KZ         1 TEMP              0 ****  ****    0 ROOT
