@<TRIPOS>MOLECULE
0L0
   61    55     1     0     0
SMALL
bcc


@<TRIPOS>ATOM
      1 N44        -1.3220   -0.0800    2.5740 n3        1 0L0     -0.084000
      2 C33        -2.6020    0.9960   -1.7310 c3        1 0L0     -0.394000
      3 C7         -0.8410    0.5880   -6.5670 c3        1 0L0     -0.145000
      4 C6         -4.1670    0.7980   -3.7360 c1        1 0L0     -0.177000
      5 C13         5.2370   -2.2320    1.4650 c1        1 0L0     -0.137000
      6 C8         -5.5660    0.9190   -3.0170 c2        1 0L0      0.074000
      7 C16         6.2380   -3.0920    3.8890 c1        1 0L0     -0.138000
      8 C19         2.8520    1.2600    5.7290 c3        1 0L0     -0.071000
      9 C26         0.2110   -0.0800    2.5660 c1        1 0L0     -0.081000
     10 C1         -2.8790    0.8070   -3.2680 c2        1 0L0      0.041000
     11 C2         -1.8240    0.7200   -4.1490 c2        1 0L0     -0.051000
     12 C3         -2.0690    0.6220   -5.5470 c1        1 0L0     -0.050000
     13 N4         -3.3470    0.6130   -6.0150 n1        1 0L0     -0.197000
     14 C5         -4.4140    0.7000   -5.1230 c2        1 0L0     -0.049000
     15 O9         -3.2780   -0.2970    1.3370 o         1 0L0     -0.391000
     16 N10        -2.0570   -0.2120   -1.1910 n3        1 0L0      0.009000
     17 C11         4.5420   -0.0780    2.4710 c3        1 0L0     -0.076000
     18 C12         5.1000   -1.4410    2.5910 c2        1 0L0     -0.041000
     19 C14         5.8750   -3.4520    1.5560 c1        1 0L0     -0.146500
     20 C15         6.3750   -3.8810    2.7700 c1        1 0L0     -0.146500
     21 C17         5.6010   -1.8730    3.8000 c2        1 0L0     -0.110000
     22 O18         3.1040    0.0480    5.0150 os        1 0L0     -0.235000
     23 C22         2.3360   -0.0860    3.7750 c1        1 0L0     -0.109000
     24 C23         3.0270   -0.1380    2.5740 c1        1 0L0     -0.043000
     25 C24         2.3140   -0.1630    1.3430 c1        1 0L0     -0.204000
     26 C25         0.9150   -0.0560    3.7780 c1        1 0L0     -0.083000
     27 C27         0.9140   -0.1340    1.3440 c1        1 0L0      0.083000
     28 C28         0.1440   -0.1880    0.0250 c2        1 0L0     -0.359000
     29 C29        -1.3310   -0.1820    0.0380 c1        1 0L0     -0.061000
     30 C30        -2.0560   -0.2150    1.3250 c1        1 0L0      0.288000
     31 O31        -1.9870    0.2170    3.7090 oh        1 0L0     -0.251000
     32 O45        -0.4980    0.8880   -3.6790 oh        1 0L0     -0.285000
     33 P46        -7.6500    2.4140   -3.0830 p3        1 0L0      2.534000
     34 O47        -6.4220    1.6980   -3.7960 os        1 0L0     -0.743000
     35 O48        -7.1410    3.4270   -2.0960 o         1 0L0     -0.996000
     36 O49        -8.5080    3.1170   -4.1370 os        1 0L0     -1.135000
     37 O50        -8.5010    1.3600   -2.3460 o         1 0L0     -0.996000
     38 H1         -3.4570    1.2150   -1.2640 h1        1 0L0      0.184000
     39 H2         -1.9720    1.7170   -1.6040 h1        1 0L0      0.184000
     40 H3         -0.1890   -0.1420   -6.2860 hc        1 0L0      0.070000
     41 H4         -0.3810    1.4600   -6.5550 hc        1 0L0      0.070000
     42 H5         -1.1790    0.3980   -7.5020 hc        1 0L0      0.070000
     43 H6          4.7590   -1.9840    0.6240 ha        1 0L0      0.124000
     44 H7         -5.4460    1.3470   -2.1240 h4        1 0L0      0.079000
     45 H8         -5.9370    0.0590   -2.9050 h4        1 0L0      0.079000
     46 H9          6.5900   -3.3950    4.7460 ha        1 0L0      0.118000
     47 H10         3.5270    1.3560    6.4820 h1        1 0L0      0.059667
     48 H11         1.9670    1.2380    6.0950 h1        1 0L0      0.059667
     49 H12         2.9310    2.0020    5.1340 h1        1 0L0      0.059667
     50 H13        -5.3210    0.5900   -5.4430 h4        1 0L0      0.177000
     51 H14        -2.2220   -1.0360   -1.6190 hn        1 0L0      0.248000
     52 H15         4.8940    0.4810    3.1860 hc        1 0L0      0.085000
     53 H16         4.7940    0.3030    1.6020 hc        1 0L0      0.085000
     54 H17         5.9780   -4.0400    0.7240 ha        1 0L0      0.112000
     55 H18         6.8380   -4.7690    2.8340 ha        1 0L0      0.112000
     56 H19         5.5030   -1.3020    4.6140 ha        1 0L0      0.168000
     57 H20         2.7890   -0.2270    0.5150 ha        1 0L0      0.118000
     58 H21         0.4350    0.0360    4.6130 ha        1 0L0      0.129000
     59 H22         0.6170   -0.3140   -0.8050 ha        1 0L0      0.126000
     60 H23        -1.5440   -0.0700    4.3830 ho        1 0L0      0.223000
     61 H24        -0.3000    1.7670   -3.6410 ho        1 0L0      0.213000
@<TRIPOS>BOND
     1    1    9 1   
     2    1   30 1   
     3    1   31 1   
     4    2   10 1   
     5    2   16 1   
     6    2   38 1   
     7    2   39 1   
     8    3   12 1   
     9    3   40 1   
    10    3   41 1   
    11    3   42 1   
    12    4   10 1   
    13    4   14 1   
    14    5   18 1   
    15    5   43 1   
    16    6   34 1   
    17    6   44 1   
    18    6   45 1   
    19    7   21 1   
    20    7   46 1   
    21    8   22 1   
    22    8   47 1   
    23    8   48 1   
    24    8   49 1   
    25    9   27 1   
    26   10   11 1   
    27   11   12 1   
    28   11   32 1   
    29   13   14 1   
    30   14   50 1   
    31   15   30 1   
    32   16   29 1   
    33   16   51 1   
    34   17   18 1   
    35   17   24 1   
    36   17   52 1   
    37   17   53 1   
    38   18   21 1   
    39   19   20 1   
    40   19   54 1   
    41   20   55 1   
    42   21   56 1   
    43   22   23 1   
    44   23   26 1   
    45   24   25 1   
    46   25   57 1   
    47   26   58 1   
    48   27   28 1   
    49   28   29 1   
    50   28   59 1   
    51   31   60 1   
    52   32   61 1   
    53   33   34 1   
    54   33   35 1   
    55   33   37 1   
@<TRIPOS>SUBSTRUCTURE
     1 0L0         1 TEMP              0 ****  ****    0 ROOT
