@<TRIPOS>MOLECULE
0L0
   61    64     1     0     0
SMALL
bcc


@<TRIPOS>ATOM
      1 N44         0.1300    1.0010   -0.0930 n         1 0L0     -0.212500
      2 C33        -2.2590   -0.2940   -3.5310 c3        1 0L0      0.216100
      3 C7         -5.5440    1.6430   -6.8070 c3        1 0L0     -0.116400
      4 C6         -2.6920   -1.3740   -5.7800 ca        1 0L0     -0.116600
      5 C13         4.8460   -3.4960   -0.6190 ca        1 0L0     -0.121500
      6 C8         -1.7420   -2.5300   -5.5370 c3        1 0L0      0.263700
      7 C16         6.2380   -4.2380    1.6810 ca        1 0L0     -0.135000
      8 C19         4.0780    0.9670    3.1230 c3        1 0L0      0.119700
      9 C26         1.4820    0.5970   -0.1430 ca        1 0L0      0.074600
     10 C1         -2.9500   -0.3520   -4.8620 ca        1 0L0     -0.127300
     11 C2         -3.8640    0.6580   -5.2310 ca        1 0L0      0.009800
     12 C3         -4.5400    0.5900   -6.4750 ca        1 0L0      0.325600
     13 N4         -4.2890   -0.4090   -7.3600 nb        1 0L0     -0.679000
     14 C5         -3.3850   -1.3340   -7.0170 ca        1 0L0      0.373200
     15 O9         -1.7720    1.6380   -1.1590 o         1 0L0     -0.665500
     16 N10        -0.9610    0.3570   -3.6380 nh        1 0L0     -0.711000
     17 C11         5.4560   -1.0830   -0.2690 c3        1 0L0      0.022200
     18 C12         5.4880   -2.5160    0.1500 ca        1 0L0     -0.066300
     19 C14         4.9020   -4.8350   -0.2380 ca        1 0L0     -0.135000
     20 C15         5.6000   -5.2090    0.9110 ca        1 0L0     -0.148000
     21 C17         6.1820   -2.8970    1.3040 ca        1 0L0     -0.121500
     22 O18         4.5710    0.4100    1.9140 os        1 0L0     -0.337900
     23 C22         3.6400    0.2450    0.8960 ca        1 0L0      0.126100
     24 C23         4.0890   -0.4920   -0.2260 ca        1 0L0     -0.133300
     25 C24         3.2280   -0.6350   -1.3060 ca        1 0L0     -0.052000
     26 C25         2.3590    0.7870    0.9480 ca        1 0L0     -0.228000
     27 C27         1.9310   -0.0970   -1.2980 ca        1 0L0     -0.087800
     28 C28         1.0700   -0.2460   -2.4360 cc        1 0L0     -0.107200
     29 C29        -0.1790    0.3140   -2.4680 cd        1 0L0      0.025800
     30 C30        -0.6770    1.0520   -1.2800 c         1 0L0      0.675700
     31 O31        -0.1400    1.9150    0.8480 oh        1 0L0     -0.429100
     32 O45        -4.1670    1.7310   -4.4190 oh        1 0L0     -0.533100
     33 P46         0.8240   -2.6550   -5.9870 p5        1 0L0      1.338900
     34 O47        -0.8270   -2.6480   -6.5480 os        1 0L0     -0.551200
     35 O48         0.8600   -3.9110   -5.1690 o         1 0L0     -0.927833
     36 O49         1.6150   -2.5920   -7.2530 o         1 0L0     -0.927833
     37 O50         0.8160   -1.4030   -5.1220 o         1 0L0     -0.927833
     38 H1         -2.8840    0.2810   -2.7860 h1        1 0L0      0.038200
     39 H2         -2.1750   -1.3470   -3.1280 h1        1 0L0      0.038200
     40 H3         -5.1860    2.6310   -6.4240 hc        1 0L0      0.029367
     41 H4         -5.7210    1.7220   -7.9070 hc        1 0L0      0.029367
     42 H5         -6.5150    1.4050   -6.3060 hc        1 0L0      0.029367
     43 H6          4.2850   -3.2040   -1.5220 ha        1 0L0      0.143500
     44 H7         -2.4060   -3.4500   -5.4980 h1        1 0L0      0.006200
     45 H8         -1.2270   -2.4200   -4.5410 h1        1 0L0      0.006200
     46 H9          6.7840   -4.5280    2.5890 ha        1 0L0      0.126000
     47 H10         4.9500    0.8990    3.8210 h1        1 0L0      0.033367
     48 H11         3.2140    0.3770    3.5150 h1        1 0L0      0.033367
     49 H12         3.7810    2.0340    2.9720 h1        1 0L0      0.033367
     50 H13        -3.1470   -2.1040   -7.7750 h4        1 0L0      0.039100
     51 H14        -0.4260   -0.0270   -4.4310 hn        1 0L0      0.494800
     52 H15         6.1420   -0.4810    0.3870 hc        1 0L0      0.054200
     53 H16         5.8510   -1.0130   -1.3220 hc        1 0L0      0.054200
     54 H17         4.3880   -5.5940   -0.8480 ha        1 0L0      0.126000
     55 H18         5.6420   -6.2660    1.2090 ha        1 0L0      0.115000
     56 H19         6.6770   -2.1320    1.9200 ha        1 0L0      0.143500
     57 H20         3.5520   -1.1860   -2.2080 ha        1 0L0      0.168000
     58 H21         2.0140    1.3580    1.8200 ha        1 0L0      0.140000
     59 H22         1.4280   -0.8260   -3.3360 ha        1 0L0      0.279000
     60 H23        -1.1050    1.8440    1.0040 ho        1 0L0      0.430000
     61 H24        -3.4000    1.8870   -3.8440 ho        1 0L0      0.437000
@<TRIPOS>BOND
     1    1    9 1   
     2    1   30 1   
     3    1   31 1   
     4    2   10 1   
     5    2   16 1   
     6    2   38 1   
     7    2   39 1   
     8    3   12 1   
     9    3   40 1   
    10    3   41 1   
    11    3   42 1   
    12    4    6 1   
    13    4   10 ar  
    14    4   14 ar  
    15    5   18 ar  
    16    5   19 ar  
    17    5   43 1   
    18    6   34 1   
    19    6   44 1   
    20    6   45 1   
    21    7   20 ar  
    22    7   21 ar  
    23    7   46 1   
    24    8   22 1   
    25    8   47 1   
    26    8   48 1   
    27    8   49 1   
    28    9   26 ar  
    29    9   27 ar  
    30   10   11 ar  
    31   11   12 ar  
    32   11   32 1   
    33   12   13 ar  
    34   13   14 ar  
    35   14   50 1   
    36   15   30 2   
    37   16   29 1   
    38   16   51 1   
    39   17   18 1   
    40   17   24 1   
    41   17   52 1   
    42   17   53 1   
    43   18   21 ar  
    44   19   20 ar  
    45   19   54 1   
    46   20   55 1   
    47   21   56 1   
    48   22   23 1   
    49   23   24 ar  
    50   23   26 ar  
    51   24   25 ar  
    52   25   27 ar  
    53   25   57 1   
    54   26   58 1   
    55   27   28 1   
    56   28   29 2   
    57   28   59 1   
    58   29   30 1   
    59   31   60 1   
    60   32   61 1   
    61   33   34 1   
    62   33   35 1   
    63   33   36 1   
    64   33   37 1   
@<TRIPOS>SUBSTRUCTURE
     1 0L0         1 TEMP              0 ****  ****    0 ROOT
