@<TRIPOS>MOLECULE
0L0
   62    65     1     0     0
SMALL
bcc


@<TRIPOS>ATOM
      1 N44         0.0000    0.0000    0.0000 n         1 0L0      0.230500
      2 C33        -2.2130   -0.0010   -3.5840 c3        1 0L0      0.018100
      3 C7         -3.8070    2.4360   -7.6780 c3        1 0L0     -0.028400
      4 C6         -3.0180   -1.1920   -5.6490 ca        1 0L0     -0.148600
      5 C13         6.4040   -2.1730   -1.0260 ca        1 0L0     -0.095000
      6 C8         -2.7480   -2.5110   -4.9750 c3        1 0L0      0.335700
      7 C16         6.8660   -3.2570    1.4750 ca        1 0L0     -0.101500
      8 C19         3.3810    0.0000    3.5600 c3        1 0L0      0.240700
      9 C26         1.3800    0.0000    0.0000 ca        1 0L0     -0.055400
     10 C1         -2.7600   -0.0010   -4.9880 ca        1 0L0     -0.199300
     11 C2         -3.0180    1.1930   -5.6530 ca        1 0L0      0.004800
     12 C3         -3.5220    1.1510   -6.9440 ca        1 0L0      0.316600
     13 N4         -3.7550   -0.0040   -7.5380 nb        1 0L0     -0.556000
     14 C5         -3.5200   -1.1530   -6.9360 ca        1 0L0      0.428200
     15 O9         -1.9130   -0.0060   -1.1170 o         1 0L0     -0.733500
     16 N10        -0.7480   -0.0010   -3.6310 ny        1 0L0      0.327200
     17 C11         5.6700   -0.0030   -0.0180 c3        1 0L0      0.099200
     18 C12         6.1700   -1.4180    0.1090 ca        1 0L0     -0.084300
     19 C14         6.8630   -3.4720   -0.9100 ca        1 0L0     -0.101500
     20 C15         7.0950   -4.0140    0.3410 ca        1 0L0     -0.106000
     21 C17         6.3960   -1.9640    1.3590 ca        1 0L0     -0.095000
     22 O18         4.1520   -0.0010    2.3570 os        1 0L0     -0.307900
     23 C22         3.4670   -0.0010    1.1840 ca        1 0L0      0.157100
     24 C23         4.1630   -0.0020   -0.0220 ca        1 0L0     -0.122300
     25 C24         3.4890   -0.0010   -1.2090 ca        1 0L0     -0.054000
     26 C25         2.0830    0.0000    1.1990 ca        1 0L0     -0.241000
     27 C27         2.0890   -0.0020   -1.2160 ca        1 0L0     -0.096800
     28 C28         1.3510   -0.0010   -2.4800 cc        1 0L0     -0.050200
     29 C29        -0.0100   -0.0000   -2.4420 cd        1 0L0     -0.552200
     30 C30        -0.6960   -0.0010   -1.1510 c         1 0L0      0.655700
     31 O31        -0.6960   -0.0060    1.2330 oh        1 0L0     -0.456100
     32 O45        -2.7810    2.3850   -5.0450 oh        1 0L0     -0.510100
     33 P46        -2.9300   -5.1320   -5.4690 p5        1 0L0      0.758900
     34 O47        -3.0900   -3.5780   -5.8620 os        1 0L0     -0.481200
     35 O48        -3.5290   -6.0480   -6.6490 o         1 0L0     -0.582167
     36 O49        -1.3700   -5.4740   -5.2610 o         1 0L0     -0.582167
     37 O50        -3.6650   -5.4010   -4.2130 o         1 0L0     -0.582167
     38 H1         -2.5570   -0.8850   -3.0620 hx        1 0L0      0.099700
     39 H2         -2.5570    0.8840   -3.0620 hx        1 0L0      0.099700
     40 H3         -4.0580    2.2160   -8.7080 hc        1 0L0      0.009033
     41 H4         -2.9300    3.0710   -7.6470 hc        1 0L0      0.009033
     42 H5         -4.6380    2.9450   -7.2050 hc        1 0L0      0.009033
     43 H6          6.2860   -1.7260   -2.0060 ha        1 0L0      0.108000
     44 H7         -3.3460   -2.5860   -4.0740 h1        1 0L0     -0.008800
     45 H8         -1.6980   -2.5780   -4.7180 h1        1 0L0     -0.008800
     46 H9          7.0570   -3.6790    2.4540 ha        1 0L0      0.100000
     47 H10         2.7690    0.8930    3.5950 h1        1 0L0     -0.002967
     48 H11         2.7440   -0.8750    3.5810 h1        1 0L0     -0.002967
     49 H12         4.0460   -0.0160    4.4150 h1        1 0L0     -0.002967
     50 H13        -3.7240   -2.0800   -7.4580 h4        1 0L0      0.040100
     51 H14        -0.4690    0.8060   -4.1530 hn        1 0L0      0.190800
     52 H15         6.0340    0.4280   -0.9430 hc        1 0L0      0.020700
     53 H16         6.0290    0.5840    0.8190 hc        1 0L0      0.020700
     54 H17         7.0400   -4.0660   -1.7980 ha        1 0L0      0.100000
     55 H18         7.4600   -5.0300    0.4310 ha        1 0L0      0.099000
     56 H19         6.2140   -1.3720    2.2490 ha        1 0L0      0.108000
     57 H20         4.0360    0.0750   -2.1420 ha        1 0L0      0.110000
     58 H21         1.5520    0.0930    2.1380 ha        1 0L0      0.137000
     59 H22         1.8670    0.2080   -3.4090 ha        1 0L0      0.105000
     60 H23        -1.0680   -0.8590    1.3800 ho        1 0L0      0.413000
     61 H24        -3.5720    2.6910   -4.6330 ho        1 0L0      0.408000
     62 H102       -0.4690   -0.8090   -4.1520 hn        1 0L0      0.190800
@<TRIPOS>BOND
     1    1    9 1   
     2    1   30 1   
     3    1   31 1   
     4    2   10 1   
     5    2   16 1   
     6    2   38 1   
     7    2   39 1   
     8    3   12 1   
     9    3   40 1   
    10    3   41 1   
    11    3   42 1   
    12    4    6 1   
    13    4   10 ar  
    14    4   14 ar  
    15    5   18 ar  
    16    5   19 ar  
    17    5   43 1   
    18    6   34 1   
    19    6   44 1   
    20    6   45 1   
    21    7   20 ar  
    22    7   21 ar  
    23    7   46 1   
    24    8   22 1   
    25    8   47 1   
    26    8   48 1   
    27    8   49 1   
    28    9   26 ar  
    29    9   27 ar  
    30   10   11 ar  
    31   11   12 ar  
    32   11   32 1   
    33   12   13 ar  
    34   13   14 ar  
    35   14   50 1   
    36   15   30 2   
    37   16   29 1   
    38   16   51 1   
    39   16   62 1   
    40   17   18 1   
    41   17   24 1   
    42   17   52 1   
    43   17   53 1   
    44   18   21 ar  
    45   19   20 ar  
    46   19   54 1   
    47   20   55 1   
    48   21   56 1   
    49   22   23 1   
    50   23   24 ar  
    51   23   26 ar  
    52   24   25 ar  
    53   25   27 ar  
    54   25   57 1   
    55   26   58 1   
    56   27   28 1   
    57   28   29 2   
    58   28   59 1   
    59   29   30 1   
    60   31   60 1   
    61   32   61 1   
    62   33   34 1   
    63   33   35 1   
    64   33   36 1   
    65   33   37 1   
@<TRIPOS>SUBSTRUCTURE
     1 0L0         1 TEMP              0 ****  ****    0 ROOT
