@<TRIPOS>MOLECULE
0L0
   61    64     1     0     0
SMALL
bcc


@<TRIPOS>ATOM
      1 N44         1.2360    1.0460    2.2670 n         1 0L0     -0.169900
      2 C33        -2.4370    0.4480    0.0750 c3        1 0L0      0.180100
      3 C7         -4.7320    2.0030   -4.1980 c3        1 0L0     -0.117400
      4 C6         -4.9050    0.3790   -0.2640 ca        1 0L0     -0.167600
      5 C13         5.9420   -0.7290   -1.5980 ca        1 0L0     -0.130000
      6 C8         -5.0380   -0.2200    1.1060 c3        1 0L0      0.216700
      7 C16         8.6780   -0.7370   -2.1370 ca        1 0L0     -0.138000
      8 C19         6.6550    0.3680    2.6070 c3        1 0L0      0.117700
      9 C26         2.4700    1.0970    1.5390 ca        1 0L0     -0.077000
     10 C1         -3.6390    0.6860   -0.8030 ca        1 0L0     -0.113300
     11 C2         -3.6060    1.2130   -2.1100 ca        1 0L0      0.042800
     12 C3         -4.8240    1.4370   -2.8200 ca        1 0L0      0.327600
     13 N4         -6.0290    1.1550   -2.2800 nb        1 0L0     -0.673000
     14 C5         -6.0530    0.6400   -1.0410 ca        1 0L0      0.362200
     15 O9         -0.8290    0.0610    2.2970 o         1 0L0     -0.644500
     16 N10        -1.1730    0.6730   -0.5540 n2        1 0L0     -0.744900
     17 C11         6.0980    1.6410   -0.7280 c3        1 0L0      0.010200
     18 C12         6.7070    0.4050   -1.2990 ca        1 0L0     -0.050300
     19 C14         6.5420   -1.8550   -2.1610 ca        1 0L0     -0.138000
     20 C15         7.9090   -1.8620   -2.4330 ca        1 0L0     -0.153000
     21 C17         8.0820    0.3890   -1.5740 ca        1 0L0     -0.130000
     22 O18         6.0730    1.5810    2.1420 os        1 0L0     -0.348900
     23 C22         4.8730    1.3760    1.4580 ca        1 0L0     -0.047900
     24 C23         4.8460    1.4250    0.0520 ca        1 0L0     -0.054300
     25 C24         3.6250    1.3180   -0.5970 ca        1 0L0     -0.223000
     26 C25         3.6960    1.2130    2.1960 ca        1 0L0     -0.085000
     27 C27         2.4030    1.1280    0.1030 ca        1 0L0      0.097000
     28 C28         1.1980    0.9800   -0.5760 cc        1 0L0     -0.495600
     29 C29        -0.0430    0.7490    0.0950 cc        1 0L0      0.557600
     30 C30         0.0800    0.5410    1.5910 c         1 0L0      0.512200
     31 O31         1.4090    0.5480    3.5060 oh        1 0L0     -0.446100
     32 O45        -2.4810    1.5570   -2.8130 oh        1 0L0     -0.540100
     33 P46        -7.0700   -1.6410    1.9820 p5        1 0L0      1.427800
     34 O47        -6.3500   -0.2070    1.5720 os        1 0L0     -0.580200
     35 O48        -6.0560   -2.7130    1.8770 o         1 0L0     -0.836500
     36 O49        -7.9670   -1.3910    3.1240 o         1 0L0     -0.836500
     37 O50        -7.9360   -1.8190    0.6060 oh        1 0L0     -0.779400
     38 H1         -2.5670    1.1020    0.9940 h1        1 0L0      0.056200
     39 H2         -2.4940   -0.6220    0.4500 h1        1 0L0      0.056200
     40 H3         -4.1080    1.3250   -4.8310 hc        1 0L0      0.032700
     41 H4         -5.7330    2.1300   -4.6750 hc        1 0L0      0.032700
     42 H5         -4.2220    2.9980   -4.1520 hc        1 0L0      0.032700
     43 H6          4.8610   -0.7240   -1.3770 ha        1 0L0      0.145000
     44 H7         -4.6360   -1.2770    1.0900 h1        1 0L0      0.055200
     45 H8         -4.4150    0.3990    1.8190 h1        1 0L0      0.055200
     46 H9          9.7570   -0.7390   -2.3470 ha        1 0L0      0.118500
     47 H10         5.9480   -0.1730    3.2820 h1        1 0L0      0.021367
     48 H11         6.9350   -0.2870    1.7460 h1        1 0L0      0.021367
     49 H12         7.5660    0.6920    3.1680 h1        1 0L0      0.021367
     50 H13        -7.0580    0.4200   -0.6320 h4        1 0L0      0.048100
     51 H14        -7.4550   -2.3060   -0.0530 ho        1 0L0      0.421000
     52 H15         6.8530    2.1480   -0.0640 hc        1 0L0      0.053700
     53 H16         5.8800    2.3410   -1.5830 hc        1 0L0      0.053700
     54 H17         5.9300   -2.7400   -2.3880 ha        1 0L0      0.118500
     55 H18         8.3790   -2.7510   -2.8760 ha        1 0L0      0.113000
     56 H19         8.6930    1.2720   -1.3370 ha        1 0L0      0.145000
     57 H20         3.5820    1.3790   -1.6940 ha        1 0L0      0.116000
     58 H21         3.7510    1.1790    3.2950 ha        1 0L0      0.131000
     59 H22         1.1890    1.0520   -1.6700 ha        1 0L0      0.125000
     60 H23         0.5720    0.7350    3.9770 ho        1 0L0      0.424000
     61 H24        -1.6920    1.3280   -2.2800 ho        1 0L0      0.472000
@<TRIPOS>BOND
     1    1    9 2   
     2    1   30 1   
     3    1   31 1   
     4    2   10 1   
     5    2   16 1   
     6    2   38 1   
     7    2   39 1   
     8    3   12 1   
     9    3   40 1   
    10    3   41 1   
    11    3   42 1   
    12    4    6 1   
    13    4   10 ar  
    14    4   14 ar  
    15    5   18 ar  
    16    5   19 ar  
    17    5   43 1   
    18    6   34 1   
    19    6   44 1   
    20    6   45 1   
    21    7   20 ar  
    22    7   21 ar  
    23    7   46 1   
    24    8   22 1   
    25    8   47 1   
    26    8   48 1   
    27    8   49 1   
    28    9   26 ar  
    29    9   27 ar  
    30   10   11 ar  
    31   11   12 ar  
    32   11   32 1   
    33   12   13 ar  
    34   13   14 ar  
    35   14   50 1   
    36   15   30 2   
    37   16   29 2   
    38   17   18 1   
    39   17   24 1   
    40   17   52 1   
    41   17   53 1   
    42   18   21 ar  
    43   19   20 ar  
    44   19   54 1   
    45   20   55 1   
    46   21   56 1   
    47   22   23 1   
    48   23   24 ar  
    49   23   26 ar  
    50   24   25 ar  
    51   25   27 ar  
    52   25   57 1   
    53   26   58 1   
    54   27   28 2   
    55   28   29 1   
    56   28   59 1   
    57   29   30 1   
    58   31   60 1   
    59   32   61 1   
    60   33   34 1   
    61   33   35 1   
    62   33   36 1   
    63   33   37 1   
    64   37   51 1   
@<TRIPOS>SUBSTRUCTURE
     1 0L0         1 TEMP              0 ****  ****    0 ROOT
