@<TRIPOS>MOLECULE
0L1
   18    17     1     0     0
SMALL
bcc


@<TRIPOS>ATOM
      1 O1          0.0120    0.0000   -0.0750 o         1 0L1     -0.874300
      2 C2          1.2790    0.0000    0.0400 c         1 0L1      0.901600
      3 O2          1.8500    0.0000    1.1710 o         1 0L1     -0.874300
      4 C3          2.1030    0.0000   -1.2510 c3        1 0L1     -0.178400
      5 C4          3.5970    0.0000   -1.0340 c3        1 0L1     -0.064400
      6 C5          4.3670   -0.0000   -2.3420 c3        1 0L1     -0.064400
      7 C6          5.8610   -0.0000   -2.1250 c3        1 0L1     -0.178400
      8 C7          6.6850   -0.0000   -3.4160 c         1 0L1      0.901600
      9 O4          6.1130   -0.0000   -4.5460 o         1 0L1     -0.874300
     10 O3          7.9510   -0.0000   -3.3000 o         1 0L1     -0.874300
     11 H2          1.8060    0.9010   -1.8470 hc        1 0L1      0.016700
     12 H3          1.8060   -0.9010   -1.8470 hc        1 0L1      0.016700
     13 H4          3.8790    0.8980   -0.4250 hc        1 0L1      0.028700
     14 H5          3.8790   -0.8980   -0.4250 hc        1 0L1      0.028700
     15 H6          4.0850    0.8980   -2.9510 hc        1 0L1      0.028700
     16 H7          4.0850   -0.8980   -2.9510 hc        1 0L1      0.028700
     17 H8          6.1570    0.9010   -1.5280 hc        1 0L1      0.016700
     18 H9          6.1570   -0.9010   -1.5280 hc        1 0L1      0.016700
@<TRIPOS>BOND
     1    1    2 1   
     2    2    3 1   
     3    2    4 1   
     4    4    5 1   
     5    4   11 1   
     6    4   12 1   
     7    5    6 1   
     8    5   13 1   
     9    5   14 1   
    10    6    7 1   
    11    6   15 1   
    12    6   16 1   
    13    7    8 1   
    14    7   17 1   
    15    7   18 1   
    16    8    9 1   
    17    8   10 1   
@<TRIPOS>SUBSTRUCTURE
     1 0L1         1 TEMP              0 ****  ****    0 ROOT
