@<TRIPOS>MOLECULE
0L1
   18    17     1     0     0
SMALL
bcc


@<TRIPOS>ATOM
      1 O1         -4.2180   -0.7520   -0.0000 o         1 0L1     -0.874300
      2 C2         -3.2080    0.0210    0.0000 c         1 0L1      0.901600
      3 O2         -3.3270    1.2820    0.0000 o         1 0L1     -0.874300
      4 C3         -1.8230   -0.6320   -0.0000 c3        1 0L1     -0.178400
      5 C4         -0.6740    0.3480   -0.0000 c3        1 0L1     -0.064400
      6 C5          0.6740   -0.3480   -0.0000 c3        1 0L1     -0.064400
      7 C6          1.8230    0.6320   -0.0000 c3        1 0L1     -0.178400
      8 C7          3.2080   -0.0210    0.0000 c         1 0L1      0.901600
      9 O4          3.3270   -1.2820    0.0000 o         1 0L1     -0.874300
     10 O3          4.2180    0.7520    0.0000 o         1 0L1     -0.874300
     11 H2         -1.7560   -1.2950    0.9010 hc        1 0L1      0.016700
     12 H3         -1.7560   -1.2950   -0.9010 hc        1 0L1      0.016700
     13 H4         -0.7600    1.0140   -0.8980 hc        1 0L1      0.028700
     14 H5         -0.7600    1.0140    0.8980 hc        1 0L1      0.028700
     15 H6          0.7600   -1.0140    0.8980 hc        1 0L1      0.028700
     16 H7          0.7600   -1.0140   -0.8980 hc        1 0L1      0.028700
     17 H8          1.7560    1.2950   -0.9010 hc        1 0L1      0.016700
     18 H9          1.7560    1.2950    0.9010 hc        1 0L1      0.016700
@<TRIPOS>BOND
     1    1    2 1   
     2    2    3 1   
     3    2    4 1   
     4    4    5 1   
     5    4   11 1   
     6    4   12 1   
     7    5    6 1   
     8    5   13 1   
     9    5   14 1   
    10    6    7 1   
    11    6   15 1   
    12    6   16 1   
    13    7    8 1   
    14    7   17 1   
    15    7   18 1   
    16    8    9 1   
    17    8   10 1   
@<TRIPOS>SUBSTRUCTURE
     1 0L1         1 TEMP              0 ****  ****    0 ROOT
