@<TRIPOS>MOLECULE
0L1
   18    16     1     0     0
SMALL
bcc


@<TRIPOS>ATOM
      1 O1         -2.6470    1.4260    2.4010 o         1 0L1     -0.608500
      2 C2         -1.3880    1.4260    2.4010 c1        1 0L1      0.322000
      3 O2         -0.7590    1.4260    3.4910 o         1 0L1     -0.608500
      4 C3         -0.6320    1.4260    1.0910 c2        1 0L1     -0.208000
      5 C4         -0.3800    0.0000    0.6540 c3        1 0L1     -0.143000
      6 C5          0.3800   -0.0000   -0.6540 c3        1 0L1     -0.143000
      7 C6          0.6280   -1.4260   -1.0930 c3        1 0L1     -0.208000
      8 C7          1.3920   -1.4260   -2.3990 c2        1 0L1      0.322000
      9 O4          2.6510   -1.4320   -2.3920 o         1 0L1     -0.608500
     10 O3          0.7680   -1.4210   -3.4930 o         1 0L1     -0.608500
     11 H2         -1.1590    1.8870    0.4110 ha        1 0L1      0.055000
     12 H3          0.2210    1.8860    1.2080 ha        1 0L1      0.055000
     13 H4          0.1450   -0.4610    1.3350 hc        1 0L1      0.068000
     14 H5         -1.2330   -0.4590    0.5350 hc        1 0L1      0.068000
     15 H6          1.2340    0.4570   -0.5340 hc        1 0L1      0.068000
     16 H7         -0.1440    0.4630   -1.3350 hc        1 0L1      0.068000
     17 H8         -0.2260   -1.8830   -1.2150 hc        1 0L1      0.055000
     18 H9          1.1500   -1.8900   -0.4110 hc        1 0L1      0.055000
@<TRIPOS>BOND
     1    1    2 1   
     2    2    3 1   
     3    4    5 1   
     4    4   11 1   
     5    4   12 1   
     6    5    6 1   
     7    5   13 1   
     8    5   14 1   
     9    6    7 1   
    10    6   15 1   
    11    6   16 1   
    12    7    8 1   
    13    7   17 1   
    14    7   18 1   
    15    8    9 1   
    16    8   10 1   
@<TRIPOS>SUBSTRUCTURE
     1 0L1         1 TEMP              0 ****  ****    0 ROOT
