@<TRIPOS>MOLECULE
0L1
   18    17     1     0     0
SMALL
bcc


@<TRIPOS>ATOM
      1 O1          0.2850   -0.6550    0.0080 o         1 0L1     -0.873300
      2 C2          1.3110    0.0920    0.0590 c         1 0L1      0.902600
      3 O2          1.6520    0.7010    1.1170 o         1 0L1     -0.873300
      4 C3          2.1310    0.2900   -1.2210 c3        1 0L1     -0.179400
      5 C4          3.5720   -0.1380   -1.0640 c3        1 0L1     -0.064400
      6 C5          4.3910    0.1380   -2.3120 c3        1 0L1     -0.064400
      7 C6          5.8330   -0.2900   -2.1550 c3        1 0L1     -0.179400
      8 C7          6.6520   -0.0920   -3.4350 c         1 0L1      0.902600
      9 O4          6.3150   -0.7060   -4.4920 o         1 0L1     -0.873300
     10 O3          7.6750    0.6590   -3.3860 o         1 0L1     -0.873300
     11 H2          2.0920    1.3770   -1.4900 hc        1 0L1      0.015200
     12 H3          1.6530   -0.2860   -2.0540 hc        1 0L1      0.015200
     13 H4          4.0180    0.4030   -0.1880 hc        1 0L1      0.028700
     14 H5          3.6110   -1.2340   -0.8290 hc        1 0L1      0.028700
     15 H6          4.3530    1.2330   -2.5470 hc        1 0L1      0.028700
     16 H7          3.9460   -0.4030   -3.1880 hc        1 0L1      0.028700
     17 H8          6.3100    0.2860   -1.3220 hc        1 0L1      0.015200
     18 H9          5.8720   -1.3770   -1.8850 hc        1 0L1      0.015200
@<TRIPOS>BOND
     1    1    2 1   
     2    2    3 1   
     3    2    4 1   
     4    4    5 1   
     5    4   11 1   
     6    4   12 1   
     7    5    6 1   
     8    5   13 1   
     9    5   14 1   
    10    6    7 1   
    11    6   15 1   
    12    6   16 1   
    13    7    8 1   
    14    7   17 1   
    15    7   18 1   
    16    8    9 1   
    17    8   10 1   
@<TRIPOS>SUBSTRUCTURE
     1 0L1         1 TEMP              0 ****  ****    0 ROOT
