@<TRIPOS>MOLECULE
0L3
   87    90     1     0     0
SMALL
bcc


@<TRIPOS>ATOM
      1 O1G         0.0000    0.0000    0.0000 o         1 0L3     -0.467500
      2 PG          1.4790    0.0000    0.0000 p5        1 0L3      1.110500
      3 O3G         2.0160    0.0000    1.5180 o         1 0L3     -0.467500
      4 O2G         2.0160   -1.3140   -0.7600 o         1 0L3     -0.467500
      5 O3B         2.0160    1.3150   -0.7590 os        1 0L3     -0.946000
      6 PB          1.5520    2.1120   -2.0790 p5        1 0L3      1.553000
      7 O1B         1.9950    1.2860   -3.3880 o         1 0L3     -0.509500
      8 O2B         0.0810    2.2680   -2.0690 o         1 0L3     -0.509500
      9 O3A         2.2460    3.5640   -2.1000 os        1 0L3     -0.971000
     10 PA          1.9230    4.9480   -2.8580 p5        1 0L3      1.447000
     11 O2A         1.4900    4.6620   -4.2440 o         1 0L3     -0.666000
     12 O1A         0.7470    5.7240   -2.0780 o         1 0L3     -0.666000
     13 O5'         3.2450    5.8660   -2.8870 os        1 0L3     -0.656000
     14 C5'         3.3100    7.1140   -3.5800 c3        1 0L3      0.009000
     15 C4'         4.7030    7.7210   -3.4050 DU        1 0L3     -0.088000
     16 C3'         4.7600    9.1290   -4.0390 c3        1 0L3      0.104000
     17 O3'         4.5900   10.1360   -3.0400 oh        1 0L3     -0.365000
     18 C2'         6.1750    9.2080   -4.6530 c3        1 0L3     -0.190000
     19 O4'         5.6840    6.9500   -4.1310 os        1 0L3     -0.240000
     20 C1'         6.8070    7.8380   -4.3170 c3        1 0L3      0.014000
     21 N9          7.6450    7.3780   -5.4260 na        1 0L3      0.364000
     22 C4          8.9550    7.7310   -5.6160 c2        1 0L3     -0.127000
     23 N3          9.8100    8.5100   -4.9550 n2        1 0L3     -0.132000
     24 C2         11.0430    8.6690   -5.3840 c2        1 0L3     -0.040000
     25 N1         11.5010    8.0790   -6.4730 n2        1 0L3     -0.191000
     26 C6         10.7220    7.2830   -7.1990 c2        1 0L3      0.100000
     27 N6         11.2050    6.6670   -8.3400 nv        1 0L3     -0.008000
     28 C5          9.4000    7.0840   -6.7820 c2        1 0L3     -0.194000
     29 C8          7.2340    6.5280   -6.4140 c2        1 0L3     -0.179000
     30 C7          8.2560    6.3090   -7.2820 c2        1 0L3      0.001000
     31 C31         8.2280    5.4800   -8.4490 c1        1 0L3     -0.129000
     32 C32         8.1930    4.8150   -9.4160 c1        1 0L3     -0.194000
     33 C33         8.2920    3.7330  -10.5350 c3        1 0L3      0.086000
     34 C34         6.6530    3.1610  -10.5230 c3        1 0L3     -0.108000
     35 C35         6.6770    2.0220  -11.5190 c3        1 0L3     -0.459000
     36 N36         5.2620    1.8880  -12.4180 ny        1 0L3      0.866000
     37 C37         5.2770    0.5930  -12.9630 c2        1 0L3     -0.535000
     38 O38         5.6550   -0.5570  -12.2930 o         1 0L3     -0.675000
     39 C39         4.7760    0.0370  -14.2960 c3        1 0L3      0.046000
     40 C40         4.7310   -1.3200  -14.3930 c3        1 0L3      0.051000
     41 C41         4.4560   -1.5510  -16.0550 c3        1 0L3     -0.254000
     42 C42         4.2240   -3.1500  -16.4040 c3        1 0L3     -0.138000
     43 C43         4.0710   -2.9910  -17.9220 c3        1 0L3      0.001000
     44 C44         4.6270   -4.6720  -18.4990 c3        1 0L3     -0.239000
     45 C45         3.6980   -5.2060  -19.7880 c3        1 0L3     -0.153000
     46 C46         4.6930   -6.0180  -20.4080 c3        1 0L3     -0.067000
     47 C47         3.9410   -6.9070  -21.6000 c3        1 0L3      0.005000
     48 O48         4.6400   -7.3900  -22.6520 oh        1 0L3     -0.266000
     49 H5          3.8940    6.6540   -4.3680 h1        1 0L3      0.133000
     50 H6          3.8000    7.9550   -3.1060 DU        1 0L3      0.197000
     51 H7          4.9690    7.7730   -2.3560 ha        1 0L3      0.064000
     52 H8          4.0080    9.2240   -4.8140 h1        1 0L3      0.064000
     53 H9          4.0140   10.8810   -3.0930 ho        1 0L3      0.207000
     54 H10         6.3170    9.0400   -5.7140 hc        1 0L3      0.071000
     55 H11         6.8340   10.0130   -4.3530 hc        1 0L3      0.071000
     56 H12         7.3850    7.9070   -3.4030 h2        1 0L3      0.077000
     57 H13        11.6330    9.1480   -4.6120 h5        1 0L3      0.123000
     58 H14        11.6040    5.8200   -8.6940 hn        1 0L3      0.043000
     59 H15        11.5680    7.2500   -9.0680 hn        1 0L3      0.043000
     60 H16         6.2780    6.1380   -6.7420 h4        1 0L3      0.185000
     61 H17         8.8730    2.9790  -10.0180 hc        1 0L3      0.070500
     62 H18         8.5410    4.2970  -11.4260 hc        1 0L3      0.070500
     63 H19         5.8740    3.1800   -9.7710 hc        1 0L3      0.037000
     64 H20         6.0560    3.7540  -11.2060 hc        1 0L3      0.037000
     65 H21         7.5770    2.0700  -12.1210 hx        1 0L3      0.066000
     66 H22         6.9130    1.2290  -10.8200 hx        1 0L3      0.066000
     67 H23         4.6830    2.0080  -11.6110 hn        1 0L3     -0.057500
     68 H24         5.4980    0.4340  -15.0000 hc        1 0L3     -0.024500
     69 H25         4.1110    0.8420  -14.5820 hc        1 0L3     -0.024500
     70 H26         3.8290   -1.5700  -13.8470 hc        1 0L3      0.055500
     71 H27         5.4690   -2.0930  -14.2170 hc        1 0L3      0.055500
     72 H28         5.2960   -1.0230  -16.4890 hc        1 0L3      0.051500
     73 H29         3.5220   -1.0290  -16.2280 hc        1 0L3      0.051500
     74 H30         3.5550   -3.3280  -15.5700 hc        1 0L3      0.091500
     75 H31         5.2400   -3.5000  -16.2690 hc        1 0L3      0.091500
     76 H32         4.7210   -2.4770  -18.6210 hc        1 0L3      0.055000
     77 H33         3.0350   -3.0830  -18.2240 hc        1 0L3      0.055000
     78 H34         5.6760   -4.9430  -18.4690 hc        1 0L3      0.051500
     79 H35         4.1070   -5.3410  -17.8240 hc        1 0L3      0.051500
     80 H36         2.6810   -5.3510  -19.4460 hc        1 0L3      0.073500
     81 H37         3.7370   -4.2090  -20.2110 hc        1 0L3      0.073500
     82 H38         5.3570   -6.5370  -19.7290 hc        1 0L3      0.058000
     83 H39         5.3270   -5.4980  -21.1160 hc        1 0L3      0.058000
     84 H40         3.0500   -6.3170  -21.7810 h1        1 0L3      0.012000
     85 H41         3.4620   -7.5860  -20.9040 h1        1 0L3      0.012000
     86 H42         4.1490   -8.1290  -22.9720 ho        1 0L3      0.179000
     87 H362        5.4040    2.5840  -13.1240 hn        1 0L3     -0.057500
@<TRIPOS>BOND
     1    1    2 1   
     2    2    3 1   
     3    2    4 1   
     4    2    5 1   
     5    5    6 1   
     6    6    7 1   
     7    6    8 1   
     8    6    9 1   
     9    9   10 1   
    10   10   11 1   
    11   10   12 1   
    12   10   13 1   
    13   13   14 1   
    14   14   15 1   
    15   14   49 1   
    16   14   50 1   
    17   15   16 1   
    18   15   19 1   
    19   15   50 1   
    20   15   51 1   
    21   16   17 1   
    22   16   18 1   
    23   16   52 1   
    24   17   53 1   
    25   18   20 1   
    26   18   54 1   
    27   18   55 1   
    28   19   20 1   
    29   20   21 1   
    30   20   56 1   
    31   21   22 1   
    32   21   29 1   
    33   22   23 1   
    34   22   28 1   
    35   23   24 1   
    36   24   25 1   
    37   24   57 1   
    38   25   26 1   
    39   26   27 1   
    40   26   28 1   
    41   27   58 1   
    42   27   59 1   
    43   28   30 1   
    44   29   30 1   
    45   29   60 1   
    46   30   31 1   
    47   31   32 1   
    48   32   33 1   
    49   33   34 1   
    50   33   61 1   
    51   33   62 1   
    52   34   35 1   
    53   34   63 1   
    54   34   64 1   
    55   35   36 1   
    56   35   65 1   
    57   35   66 1   
    58   36   37 1   
    59   36   67 1   
    60   36   87 1   
    61   37   38 1   
    62   37   39 1   
    63   39   40 1   
    64   39   68 1   
    65   39   69 1   
    66   40   41 1   
    67   40   70 1   
    68   40   71 1   
    69   41   42 1   
    70   41   72 1   
    71   41   73 1   
    72   42   43 1   
    73   42   74 1   
    74   42   75 1   
    75   43   44 1   
    76   43   76 1   
    77   43   77 1   
    78   44   45 1   
    79   44   78 1   
    80   44   79 1   
    81   45   46 1   
    82   45   80 1   
    83   45   81 1   
    84   46   47 1   
    85   46   82 1   
    86   46   83 1   
    87   47   48 1   
    88   47   84 1   
    89   47   85 1   
    90   48   86 1   
@<TRIPOS>SUBSTRUCTURE
     1 0L3         1 TEMP              0 ****  ****    0 ROOT
