@<TRIPOS>MOLECULE
0L4
   57    59     1     0     0
SMALL
bcc


@<TRIPOS>ATOM
      1 O2A         0.0000    0.0000    0.0000 o         1 0L4     -0.684000
      2 PA          1.4800    0.0000    0.0000 p5        1 0L4      0.984800
      3 O1A         2.0180    0.0000    1.5170 o         1 0L4     -0.684000
      4 O3A         2.0170   -1.3140   -0.7600 os        1 0L4     -0.496800
      5 PB          1.5530   -2.8550   -0.7910 p5        1 0L4      1.081800
      6 O3B         2.7710   -3.7710   -1.3110 os        1 0L4     -0.470800
      7 PG          3.0710   -5.3540   -1.2840 p5        1 0L4      0.882900
      8 O2G         4.2710   -5.6890   -2.3050 o         1 0L4     -0.501833
      9 O3T         3.4940   -5.7950    0.2050 o         1 0L4     -0.501833
     10 O1G         1.8560   -6.0930   -1.6920 o         1 0L4     -0.501833
     11 O1B         0.2970   -3.0180   -1.7850 o         1 0L4     -0.528500
     12 O2B         1.1630   -3.2810    0.5720 o         1 0L4     -0.528500
     13 O5'         2.0160    1.3150   -0.7590 os        1 0L4     -0.512200
     14 C5'         1.6270    2.6400   -0.3900 c3        1 0L4      0.119400
     15 C4'         2.3170    3.6490   -1.3100 c3        1 0L4      0.261100
     16 O4'         1.7740    3.5640   -2.6460 os        1 0L4     -0.369600
     17 C1'         2.1000    4.8240   -3.2710 c3        1 0L4      0.176800
     18 C2'         1.8650    5.8820   -2.1710 c3        1 0L4     -0.312400
     19 C3'         2.0110    5.0920   -0.8510 c3        1 0L4      0.261100
     20 O3'         3.0920    5.6110   -0.0740 oh        1 0L4     -0.653800
     21 N9          1.2170    5.0700   -4.4130 na        1 0L4      0.335900
     22 C8         -0.0250    4.5220   -4.5730 cc        1 0L4     -0.232100
     23 C7         -0.5690    4.9580   -5.7390 cd        1 0L4      0.112100
     24 C5          0.4220    5.8530   -6.3520 ca        1 0L4     -0.400400
     25 C6          0.4800    6.6120   -7.5290 ca        1 0L4      0.549200
     26 N6         -0.5760    6.6150   -8.4230 nv        1 0L4     -0.581500
     27 N1          1.5750    7.3280   -7.7650 nb        1 0L4     -0.771000
     28 C2          2.5850    7.3280   -6.9130 ca        1 0L4      0.644900
     29 N3          2.5720    6.6310   -5.7970 nb        1 0L4     -0.715000
     30 C4          1.5170    5.8870   -5.4710 ca        1 0L4      0.279800
     31 C42        -1.8550    4.6140   -6.2650 ch        1 0L4     -0.326300
     32 C43        -2.9140    4.3520   -6.7020 c1        1 0L4     -0.202100
     33 C44        -4.3960    3.6760   -7.0550 c3        1 0L4      0.257700
     34 C45        -5.2660    4.5220   -6.8050 c3        1 0L4     -0.435400
     35 C46        -6.7970    3.5060   -6.5430 c3        1 0L4     -0.451200
     36 N47        -7.5430    4.3590   -5.9660 nz        1 0L4      0.315400
     37 H5          0.9600    2.2770    0.3820 h1        1 0L4      0.052200
     38 H6          0.9980    2.8990   -1.2320 h1        1 0L4      0.052200
     39 H7          3.3870    3.4800   -1.3290 h1        1 0L4      0.022700
     40 H8          3.1380    4.8300   -3.5810 h2        1 0L4      0.029700
     41 H9          2.8570    5.8100   -1.7420 hc        1 0L4      0.079700
     42 H10         1.7820    6.9190   -2.4730 hc        1 0L4      0.079700
     43 H11         1.0850    5.1210   -0.2900 h1        1 0L4      0.005700
     44 H12         3.0800    6.3400    0.5240 ho        1 0L4      0.404000
     45 H13        -0.6880    4.2900   -3.7490 h4        1 0L4      0.168000
     46 H14        -1.0530    5.7600   -8.2140 hn        1 0L4      0.319300
     47 H15        -0.2420    7.2090   -9.1550 hn        1 0L4      0.319300
     48 H16         3.5530    7.8120   -6.9670 h5        1 0L4     -0.020900
     49 H17        -3.9510    3.5390   -8.0330 hc        1 0L4     -0.025300
     50 H18        -4.4240    2.6970   -6.5910 hc        1 0L4     -0.025300
     51 H19        -4.9450    4.9010   -5.8420 hc        1 0L4      0.026200
     52 H20        -5.4750    5.2700   -7.5600 hc        1 0L4      0.026200
     53 H21        -6.4000    2.8220   -5.8030 hx        1 0L4      0.055700
     54 H22        -6.9120    3.0940   -7.5390 hx        1 0L4      0.055700
     55 H23        -7.5200    4.6300   -5.0020 hn        1 0L4     -0.008533
     56 H24        -8.4360    3.9300   -5.8310 hn        1 0L4     -0.008533
     57 H473       -7.6430    5.1820   -6.5260 hn        1 0L4     -0.008533
@<TRIPOS>BOND
     1    1    2 1   
     2    2    3 1   
     3    2    4 1   
     4    2   13 1   
     5    4    5 1   
     6    5    6 1   
     7    5   11 1   
     8    5   12 1   
     9    6    7 1   
    10    7    8 1   
    11    7    9 1   
    12    7   10 1   
    13   13   14 1   
    14   14   15 1   
    15   14   37 1   
    16   14   38 1   
    17   15   16 1   
    18   15   19 1   
    19   15   39 1   
    20   16   17 1   
    21   17   18 1   
    22   17   21 1   
    23   17   40 1   
    24   18   19 1   
    25   18   41 1   
    26   18   42 1   
    27   19   20 1   
    28   19   43 1   
    29   20   44 1   
    30   21   22 1   
    31   21   30 1   
    32   22   23 2   
    33   22   45 1   
    34   23   24 1   
    35   23   31 1   
    36   24   25 ar  
    37   24   30 ar  
    38   25   26 1   
    39   25   27 ar  
    40   26   46 1   
    41   26   47 1   
    42   27   28 ar  
    43   28   29 ar  
    44   28   48 1   
    45   29   30 ar  
    46   31   32 3   
    47   32   33 1   
    48   33   34 1   
    49   33   49 1   
    50   33   50 1   
    51   34   35 1   
    52   34   51 1   
    53   34   52 1   
    54   35   36 1   
    55   35   53 1   
    56   35   54 1   
    57   36   55 1   
    58   36   56 1   
    59   36   57 1   
@<TRIPOS>SUBSTRUCTURE
     1 0L4         1 TEMP              0 ****  ****    0 ROOT
