@<TRIPOS>MOLECULE
0L8
   34    28     1     0     0
SMALL
bcc


@<TRIPOS>ATOM
      1 C1         -0.8120    0.1550   -2.9340 c1        1 0L8     -0.121000
      2 C2          0.5730    0.1080   -2.9290 c2        1 0L8     -0.100000
      3 C3          1.2600    0.0360   -1.7280 c1        1 0L8     -0.153000
      4 C4          0.5630    0.0100   -0.5310 c2        1 0L8      0.001000
      5 C5         -0.8230    0.0570   -0.5350 c1        1 0L8      0.016000
      6 C6         -1.5100    0.1290   -1.7360 c1        1 0L8     -0.108000
      7 C7          1.3130    0.0040    0.7790 c2        1 0L8     -0.088000
      8 C8          1.8100   -1.1860    1.2850 c1        1 0L8     -0.085000
      9 C9          2.5830   -1.1810    2.4350 c1        1 0L8     -0.162000
     10 C10         2.8590    0.0150    3.0790 c1        1 0L8      0.086000
     11 C11         2.3620    1.2050    2.5720 c1        1 0L8     -0.214000
     12 C12         1.5890    1.2000    1.4230 c2        1 0L8     -0.061000
     13 C13        -1.5860   -0.0290    0.7690 c2        1 0L8     -0.125000
     14 O14         3.7070    0.0280    4.2010 oh        1 0L8     -0.250000
     15 BR1         3.1680   -0.0890   -1.7250 br        1 0L8      0.062000
     16 C16        -1.5620    0.2220   -4.2450 c2        1 0L8      0.015000
     17 O17        -1.3340   -0.9620   -4.9780 oh        1 0L8     -0.320000
     18 C14        -2.3080    0.9380    1.4110 c1        1 0L8     -0.187000
     19 C17        -2.0650   -1.2580    1.1770 c1        1 0L8     -0.057000
     20 C15        -3.2350    0.3120    2.2180 c1        1 0L8     -0.097000
     21 O1         -3.0820   -1.0410    2.0710 os        1 0L8     -0.100000
     22 H1          1.0640    0.1260   -3.7720 ha        1 0L8      0.161000
     23 H2         -2.4850    0.1620   -1.7390 ha        1 0L8      0.141000
     24 H3          1.6150   -2.0290    0.8320 ha        1 0L8      0.142000
     25 H4          2.9330   -2.0190    2.7920 ha        1 0L8      0.153000
     26 H5          2.5570    2.0470    3.0250 ha        1 0L8      0.137000
     27 H6          1.2390    2.0380    1.0660 ha        1 0L8      0.143000
     28 H7          3.2890    0.4140    4.8840 ho        1 0L8      0.220000
     29 H8         -1.2480    0.9920   -4.7620 h4        1 0L8      0.096500
     30 H9         -2.5210    0.3160   -4.0680 h4        1 0L8      0.096500
     31 H10        -2.1010   -1.2500   -5.3220 ho        1 0L8      0.202000
     32 H11        -2.1880    1.9020    1.3150 DU        1 0L8      0.185667
     33 H12        -1.7370   -2.1290    0.8810 DU        1 0L8      0.185667
     34 H13        -3.8870    0.7560    2.7940 DU        1 0L8      0.185667
@<TRIPOS>BOND
     1    1    2 1   
     2    1    6 1   
     3    2    3 1   
     4    2   22 1   
     5    3    4 1   
     6    4    5 1   
     7    4    7 1   
     8    5   13 1   
     9    6   23 1   
    10    7    8 1   
    11    7   12 1   
    12    8   24 1   
    13    9   10 1   
    14    9   25 1   
    15   10   14 1   
    16   11   12 1   
    17   11   26 1   
    18   12   27 1   
    19   13   18 1   
    20   13   19 1   
    21   14   28 1   
    22   16   17 1   
    23   16   29 1   
    24   16   30 1   
    25   17   31 1   
    26   18   20 1   
    27   19   21 1   
    28   20   21 1   
@<TRIPOS>SUBSTRUCTURE
     1 0L8         1 TEMP              0 ****  ****    0 ROOT
