@<TRIPOS>MOLECULE
0L8
   34    36     1     0     0
SMALL
bcc


@<TRIPOS>ATOM
      1 C1          0.0620   -0.1190   -0.0250 ca        1 0L8     -0.086300
      2 C2          1.4590   -0.0530   -0.0210 ca        1 0L8     -0.110000
      3 C3          2.1520    0.0140    1.1870 ca        1 0L8     -0.014900
      4 C4          1.4630    0.0150    2.4140 cp        1 0L8      0.006000
      5 C5          0.0560   -0.0470    2.4060 ca        1 0L8      0.009000
      6 C6         -0.6300   -0.1160    1.1830 ca        1 0L8     -0.089000
      7 C7          2.2160    0.0600    3.6730 cp        1 0L8     -0.081000
      8 C8          2.6900    1.2840    4.1700 ca        1 0L8     -0.070000
      9 C9          3.4190    1.3350    5.3520 ca        1 0L8     -0.188000
     10 C10         3.6790    0.1410    6.0460 ca        1 0L8      0.129100
     11 C11         3.2120   -1.0880    5.5610 ca        1 0L8     -0.188000
     12 C12         2.4830   -1.1210    4.3750 ca        1 0L8     -0.070000
     13 C13        -0.7310   -0.0490    3.6200 cc        1 0L8     -0.180300
     14 O14         4.4040    0.2540    7.2100 oh        1 0L8     -0.498100
     15 BR1         4.0270    0.0870    1.1200 br        1 0L8     -0.083100
     16 C16        -0.6470   -0.1740   -1.3390 c3        1 0L8      0.176700
     17 O17        -2.0050   -0.5320   -1.1250 oh        1 0L8     -0.599800
     18 C14        -0.5480    0.7910    4.7910 cc        1 0L8     -0.237300
     19 C17        -1.8500   -0.8290    3.8720 cd        1 0L8      0.254600
     20 C15        -1.5560    0.4660    5.6720 cd        1 0L8      0.230600
     21 O1         -2.3690   -0.5330    5.1280 os        1 0L8     -0.361800
     22 H1          2.0050   -0.0560   -0.9780 ha        1 0L8      0.146000
     23 H2         -1.7320   -0.1690    1.1780 ha        1 0L8      0.159000
     24 H3          2.4860    2.2130    3.6160 ha        1 0L8      0.141000
     25 H4          3.7970    2.2880    5.7480 ha        1 0L8      0.143000
     26 H5          3.4210   -2.0170    6.1090 ha        1 0L8      0.143000
     27 H6          2.1150   -2.0830    3.9890 ha        1 0L8      0.141000
     28 H7          4.5200   -0.6350    7.5760 ho        1 0L8      0.419000
     29 H8         -0.5950    0.8350   -1.8360 h1        1 0L8      0.035200
     30 H9         -0.1580   -0.9350   -2.0090 h1        1 0L8      0.035200
     31 H10        -2.4230   -0.5310   -1.9940 ho        1 0L8      0.406000
     32 H11         0.2470    1.5200    4.9210 ha        1 0L8      0.171000
     33 H12        -2.3870   -1.5980    3.3250 h4        1 0L8      0.058100
     34 H13        -1.8550    0.7970    6.6620 h4        1 0L8      0.054100
@<TRIPOS>BOND
     1    1    2 ar  
     2    1    6 ar  
     3    1   16 1   
     4    2    3 ar  
     5    2   22 1   
     6    3    4 ar  
     7    3   15 1   
     8    4    5 ar  
     9    4    7 1   
    10    5    6 ar  
    11    5   13 1   
    12    6   23 1   
    13    7    8 ar  
    14    7   12 ar  
    15    8    9 ar  
    16    8   24 1   
    17    9   10 ar  
    18    9   25 1   
    19   10   11 ar  
    20   10   14 1   
    21   11   12 ar  
    22   11   26 1   
    23   12   27 1   
    24   13   18 1   
    25   13   19 2   
    26   14   28 1   
    27   16   17 1   
    28   16   29 1   
    29   16   30 1   
    30   17   31 1   
    31   18   20 2   
    32   18   32 1   
    33   19   21 1   
    34   19   33 1   
    35   20   21 1   
    36   20   34 1   
@<TRIPOS>SUBSTRUCTURE
     1 0L8         1 TEMP              0 ****  ****    0 ROOT
