@<TRIPOS>MOLECULE
0L8
   34    36     1     0     0
SMALL
bcc


@<TRIPOS>ATOM
      1 C1          0.0690   -0.1160   -0.0280 ca        1 0L8     -0.086300
      2 C2          1.4650   -0.0410   -0.0200 ca        1 0L8     -0.110000
      3 C3          2.1550    0.0260    1.1900 ca        1 0L8     -0.014900
      4 C4          1.4640    0.0200    2.4150 cp        1 0L8      0.006000
      5 C5          0.0570   -0.0510    2.4050 ca        1 0L8      0.009000
      6 C6         -0.6260   -0.1200    1.1790 ca        1 0L8     -0.089000
      7 C7          2.2140    0.0670    3.6760 cp        1 0L8     -0.081000
      8 C8          2.6790    1.2920    4.1770 ca        1 0L8     -0.070000
      9 C9          3.4050    1.3440    5.3610 ca        1 0L8     -0.188000
     10 C10         3.6710    0.1500    6.0530 ca        1 0L8      0.129100
     11 C11         3.2140   -1.0810    5.5630 ca        1 0L8     -0.188000
     12 C12         2.4870   -1.1150    4.3750 ca        1 0L8     -0.070000
     13 C13        -0.7320   -0.0600    3.6160 cc        1 0L8     -0.180300
     14 O14         4.3930    0.2640    7.2180 oh        1 0L8     -0.498100
     15 BR1         4.0310    0.1120    1.1270 br        1 0L8     -0.083100
     16 C16        -0.6370   -0.1720   -1.3430 c3        1 0L8      0.176700
     17 O17        -1.9930   -0.5370   -1.1330 oh        1 0L8     -0.599800
     18 C14        -0.5570    0.7760    4.7910 cc        1 0L8     -0.237300
     19 C17        -1.8470   -0.8480    3.8640 cd        1 0L8      0.254600
     20 C15        -1.5650    0.4430    5.6680 cd        1 0L8      0.230600
     21 O1         -2.3700   -0.5590    5.1190 os        1 0L8     -0.361800
     22 H1          2.0140   -0.0380   -0.9750 ha        1 0L8      0.146000
     23 H2         -1.7270   -0.1800    1.1720 ha        1 0L8      0.159000
     24 H3          2.4710    2.2210    3.6260 ha        1 0L8      0.141000
     25 H4          3.7770    2.2970    5.7610 ha        1 0L8      0.143000
     26 H5          3.4270   -2.0100    6.1090 ha        1 0L8      0.143000
     27 H6          2.1260   -2.0790    3.9850 ha        1 0L8      0.141000
     28 H7          4.5140   -0.6250    7.5820 ho        1 0L8      0.419000
     29 H8         -0.5890    0.8380   -1.8380 h1        1 0L8      0.035200
     30 H9         -0.1420   -0.9280   -2.0130 h1        1 0L8      0.035200
     31 H10        -2.4100   -0.5350   -2.0020 ho        1 0L8      0.406000
     32 H11         0.2340    1.5110    4.9240 ha        1 0L8      0.171000
     33 H12        -2.3780   -1.6190    3.3130 h4        1 0L8      0.058100
     34 H13        -1.8680    0.7690    6.6580 h4        1 0L8      0.054100
@<TRIPOS>BOND
     1    1    2 ar  
     2    1    6 ar  
     3    1   16 1   
     4    2    3 ar  
     5    2   22 1   
     6    3    4 ar  
     7    3   15 1   
     8    4    5 ar  
     9    4    7 1   
    10    5    6 ar  
    11    5   13 1   
    12    6   23 1   
    13    7    8 ar  
    14    7   12 ar  
    15    8    9 ar  
    16    8   24 1   
    17    9   10 ar  
    18    9   25 1   
    19   10   11 ar  
    20   10   14 1   
    21   11   12 ar  
    22   11   26 1   
    23   12   27 1   
    24   13   18 1   
    25   13   19 2   
    26   14   28 1   
    27   16   17 1   
    28   16   29 1   
    29   16   30 1   
    30   17   31 1   
    31   18   20 2   
    32   18   32 1   
    33   19   21 1   
    34   19   33 1   
    35   20   21 1   
    36   20   34 1   
@<TRIPOS>SUBSTRUCTURE
     1 0L8         1 TEMP              0 ****  ****    0 ROOT
