@<TRIPOS>MOLECULE
0L8
   34    36     1     0     0
SMALL
bcc


@<TRIPOS>ATOM
      1 C1         -3.0700    0.5150   -0.1720 ca        1 0L8     -0.086300
      2 C2         -2.5940   -0.7990   -0.1530 ca        1 0L8     -0.111000
      3 C3         -1.2220   -1.0460   -0.1060 ca        1 0L8     -0.014900
      4 C4         -0.3000    0.0160   -0.0780 cp        1 0L8      0.006000
      5 C5         -0.7820    1.3390   -0.1020 ca        1 0L8      0.009000
      6 C6         -2.1660    1.5740   -0.1470 ca        1 0L8     -0.089000
      7 C7          1.1380   -0.2690   -0.0030 cp        1 0L8     -0.081000
      8 C8          1.8540   -0.6020   -1.1600 ca        1 0L8     -0.070500
      9 C9          3.2140   -0.8930   -1.0900 ca        1 0L8     -0.188000
     10 C10         3.8610   -0.8520    0.1530 ca        1 0L8      0.129100
     11 C11         3.1560   -0.5200    1.3220 ca        1 0L8     -0.188000
     12 C12         1.7990   -0.2310    1.2330 ca        1 0L8     -0.070500
     13 C13         0.0950    2.4890   -0.0780 cc        1 0L8     -0.180300
     14 O14         5.2010   -1.1270    0.3020 oh        1 0L8     -0.497100
     15 BR1        -0.6540   -2.8360   -0.0680 br        1 0L8     -0.084100
     16 C16        -4.5450    0.7400   -0.2350 c3        1 0L8      0.176700
     17 O17        -4.8240    2.1090    0.0230 oh        1 0L8     -0.599800
     18 C14         1.3230    2.6790   -0.8300 cc        1 0L8     -0.238300
     19 C17        -0.1040    3.6590    0.6420 cd        1 0L8      0.255600
     20 C15         1.7880    3.9380   -0.5180 cd        1 0L8      0.230600
     21 O1          0.9250    4.5580    0.3900 os        1 0L8     -0.360800
     22 H1         -3.3110   -1.6360   -0.1720 ha        1 0L8      0.145000
     23 H2         -2.5420    2.6110   -0.1630 ha        1 0L8      0.160000
     24 H3          1.3390   -0.6390   -2.1320 ha        1 0L8      0.141000
     25 H4          3.7720   -1.1580   -1.9980 ha        1 0L8      0.143000
     26 H5          3.6820   -0.4930    2.2860 ha        1 0L8      0.143000
     27 H6          1.2370    0.0290    2.1440 ha        1 0L8      0.141000
     28 H7          5.5560   -1.3600   -0.5690 ho        1 0L8      0.419000
     29 H8         -4.9240    0.4620   -1.2580 h1        1 0L8      0.035200
     30 H9         -5.0640    0.0990    0.5310 h1        1 0L8      0.035200
     31 H10        -5.7810    2.2060   -0.0460 ho        1 0L8      0.406000
     32 H11         1.7690    1.9450   -1.4970 ha        1 0L8      0.170000
     33 H12        -0.8590    4.0090    1.3390 h4        1 0L8      0.058100
     34 H13         2.6440    4.5390   -0.8050 h4        1 0L8      0.054100
@<TRIPOS>BOND
     1    1    2 ar  
     2    1    6 ar  
     3    1   16 1   
     4    2    3 ar  
     5    2   22 1   
     6    3    4 ar  
     7    3   15 1   
     8    4    5 ar  
     9    4    7 1   
    10    5    6 ar  
    11    5   13 1   
    12    6   23 1   
    13    7    8 ar  
    14    7   12 ar  
    15    8    9 ar  
    16    8   24 1   
    17    9   10 ar  
    18    9   25 1   
    19   10   11 ar  
    20   10   14 1   
    21   11   12 ar  
    22   11   26 1   
    23   12   27 1   
    24   13   18 1   
    25   13   19 2   
    26   14   28 1   
    27   16   17 1   
    28   16   29 1   
    29   16   30 1   
    30   17   31 1   
    31   18   20 2   
    32   18   32 1   
    33   19   21 1   
    34   19   33 1   
    35   20   21 1   
    36   20   34 1   
@<TRIPOS>SUBSTRUCTURE
     1 0L8         1 TEMP              0 ****  ****    0 ROOT
