@<TRIPOS>MOLECULE
0L8
   34    36     1     0     0
SMALL
bcc


@<TRIPOS>ATOM
      1 C1          0.0670   -0.1260   -0.0270 ca        1 0L8     -0.086300
      2 C2          1.4640   -0.0620   -0.0200 ca        1 0L8     -0.110000
      3 C3          2.1550    0.0070    1.1900 ca        1 0L8     -0.014900
      4 C4          1.4640    0.0120    2.4150 cp        1 0L8      0.006000
      5 C5          0.0570   -0.0480    2.4050 ca        1 0L8      0.009000
      6 C6         -0.6270   -0.1190    1.1810 ca        1 0L8     -0.089000
      7 C7          2.2140    0.0600    3.6750 cp        1 0L8     -0.081000
      8 C8          2.6890    1.2840    4.1700 ca        1 0L8     -0.070000
      9 C9          3.4160    1.3380    5.3530 ca        1 0L8     -0.188000
     10 C10         3.6730    0.1460    6.0510 ca        1 0L8      0.129100
     11 C11         3.2060   -1.0840    5.5680 ca        1 0L8     -0.188000
     12 C12         2.4790   -1.1190    4.3810 ca        1 0L8     -0.070000
     13 C13        -0.7320   -0.0440    3.6170 cc        1 0L8     -0.180300
     14 O14         4.3960    0.2600    7.2160 oh        1 0L8     -0.498100
     15 Br1         4.0310    0.0770    1.1250 br        1 0L8     -0.083100
     16 C16        -0.6400   -0.1840   -1.3410 c3        1 0L8      0.176700
     17 O17        -1.9990   -0.5380   -1.1290 oh        1 0L8     -0.599800
     18 C14        -0.5500    0.7970    4.7870 cc        1 0L8     -0.237300
     19 C17        -1.8530   -0.8220    3.8700 cd        1 0L8      0.254600
     20 C15        -1.5600    0.4760    5.6670 cd        1 0L8      0.230600
     21 O1         -2.3730   -0.5220    5.1230 os        1 0L8     -0.361800
     22 H1          2.0120   -0.0680   -0.9760 ha        1 0L8      0.146000
     23 H2         -1.7290   -0.1700    1.1740 ha        1 0L8      0.159000
     24 H3          2.4880    2.2130    3.6130 ha        1 0L8      0.141000
     25 H4          3.7950    2.2910    5.7470 ha        1 0L8      0.143000
     26 H5          3.4130   -2.0120    6.1190 ha        1 0L8      0.143000
     27 H6          2.1100   -2.0820    3.9960 ha        1 0L8      0.141000
     28 H7          4.5110   -0.6280    7.5840 ho        1 0L8      0.419000
     29 H8         -0.5840    0.8230   -1.8420 h1        1 0L8      0.035200
     30 H9         -0.1510   -0.9480   -2.0080 h1        1 0L8      0.035200
     31 H10        -2.4160   -0.5380   -1.9980 ho        1 0L8      0.406000
     32 H11         0.2460    1.5260    4.9160 ha        1 0L8      0.171000
     33 H12        -2.3900   -1.5920    3.3230 h4        1 0L8      0.058100
     34 H13        -1.8600    0.8110    6.6540 h4        1 0L8      0.054100
@<TRIPOS>BOND
     1    1    2 ar  
     2    1    6 ar  
     3    1   16 1   
     4    2    3 ar  
     5    2   22 1   
     6    3    4 ar  
     7    3   15 1   
     8    4    5 ar  
     9    4    7 1   
    10    5    6 ar  
    11    5   13 1   
    12    6   23 1   
    13    7    8 ar  
    14    7   12 ar  
    15    8    9 ar  
    16    8   24 1   
    17    9   10 ar  
    18    9   25 1   
    19   10   11 ar  
    20   10   14 1   
    21   11   12 ar  
    22   11   26 1   
    23   12   27 1   
    24   13   18 1   
    25   13   19 2   
    26   14   28 1   
    27   16   17 1   
    28   16   29 1   
    29   16   30 1   
    30   17   31 1   
    31   18   20 2   
    32   18   32 1   
    33   19   21 1   
    34   19   33 1   
    35   20   21 1   
    36   20   34 1   
@<TRIPOS>SUBSTRUCTURE
     1 0L8         1 TEMP              0 ****  ****    0 ROOT
