@<TRIPOS>MOLECULE
0L9
   39    41     1     0     0
SMALL
bcc


@<TRIPOS>ATOM
      1 CL1         0.9410   -5.4400    0.2060 cl        1 0L9     -0.132400
      2 C19         0.8350   -3.7360    0.1970 ca        1 0L9      0.015400
      3 C20         1.4210   -3.0080   -0.8410 ca        1 0L9     -0.140000
      4 C21         1.3300   -1.6170   -0.8470 ca        1 0L9     -0.104500
      5 C18         0.1640   -3.0840    1.2350 ca        1 0L9     -0.140000
      6 C17         0.0710   -1.6940    1.2200 ca        1 0L9     -0.104500
      7 C10         0.6450   -0.9500    0.1790 cp        1 0L9     -0.041000
      8 C9          0.5150    0.5130    0.1720 cp        1 0L9     -0.014000
      9 C8          1.6060    1.3600    0.2710 ca        1 0L9     -0.105600
     10 C11         3.0050    0.8210    0.2800 c3        1 0L9      0.039400
     11 O13         3.6890    1.4150    1.3930 os        1 0L9     -0.427600
     12 C14         5.0180    0.9470    1.5380 c3        1 0L9      0.120700
     13 C12         3.7160    1.0580   -1.0950 c         1 0L9      0.905600
     14 O1          3.4020    0.2720   -2.0310 o         1 0L9     -0.817300
     15 O2          4.5730    1.9750   -1.1900 o         1 0L9     -0.817300
     16 C5         -0.8050    1.0700    0.0710 ca        1 0L9     -0.143300
     17 C6         -1.9620    0.2690   -0.0980 ca        1 0L9     -0.071000
     18 C1         -3.2100    0.8450   -0.1860 ca        1 0L9     -0.043900
     19 BR         -4.7410   -0.2190   -0.4040 br        1 0L9     -0.125100
     20 C2         -3.3550    2.2510   -0.1160 ca        1 0L9     -0.122000
     21 C3         -2.2540    3.0540    0.0360 ca        1 0L9     -0.170300
     22 C4         -0.9420    2.4880    0.1320 ca        1 0L9      0.408600
     23 N           0.1430    3.3220    0.2810 nb        1 0L9     -0.704000
     24 C7          1.3600    2.7900    0.3420 ca        1 0L9      0.489600
     25 C16         2.5270    3.7120    0.5090 c3        1 0L9     -0.177400
     26 H1          1.9640   -3.5210   -1.6490 ha        1 0L9      0.140500
     27 H2          1.8360   -1.0260   -1.6430 ha        1 0L9      0.179000
     28 H3         -0.2850   -3.6580    2.0580 ha        1 0L9      0.140500
     29 H4         -0.4550   -1.1750    2.0350 ha        1 0L9      0.179000
     30 H5          2.9880   -0.2940    0.4540 h1        1 0L9      0.042700
     31 H6          5.4090    1.5020    2.4270 h1        1 0L9      0.029700
     32 H7          5.0230   -0.1540    1.7380 h1        1 0L9      0.029700
     33 H8          5.6250    1.1780    0.6270 h1        1 0L9      0.029700
     34 H10        -1.8390   -0.8260   -0.1650 ha        1 0L9      0.152000
     35 H11        -4.3580    2.6980   -0.1890 ha        1 0L9      0.133000
     36 H12        -2.3640    4.1490    0.0830 ha        1 0L9      0.143000
     37 H13         2.9150    3.6100    1.5540 hc        1 0L9      0.074700
     38 H14         3.3480    3.4080   -0.1960 hc        1 0L9      0.074700
     39 H15         2.2540    4.7790    0.3250 hc        1 0L9      0.074700
@<TRIPOS>BOND
     1    1    2 1   
     2    2    3 ar  
     3    2    5 ar  
     4    3    4 ar  
     5    3   26 1   
     6    4    7 ar  
     7    4   27 1   
     8    5    6 ar  
     9    5   28 1   
    10    6    7 ar  
    11    6   29 1   
    12    7    8 1   
    13    8    9 ar  
    14    8   16 ar  
    15    9   10 1   
    16    9   24 ar  
    17   10   11 1   
    18   10   13 1   
    19   10   30 1   
    20   11   12 1   
    21   12   31 1   
    22   12   32 1   
    23   12   33 1   
    24   13   14 1   
    25   13   15 1   
    26   16   17 ar  
    27   16   22 ar  
    28   17   18 ar  
    29   17   34 1   
    30   18   19 1   
    31   18   20 ar  
    32   20   21 ar  
    33   20   35 1   
    34   21   22 ar  
    35   21   36 1   
    36   22   23 ar  
    37   23   24 ar  
    38   24   25 1   
    39   25   37 1   
    40   25   38 1   
    41   25   39 1   
@<TRIPOS>SUBSTRUCTURE
     1 0L9         1 TEMP              0 ****  ****    0 ROOT
