@<TRIPOS>MOLECULE
0L9
   39    41     1     0     0
SMALL
bcc


@<TRIPOS>ATOM
      1 Cl1         0.0010   -0.2300   -0.2980 cl        1 0L9     -0.132400
      2 C19         1.7040   -0.1400   -0.2140 ca        1 0L9      0.015400
      3 C20         2.3330   -0.0280    1.0270 ca        1 0L9     -0.140000
      4 C21         3.7250    0.0420    1.0930 ca        1 0L9     -0.104500
      5 C18         2.4530   -0.1750   -1.3940 ca        1 0L9     -0.140000
      6 C17         3.8420   -0.1110   -1.3220 ca        1 0L9     -0.104500
      7 C10         4.4890   -0.0100   -0.0810 cp        1 0L9     -0.041000
      8 C9          5.9560    0.0330   -0.0280 cp        1 0L9     -0.014000
      9 C8          6.6540    1.1320    0.4480 ca        1 0L9     -0.105600
     10 C11         5.9370    2.3050    1.0430 c3        1 0L9      0.039400
     11 O13         6.4510    3.4890    0.4160 os        1 0L9     -0.427600
     12 C14         5.8140    4.6720    0.8640 c3        1 0L9      0.120700
     13 C12         6.0580    2.3160    2.6040 c         1 0L9      0.905600
     14 O1          5.3080    1.5190    3.2310 o         1 0L9     -0.817300
     15 O2          6.8540    3.1260    3.1490 o         1 0L9     -0.817300
     16 C5          6.6810   -1.1110   -0.5040 ca        1 0L9     -0.143300
     17 C6          6.0360   -2.2950   -0.9450 ca        1 0L9     -0.071000
     18 C1          6.7700   -3.3680   -1.3980 ca        1 0L9     -0.043900
     19 Br          5.9130   -4.9310   -1.9860 br        1 0L9     -0.125100
     20 C2          8.1840   -3.3090   -1.4230 ca        1 0L9     -0.122000
     21 C3          8.8370   -2.1830   -0.9930 ca        1 0L9     -0.170300
     22 C4          8.1050   -1.0480   -0.5160 ca        1 0L9      0.408600
     23 N           8.7920    0.0660   -0.0890 nb        1 0L9     -0.704000
     24 C7          8.1050    1.1050    0.3780 ca        1 0L9      0.489600
     25 C16         8.8690    2.3090    0.8330 c3        1 0L9     -0.177400
     26 H1          1.7430    0.0160    1.9540 ha        1 0L9      0.140500
     27 H2          4.2320    0.1810    2.0730 ha        1 0L9      0.179000
     28 H3          1.9540   -0.2500   -2.3700 ha        1 0L9      0.140500
     29 H4          4.4370   -0.1370   -2.2470 ha        1 0L9      0.179000
     30 H5          4.8360    2.2490    0.8000 h1        1 0L9      0.042700
     31 H6          5.9510    4.8070    1.9660 h1        1 0L9      0.029700
     32 H7          4.7250    4.6480    0.6080 h1        1 0L9      0.029700
     33 H8          6.3260    5.4900    0.2970 h1        1 0L9      0.029700
     34 H10         4.9340   -2.3380   -0.9100 ha        1 0L9      0.152000
     35 H11         8.7580   -4.1750   -1.7870 ha        1 0L9      0.133000
     36 H12         9.9370   -2.1380   -1.0050 ha        1 0L9      0.143000
     37 H13         9.9590    2.1000    0.9490 hc        1 0L9      0.074700
     38 H14         8.4490    2.6690    1.8120 hc        1 0L9      0.074700
     39 H15         8.7310    3.1250    0.0790 hc        1 0L9      0.074700
@<TRIPOS>BOND
     1    1    2 1   
     2    2    3 ar  
     3    2    5 ar  
     4    3    4 ar  
     5    3   26 1   
     6    4    7 ar  
     7    4   27 1   
     8    5    6 ar  
     9    5   28 1   
    10    6    7 ar  
    11    6   29 1   
    12    7    8 1   
    13    8    9 ar  
    14    8   16 ar  
    15    9   10 1   
    16    9   24 ar  
    17   10   11 1   
    18   10   13 1   
    19   10   30 1   
    20   11   12 1   
    21   12   31 1   
    22   12   32 1   
    23   12   33 1   
    24   13   14 1   
    25   13   15 1   
    26   16   17 ar  
    27   16   22 ar  
    28   17   18 ar  
    29   17   34 1   
    30   18   19 1   
    31   18   20 ar  
    32   20   21 ar  
    33   20   35 1   
    34   21   22 ar  
    35   21   36 1   
    36   22   23 ar  
    37   23   24 ar  
    38   24   25 1   
    39   25   37 1   
    40   25   38 1   
    41   25   39 1   
@<TRIPOS>SUBSTRUCTURE
     1 0L9         1 TEMP              0 ****  ****    0 ROOT
