@<TRIPOS>MOLECULE
0L9
   39    31     1     0     0
SMALL
bcc


@<TRIPOS>ATOM
      1 CL1        -6.0320   -0.5650   -0.0610 cl        1 0L9     -0.054000
      2 C19        -4.3060   -0.4530   -0.0690 c2        1 0L9     -0.063000
      3 C20        -3.6440   -0.0300   -1.2140 c2        1 0L9     -0.148000
      4 C21        -2.2500   -0.0510   -1.2620 c1        1 0L9     -0.117000
      5 C18        -3.5770   -0.9000    1.0330 c1        1 0L9     -0.132000
      6 C17        -2.1820   -0.9220    0.9860 c1        1 0L9     -0.092000
      7 C10        -1.5190   -0.5000   -0.1570 c1        1 0L9     -0.041000
      8 C9          0.0090   -0.4240   -0.1670 c1        1 0L9     -0.014000
      9 C8          0.7050    0.6990    0.2440 c1        1 0L9      0.017000
     10 C11         0.1880    2.0340    0.6780 c2        1 0L9     -0.029000
     11 O13         0.7910    3.0190   -0.0620 os        1 0L9     -0.284000
     12 C14        -0.0050    4.1730   -0.2340 c3        1 0L9     -0.069000
     13 C12         0.5060    2.2510    2.1990 c2        1 0L9      0.325000
     14 O1          0.7470    1.2380    2.9580 o         1 0L9     -0.552000
     15 O2          0.4870    3.4430    2.7000 o         1 0L9     -0.552000
     16 C5          0.6980   -1.5810   -0.5020 c1        1 0L9     -0.078000
     17 C6         -0.0100   -2.7310   -0.9160 c2        1 0L9     -0.071000
     18 C1          0.6820   -3.8930   -1.2450 c1        1 0L9     -0.184000
     19 BR         -0.2360   -5.5040   -1.5740 br        1 0L9      0.015000
     20 C2          2.0820   -3.9230   -1.1660 c1        1 0L9     -0.113500
     21 C3          2.7810   -2.7920   -0.7590 c1        1 0L9     -0.113500
     22 C4          2.0800   -1.6110   -0.4240 c1        1 0L9      0.015000
     23 N           2.7770   -0.4780   -0.0090 n1        1 0L9     -0.178000
     24 C7          2.0940    0.6680    0.3230 c1        1 0L9      0.017000
     25 C16         3.4870    1.2880    0.5630 c2        1 0L9     -0.201000
     26 H1         -4.1630    0.2900   -1.9950 ha        1 0L9      0.134000
     27 H2         -1.7590    0.2630   -2.1130 ha        1 0L9      0.136000
     28 H3         -4.0390   -1.1970    1.8300 ha        1 0L9      0.147000
     29 H4         -1.6590   -1.1690    1.8030 ha        1 0L9      0.222000
     30 H5         -0.7630    2.0680    0.5410 h4        1 0L9      0.082000
     31 H6          0.5140    4.9630    0.0030 h1        1 0L9      0.069000
     32 H7         -0.8150    4.1120    0.3580 h1        1 0L9      0.069000
     33 H8         -0.3010    4.2410   -1.2080 h1        1 0L9      0.069000
     34 H10        -1.0120   -2.7320   -0.9020 ha        1 0L9      0.152000
     35 H11         2.5750   -4.7520   -1.4020 ha        1 0L9      0.138000
     36 H12         3.7510   -2.8250   -0.6690 ha        1 0L9      0.138000
     37 H13         3.9050    0.8680    1.3480 ha        1 0L9      0.114000
     38 H14         3.3900    2.2670    0.7230 ha        1 0L9      0.114000
     39 H15         4.0200    1.1480   -0.1800 ha        1 0L9      0.114000
@<TRIPOS>BOND
     1    1    2 1   
     2    2    3 1   
     3    2    5 1   
     4    3    4 1   
     5    3   26 1   
     6    4   27 1   
     7    5   28 1   
     8    6    7 1   
     9    6   29 1   
    10    8   16 1   
    11    9   24 1   
    12   10   11 1   
    13   10   13 1   
    14   10   30 1   
    15   11   12 1   
    16   12   31 1   
    17   12   32 1   
    18   12   33 1   
    19   13   14 1   
    20   13   15 1   
    21   16   17 1   
    22   17   18 1   
    23   17   34 1   
    24   18   19 1   
    25   20   21 1   
    26   20   35 1   
    27   21   36 1   
    28   22   23 1   
    29   25   37 1   
    30   25   38 1   
    31   25   39 1   
@<TRIPOS>SUBSTRUCTURE
     1 0L9         1 TEMP              0 ****  ****    0 ROOT
