@<TRIPOS>MOLECULE
0L9
   39    41     1     0     0
SMALL
bcc


@<TRIPOS>ATOM
      1 CL1         0.0010   -0.2250   -0.3100 cl        1 0L9     -0.132400
      2 C19         1.7040   -0.1370   -0.2220 ca        1 0L9      0.015400
      3 C20         2.3300   -0.0240    1.0210 ca        1 0L9     -0.140000
      4 C21         3.7210    0.0440    1.0910 ca        1 0L9     -0.104500
      5 C18         2.4560   -0.1740   -1.3990 ca        1 0L9     -0.140000
      6 C17         3.8450   -0.1120   -1.3230 ca        1 0L9     -0.104500
      7 C10         4.4900   -0.0100   -0.0810 cp        1 0L9     -0.041000
      8 C9          5.9560    0.0310   -0.0230 cp        1 0L9     -0.014000
      9 C8          6.6540    1.1290    0.4530 ca        1 0L9     -0.105600
     10 C11         5.9370    2.3040    1.0440 c3        1 0L9      0.039400
     11 O13         6.4540    3.4860    0.4170 os        1 0L9     -0.427600
     12 C14         5.8170    4.6710    0.8620 c3        1 0L9      0.120700
     13 C12         6.0530    2.3180    2.6060 c         1 0L9      0.905600
     14 O1          5.3000    1.5220    3.2320 o         1 0L9     -0.817300
     15 O2          6.8480    3.1270    3.1520 o         1 0L9     -0.817300
     16 C5          6.6810   -1.1150   -0.4960 ca        1 0L9     -0.143300
     17 C6          6.0360   -2.2990   -0.9370 ca        1 0L9     -0.071000
     18 C1          6.7700   -3.3730   -1.3870 ca        1 0L9     -0.043900
     19 BR          5.9130   -4.9360   -1.9760 br        1 0L9     -0.125100
     20 C2          8.1840   -3.3160   -1.4080 ca        1 0L9     -0.122000
     21 C3          8.8370   -2.1900   -0.9770 ca        1 0L9     -0.170300
     22 C4          8.1050   -1.0530   -0.5040 ca        1 0L9      0.408600
     23 N           8.7920    0.0610   -0.0760 nb        1 0L9     -0.704000
     24 C7          8.1050    1.1010    0.3870 ca        1 0L9      0.489600
     25 C16         8.8690    2.3050    0.8430 c3        1 0L9     -0.177400
     26 H1          1.7370    0.0220    1.9460 ha        1 0L9      0.140500
     27 H2          4.2260    0.1840    2.0720 ha        1 0L9      0.179000
     28 H3          1.9600   -0.2510   -2.3770 ha        1 0L9      0.140500
     29 H4          4.4440   -0.1400   -2.2460 ha        1 0L9      0.179000
     30 H5          4.8360    2.2490    0.7980 h1        1 0L9      0.042700
     31 H6          6.3320    5.4880    0.2950 h1        1 0L9      0.029700
     32 H7          5.9510    4.8080    1.9640 h1        1 0L9      0.029700
     33 H8          4.7290    4.6490    0.6020 h1        1 0L9      0.029700
     34 H10         4.9340   -2.3400   -0.9050 ha        1 0L9      0.152000
     35 H11         8.7580   -4.1830   -1.7690 ha        1 0L9      0.133000
     36 H12         9.9380   -2.1460   -0.9860 ha        1 0L9      0.143000
     37 H13         8.4470    2.6660    1.8200 hc        1 0L9      0.074700
     38 H14         8.7350    3.1190    0.0870 hc        1 0L9      0.074700
     39 H15         9.9590    2.0950    0.9630 hc        1 0L9      0.074700
@<TRIPOS>BOND
     1    1    2 1   
     2    2    3 ar  
     3    2    5 ar  
     4    3    4 ar  
     5    3   26 1   
     6    4    7 ar  
     7    4   27 1   
     8    5    6 ar  
     9    5   28 1   
    10    6    7 ar  
    11    6   29 1   
    12    7    8 1   
    13    8    9 ar  
    14    8   16 ar  
    15    9   10 1   
    16    9   24 ar  
    17   10   11 1   
    18   10   13 1   
    19   10   30 1   
    20   11   12 1   
    21   12   31 1   
    22   12   32 1   
    23   12   33 1   
    24   13   14 1   
    25   13   15 1   
    26   16   17 ar  
    27   16   22 ar  
    28   17   18 ar  
    29   17   34 1   
    30   18   19 1   
    31   18   20 ar  
    32   20   21 ar  
    33   20   35 1   
    34   21   22 ar  
    35   21   36 1   
    36   22   23 ar  
    37   23   24 ar  
    38   24   25 1   
    39   25   37 1   
    40   25   38 1   
    41   25   39 1   
@<TRIPOS>SUBSTRUCTURE
     1 0L9         1 TEMP              0 ****  ****    0 ROOT
