@<TRIPOS>MOLECULE
0L9
   39    41     1     0     0
SMALL
bcc


@<TRIPOS>ATOM
      1 CL1         0.0030   -0.2310   -0.3250 cl        1 0L9     -0.132400
      2 C19         1.7050   -0.1420   -0.2320 ca        1 0L9      0.015400
      3 C20         2.3280   -0.0270    1.0130 ca        1 0L9     -0.140000
      4 C21         3.7190    0.0430    1.0860 ca        1 0L9     -0.104500
      5 C18         2.4610   -0.1790   -1.4070 ca        1 0L9     -0.140000
      6 C17         3.8500   -0.1160   -1.3270 ca        1 0L9     -0.104500
      7 C10         4.4910   -0.0120   -0.0840 cp        1 0L9     -0.041000
      8 C9          5.9570    0.0310   -0.0220 cp        1 0L9     -0.014000
      9 C8          6.6530    1.1300    0.4550 ca        1 0L9     -0.105600
     10 C11         5.9330    2.3050    1.0430 c3        1 0L9      0.039400
     11 O13         6.4500    3.4870    0.4160 os        1 0L9     -0.427600
     12 C14         5.8120    4.6720    0.8570 c3        1 0L9      0.120700
     13 C12         6.0450    2.3200    2.6050 c         1 0L9      0.905600
     14 O1          5.2910    1.5250    3.2290 o         1 0L9     -0.817300
     15 O2          6.8380    3.1310    3.1520 o         1 0L9     -0.817300
     16 C5          6.6840   -1.1150   -0.4920 ca        1 0L9     -0.143300
     17 C6          6.0410   -2.3000   -0.9330 ca        1 0L9     -0.071000
     18 C1          6.7770   -3.3740   -1.3790 ca        1 0L9     -0.043900
     19 BR          5.9230   -4.9390   -1.9690 br        1 0L9     -0.125100
     20 C2          8.1920   -3.3150   -1.3970 ca        1 0L9     -0.122000
     21 C3          8.8430   -2.1880   -0.9660 ca        1 0L9     -0.170300
     22 C4          8.1080   -1.0520   -0.4960 ca        1 0L9      0.408600
     23 N           8.7930    0.0630   -0.0680 nb        1 0L9     -0.704000
     24 C7          8.1040    1.1030    0.3920 ca        1 0L9      0.489600
     25 C16         8.8650    2.3080    0.8480 c3        1 0L9     -0.177400
     26 H1          1.7330    0.0200    1.9360 ha        1 0L9      0.140500
     27 H2          4.2220    0.1840    2.0680 ha        1 0L9      0.179000
     28 H3          1.9680   -0.2570   -2.3860 ha        1 0L9      0.140500
     29 H4          4.4500   -0.1440   -2.2490 ha        1 0L9      0.179000
     30 H5          4.8330    2.2490    0.7940 h1        1 0L9      0.042700
     31 H6          6.3270    5.4890    0.2910 h1        1 0L9      0.029700
     32 H7          4.7240    4.6480    0.5960 h1        1 0L9      0.029700
     33 H8          5.9420    4.8090    1.9600 h1        1 0L9      0.029700
     34 H10         4.9390   -2.3420   -0.9040 ha        1 0L9      0.152000
     35 H11         8.7670   -4.1820   -1.7550 ha        1 0L9      0.133000
     36 H12         9.9430   -2.1430   -0.9720 ha        1 0L9      0.143000
     37 H13         8.7320    3.1220    0.0920 hc        1 0L9      0.074700
     38 H14         8.4410    2.6700    1.8250 hc        1 0L9      0.074700
     39 H15         9.9550    2.1000    0.9710 hc        1 0L9      0.074700
@<TRIPOS>BOND
     1    1    2 1   
     2    2    3 ar  
     3    2    5 ar  
     4    3    4 ar  
     5    3   26 1   
     6    4    7 ar  
     7    4   27 1   
     8    5    6 ar  
     9    5   28 1   
    10    6    7 ar  
    11    6   29 1   
    12    7    8 1   
    13    8    9 ar  
    14    8   16 ar  
    15    9   10 1   
    16    9   24 ar  
    17   10   11 1   
    18   10   13 1   
    19   10   30 1   
    20   11   12 1   
    21   12   31 1   
    22   12   32 1   
    23   12   33 1   
    24   13   14 1   
    25   13   15 1   
    26   16   17 ar  
    27   16   22 ar  
    28   17   18 ar  
    29   17   34 1   
    30   18   19 1   
    31   18   20 ar  
    32   20   21 ar  
    33   20   35 1   
    34   21   22 ar  
    35   21   36 1   
    36   22   23 ar  
    37   23   24 ar  
    38   24   25 1   
    39   25   37 1   
    40   25   38 1   
    41   25   39 1   
@<TRIPOS>SUBSTRUCTURE
     1 0L9         1 TEMP              0 ****  ****    0 ROOT
