@<TRIPOS>MOLECULE
0LA
   30    22     1     0     0
SMALL
bcc


@<TRIPOS>ATOM
      1 CL         -5.6870    0.1020    2.4850 cl        1 0LA     -0.053000
      2 C3         -3.9440    0.0630    2.4490 c1        1 0LA     -0.091000
      3 C2         -3.2770    0.0180    3.6670 c1        1 0LA     -0.137000
      4 C1         -1.8920   -0.0400    3.6980 c1        1 0LA     -0.137000
      5 C9A        -1.1620   -0.0520    2.4970 c1        1 0LA     -0.013000
      6 N9          0.1980   -0.0850    2.2390 n1        1 0LA     -0.207000
      7 C4         -3.2250    0.0510    1.2630 c1        1 0LA     -0.088000
      8 C4A        -1.8220   -0.0070    1.2930 c1        1 0LA     -0.013000
      9 C4B        -0.8640   -0.0130    0.2770 c1        1 0LA     -0.114000
     10 C5         -0.9760    0.0320   -1.1220 c1        1 0LA     -0.087000
     11 C6          0.1660    0.0260   -1.9100 c1        1 0LA     -0.138000
     12 C8A         0.3760   -0.0610    0.8660 c1        1 0LA      0.006000
     13 C8          1.5320   -0.0660    0.0670 c1        1 0LA     -0.166000
     14 C7          1.4210   -0.0220   -1.3150 c1        1 0LA      0.032000
     15 C10         2.7580   -0.0950   -2.0190 c3        1 0LA     -0.173000
     16 C14         2.9410    1.1340   -2.8810 c3        1 0LA     -0.180000
     17 C11         2.8040   -1.3330   -2.8880 c1        1 0LA      0.344000
     18 O13         2.8620   -2.4730   -2.3570 o         1 0LA     -0.557000
     19 O12         2.7700   -1.2230   -4.1420 os        1 0LA     -0.573000
     20 H1         -3.7830    0.0330    4.5010 ha        1 0LA      0.132000
     21 H2         -1.4230   -0.0720    4.5530 ha        1 0LA      0.132000
     22 H3          0.8610   -0.1210    2.8650 DU        1 0LA      0.216000
     23 H4         -3.6930    0.0980    0.4080 ha        1 0LA      0.148000
     24 H5         -1.8580    0.0660   -1.5400 ha        1 0LA      0.123000
     25 H6          0.0880    0.0570   -2.8830 ha        1 0LA      0.190000
     26 H7          2.4140   -0.0820    0.4850 ha        1 0LA      0.132000
     27 H8          3.4720   -0.1360   -1.3550 hc        1 0LA      0.086000
     28 H9          2.6560    1.9290   -2.3830 hc        1 0LA      0.062000
     29 H10         2.4000    1.0470   -3.6940 hc        1 0LA      0.062000
     30 H11         3.8860    1.2240   -3.1260 hc        1 0LA      0.062000
@<TRIPOS>BOND
     1    1    2 1   
     2    2    7 1   
     3    3    4 1   
     4    3   20 1   
     5    4   21 1   
     6    5    8 1   
     7    6   12 1   
     8    7   23 1   
     9    9   10 1   
    10   10   24 1   
    11   11   14 1   
    12   11   25 1   
    13   12   13 1   
    14   13   26 1   
    15   14   15 1   
    16   15   16 1   
    17   15   17 1   
    18   15   27 1   
    19   16   28 1   
    20   16   29 1   
    21   16   30 1   
    22   17   18 1   
@<TRIPOS>SUBSTRUCTURE
     1 0LA         1 TEMP              0 ****  ****    0 ROOT
