@<TRIPOS>MOLECULE
0LA
   30    32     1     0     0
SMALL
bcc


@<TRIPOS>ATOM
      1 CL          0.0490   -0.2280    0.0740 cl        1 0LA     -0.131400
      2 C3          1.7520   -0.1050    0.0330 ca        1 0LA     -0.012600
      3 C2          2.4510    0.0280    1.2370 ca        1 0LA     -0.120000
      4 C1          3.8420    0.1350    1.2460 ca        1 0LA     -0.154000
      5 C9A         4.5190    0.1050    0.0260 ca        1 0LA     -0.032200
      6 N9          5.8950    0.2810   -0.2390 na        1 0LA     -0.166300
      7 C4          2.4070   -0.1430   -1.2040 ca        1 0LA     -0.088000
      8 C4A         3.7880   -0.0450   -1.2170 cp        1 0LA     -0.039000
      9 C4B         4.7810   -0.0600   -2.2770 cp        1 0LA     -0.114000
     10 C5          4.7140   -0.2040   -3.6590 ca        1 0LA     -0.087000
     11 C6          5.8920   -0.1950   -4.3970 ca        1 0LA     -0.138000
     12 C8A         6.0640    0.0910   -1.6410 ca        1 0LA     -0.039200
     13 C8          7.2410    0.1010   -2.3880 ca        1 0LA     -0.166000
     14 C7          7.1490   -0.0380   -3.7800 ca        1 0LA      0.024700
     15 C10         8.3860   -0.0200   -4.6100 c3        1 0LA     -0.176400
     16 C14         8.4630    1.2410   -5.4430 c3        1 0LA     -0.062100
     17 C11         8.4520   -1.2590   -5.5610 c         1 0LA      0.924600
     18 O13         7.6210   -1.3290   -6.5100 o         1 0LA     -0.830300
     19 O12         9.3570   -2.1050   -5.3300 o         1 0LA     -0.830300
     20 H1          1.9030    0.0490    2.1910 ha        1 0LA      0.133000
     21 H2          4.3830    0.2440    2.1950 ha        1 0LA      0.131000
     22 H3          6.5650   -0.1040    0.3830 hn        1 0LA      0.265700
     23 H4          1.8440   -0.2500   -2.1420 ha        1 0LA      0.148000
     24 H5          3.7420   -0.3300   -4.1560 ha        1 0LA      0.123000
     25 H6          5.8810   -0.3560   -5.4920 ha        1 0LA      0.190000
     26 H7          8.2210    0.2070   -1.9040 ha        1 0LA      0.132000
     27 H8          9.2860   -0.0730   -3.9370 hc        1 0LA      0.046700
     28 H9          7.6350    1.2500   -6.1930 hc        1 0LA      0.022700
     29 H10         8.3890    2.1530   -4.8040 hc        1 0LA      0.022700
     30 H11         9.4350    1.2660   -5.9910 hc        1 0LA      0.022700
@<TRIPOS>BOND
     1    1    2 1   
     2    2    3 ar  
     3    2    7 ar  
     4    3    4 ar  
     5    3   20 1   
     6    4    5 ar  
     7    4   21 1   
     8    5    6 1   
     9    5    8 ar  
    10    6   12 1   
    11    6   22 1   
    12    7    8 ar  
    13    7   23 1   
    14    8    9 1   
    15    9   10 ar  
    16    9   12 ar  
    17   10   11 ar  
    18   10   24 1   
    19   11   14 ar  
    20   11   25 1   
    21   12   13 ar  
    22   13   14 ar  
    23   13   26 1   
    24   14   15 1   
    25   15   16 1   
    26   15   17 1   
    27   15   27 1   
    28   16   28 1   
    29   16   29 1   
    30   16   30 1   
    31   17   18 1   
    32   17   19 1   
@<TRIPOS>SUBSTRUCTURE
     1 0LA         1 TEMP              0 ****  ****    0 ROOT
