@<TRIPOS>MOLECULE
0LA
   30    32     1     0     0
SMALL
bcc


@<TRIPOS>ATOM
      1 Cl          0.0630   -0.2480    0.1040 cl        1 0LA     -0.131400
      2 C3          1.7660   -0.1200    0.0540 ca        1 0LA     -0.012600
      3 C2          2.4710    0.0140    1.2540 ca        1 0LA     -0.120000
      4 C1          3.8620    0.1260    1.2560 ca        1 0LA     -0.154000
      5 C9A         4.5320    0.0990    0.0330 ca        1 0LA     -0.032200
      6 N9          5.9070    0.2790   -0.2400 na        1 0LA     -0.166300
      7 C4          2.4150   -0.1530   -1.1870 ca        1 0LA     -0.088000
      8 C4A         3.7960   -0.0510   -1.2070 cp        1 0LA     -0.039000
      9 C4B         4.7820   -0.0620   -2.2730 cp        1 0LA     -0.114000
     10 C5          4.7080   -0.2040   -3.6540 ca        1 0LA     -0.087000
     11 C6          5.8830   -0.1910   -4.3980 ca        1 0LA     -0.138000
     12 C8A         6.0690    0.0930   -1.6430 ca        1 0LA     -0.039200
     13 C8          7.2420    0.1070   -2.3960 ca        1 0LA     -0.166000
     14 C7          7.1430   -0.0300   -3.7880 ca        1 0LA      0.024700
     15 C10         8.3750   -0.0070   -4.6250 c3        1 0LA     -0.176400
     16 C14         8.4440    1.2550   -5.4560 c3        1 0LA     -0.062100
     17 C11         8.4400   -1.2450   -5.5780 c         1 0LA      0.924600
     18 O13         7.6040   -1.3160   -6.5210 o         1 0LA     -0.830300
     19 O12         9.3480   -2.0870   -5.3520 o         1 0LA     -0.830300
     20 H1          1.9290    0.0320    2.2110 ha        1 0LA      0.133000
     21 H2          4.4080    0.2350    2.2020 ha        1 0LA      0.131000
     22 H3          6.5800   -0.1040    0.3790 hn        1 0LA      0.265700
     23 H4          1.8470   -0.2610   -2.1220 ha        1 0LA      0.148000
     24 H5          3.7350   -0.3320   -4.1460 ha        1 0LA      0.123000
     25 H6          5.8660   -0.3500   -5.4940 ha        1 0LA      0.190000
     26 H7          8.2240    0.2150   -1.9170 ha        1 0LA      0.132000
     27 H8          9.2790   -0.0580   -3.9570 hc        1 0LA      0.046700
     28 H9          7.6110    1.2620   -6.2020 hc        1 0LA      0.022700
     29 H10         8.3690    2.1670   -4.8160 hc        1 0LA      0.022700
     30 H11         9.4120    1.2840   -6.0100 hc        1 0LA      0.022700
@<TRIPOS>BOND
     1    1    2 1   
     2    2    3 ar  
     3    2    7 ar  
     4    3    4 ar  
     5    3   20 1   
     6    4    5 ar  
     7    4   21 1   
     8    5    6 1   
     9    5    8 ar  
    10    6   12 1   
    11    6   22 1   
    12    7    8 ar  
    13    7   23 1   
    14    8    9 1   
    15    9   10 ar  
    16    9   12 ar  
    17   10   11 ar  
    18   10   24 1   
    19   11   14 ar  
    20   11   25 1   
    21   12   13 ar  
    22   13   14 ar  
    23   13   26 1   
    24   14   15 1   
    25   15   16 1   
    26   15   17 1   
    27   15   27 1   
    28   16   28 1   
    29   16   29 1   
    30   16   30 1   
    31   17   18 1   
    32   17   19 1   
@<TRIPOS>SUBSTRUCTURE
     1 0LA         1 TEMP              0 ****  ****    0 ROOT
