@<TRIPOS>MOLECULE
0LA
   30    32     1     0     0
SMALL
bcc


@<TRIPOS>ATOM
      1 CL          0.0480   -0.2010    0.0760 cl        1 0LA     -0.131400
      2 C3          1.7530   -0.0970    0.0350 ca        1 0LA     -0.012600
      3 C2          2.4550    0.0120    1.2400 ca        1 0LA     -0.120000
      4 C1          3.8470    0.1040    1.2490 ca        1 0LA     -0.154000
      5 C9A         4.5220    0.0830    0.0290 ca        1 0LA     -0.032200
      6 N9          5.9000    0.2470   -0.2360 na        1 0LA     -0.166300
      7 C4          2.4070   -0.1240   -1.2030 ca        1 0LA     -0.088000
      8 C4A         3.7890   -0.0410   -1.2160 cp        1 0LA     -0.039000
      9 C4B         4.7800   -0.0530   -2.2770 cp        1 0LA     -0.114000
     10 C5          4.7110   -0.1770   -3.6600 ca        1 0LA     -0.087000
     11 C6          5.8880   -0.1720   -4.3990 ca        1 0LA     -0.138000
     12 C8A         6.0660    0.0750   -1.6400 ca        1 0LA     -0.039200
     13 C8          7.2420    0.0820   -2.3890 ca        1 0LA     -0.166000
     14 C7          7.1470   -0.0370   -3.7820 ca        1 0LA      0.024700
     15 C10         8.3840   -0.0220   -4.6130 c3        1 0LA     -0.176400
     16 C14         8.4740    1.2490   -5.4290 c3        1 0LA     -0.062100
     17 C11         8.4350   -1.2490   -5.5810 c         1 0LA      0.924600
     18 O13         7.6030   -1.2960   -6.5290 o         1 0LA     -0.830300
     19 O12         9.3310   -2.1070   -5.3620 o         1 0LA     -0.830300
     20 H1          1.9080    0.0260    2.1950 ha        1 0LA      0.133000
     21 H2          4.3900    0.1940    2.1990 ha        1 0LA      0.131000
     22 H3          6.5660   -0.1540    0.3810 hn        1 0LA      0.265700
     23 H4          1.8420   -0.2120   -2.1420 ha        1 0LA      0.148000
     24 H5          3.7370   -0.2860   -4.1590 ha        1 0LA      0.123000
     25 H6          5.8740   -0.3170   -5.4970 ha        1 0LA      0.190000
     26 H7          8.2240    0.1700   -1.9040 ha        1 0LA      0.132000
     27 H8          9.2840   -0.0940   -3.9420 hc        1 0LA      0.046700
     28 H9          8.4100    2.1540   -4.7780 hc        1 0LA      0.022700
     29 H10         7.6450    1.2780   -6.1780 hc        1 0LA      0.022700
     30 H11         9.4460    1.2710   -5.9780 hc        1 0LA      0.022700
@<TRIPOS>BOND
     1    1    2 1   
     2    2    3 ar  
     3    2    7 ar  
     4    3    4 ar  
     5    3   20 1   
     6    4    5 ar  
     7    4   21 1   
     8    5    6 1   
     9    5    8 ar  
    10    6   12 1   
    11    6   22 1   
    12    7    8 ar  
    13    7   23 1   
    14    8    9 1   
    15    9   10 ar  
    16    9   12 ar  
    17   10   11 ar  
    18   10   24 1   
    19   11   14 ar  
    20   11   25 1   
    21   12   13 ar  
    22   13   14 ar  
    23   13   26 1   
    24   14   15 1   
    25   15   16 1   
    26   15   17 1   
    27   15   27 1   
    28   16   28 1   
    29   16   29 1   
    30   16   30 1   
    31   17   18 1   
    32   17   19 1   
@<TRIPOS>SUBSTRUCTURE
     1 0LA         1 TEMP              0 ****  ****    0 ROOT
