@<TRIPOS>MOLECULE
0LA
   30    32     1     0     0
SMALL
bcc


@<TRIPOS>ATOM
      1 CL          5.4100    1.3430    0.1430 cl        1 0LA     -0.131400
      2 C3          4.0670    0.2880    0.1150 ca        1 0LA     -0.012600
      3 C2          4.2820   -1.0870    0.2490 ca        1 0LA     -0.120000
      4 C1          3.2120   -1.9810    0.2280 ca        1 0LA     -0.154000
      5 C9A         1.9220   -1.4720    0.0710 ca        1 0LA     -0.032200
      6 N9          0.6970   -2.1610   -0.0700 na        1 0LA     -0.166300
      7 C4          2.7830    0.8260   -0.0400 ca        1 0LA     -0.088000
      8 C4A         1.7060   -0.0430   -0.0570 cp        1 0LA     -0.039000
      9 C4B         0.2710    0.1450   -0.1810 cp        1 0LA     -0.114000
     10 C5         -0.5470    1.2630   -0.3000 ca        1 0LA     -0.087000
     11 C6         -1.9240    1.0870   -0.3770 ca        1 0LA     -0.138000
     12 C8A        -0.3210   -1.1670   -0.1350 ca        1 0LA     -0.039200
     13 C8         -1.7030   -1.3360   -0.2140 ca        1 0LA     -0.166000
     14 C7         -2.5080   -0.1950   -0.3420 ca        1 0LA      0.024700
     15 C10        -3.9870   -0.3400   -0.4410 c3        1 0LA     -0.176400
     16 C14        -4.4760    0.0150   -1.8280 c3        1 0LA     -0.062100
     17 C11        -4.7200    0.5670    0.6010 c         1 0LA      0.924600
     18 O13        -4.6680    1.8190    0.4440 o         1 0LA     -0.830300
     19 O12        -5.3410   -0.0200    1.5260 o         1 0LA     -0.830300
     20 H1          5.3040   -1.4730    0.3740 ha        1 0LA      0.133000
     21 H2          3.3890   -3.0600    0.3290 ha        1 0LA      0.131000
     22 H3          0.5360   -2.9820    0.4630 hn        1 0LA      0.265700
     23 H4          2.6300    1.9100   -0.1420 ha        1 0LA      0.148000
     24 H5         -0.1100    2.2700   -0.3270 ha        1 0LA      0.123000
     25 H6         -2.6100    1.9550   -0.4240 ha        1 0LA      0.190000
     26 H7         -2.1570   -2.3350   -0.1700 ha        1 0LA      0.132000
     27 H8         -4.2740   -1.4030   -0.2110 hc        1 0LA      0.046700
     28 H9         -3.9550   -0.5890   -2.6090 hc        1 0LA      0.022700
     29 H10        -5.5740   -0.1790   -1.8980 hc        1 0LA      0.022700
     30 H11        -4.2980    1.1010   -2.0250 hc        1 0LA      0.022700
@<TRIPOS>BOND
     1    1    2 1   
     2    2    3 ar  
     3    2    7 ar  
     4    3    4 ar  
     5    3   20 1   
     6    4    5 ar  
     7    4   21 1   
     8    5    6 1   
     9    5    8 ar  
    10    6   12 1   
    11    6   22 1   
    12    7    8 ar  
    13    7   23 1   
    14    8    9 1   
    15    9   10 ar  
    16    9   12 ar  
    17   10   11 ar  
    18   10   24 1   
    19   11   14 ar  
    20   11   25 1   
    21   12   13 ar  
    22   13   14 ar  
    23   13   26 1   
    24   14   15 1   
    25   15   16 1   
    26   15   17 1   
    27   15   27 1   
    28   16   28 1   
    29   16   29 1   
    30   16   30 1   
    31   17   18 1   
    32   17   19 1   
@<TRIPOS>SUBSTRUCTURE
     1 0LA         1 TEMP              0 ****  ****    0 ROOT
