@<TRIPOS>MOLECULE
0LB
   57    60     1     0     0
SMALL
bcc


@<TRIPOS>ATOM
      1 N29         1.6460   -1.3250    0.2730 n1        1 0LB     -0.240800
      2 C28         0.7420   -0.5960    0.2720 c1        1 0LB      0.188700
      3 C25        -0.3900    0.2910    0.3020 cx        1 0LB      0.089300
      4 C27        -0.7880    0.8840    1.6550 cx        1 0LB     -0.076900
      5 C26        -1.6430   -0.1740    1.0400 cx        1 0LB     -0.076900
      6 N24        -0.5040    1.1260   -0.9150 n4        1 0LB     -0.646800
      7 C22        -0.9290    0.3970   -2.1770 c         1 0LB      0.552100
      8 O23        -1.0830   -0.8100   -2.1120 o         1 0LB     -0.400100
      9 C18        -1.1150    1.2860   -3.3920 c3        1 0LB     -0.112700
     10 C16        -2.5040    1.0100   -3.9650 c3        1 0LB     -0.082400
     11 C20        -0.0240    0.9810   -4.4310 c3        1 0LB     -0.125700
     12 C21        -0.2800    1.8280   -5.6750 c3        1 0LB     -0.078400
     13 C19        -1.6570    1.5680   -6.2460 c3        1 0LB     -0.087400
     14 C17        -2.7360    1.8290   -5.2170 c3        1 0LB     -0.081400
     15 C14         1.3560    1.3120   -3.8610 c         1 0LB      0.662100
     16 O15         1.4240    1.9540   -2.7740 o         1 0LB     -0.722100
     17 N8          2.4980    0.9390   -4.5080 n         1 0LB     -0.422800
     18 C10         2.5340    0.1630   -5.7300 c3        1 0LB      0.077500
     19 C12         3.5970   -0.9630   -5.7030 c3        1 0LB      0.168300
     20 N11         4.8960   -0.4640   -5.2950 nh        1 0LB     -0.631000
     21 C9          4.8450    0.2190   -4.0110 c3        1 0LB      0.168300
     22 C7          3.7990    1.3550   -4.0050 c3        1 0LB      0.077500
     23 C2          5.9910   -1.3640   -5.4490 ca        1 0LB      0.091600
     24 C4          7.3040   -0.8410   -5.4410 ca        1 0LB     -0.129500
     25 C6          8.4000   -1.6650   -5.6520 ca        1 0LB     -0.144500
     26 C5          8.2110   -3.0400   -5.8840 ca        1 0LB      0.122900
     27 F13         9.2780   -3.8450   -6.0930 f         1 0LB     -0.129900
     28 C3          6.9110   -3.5740   -5.8980 ca        1 0LB     -0.144500
     29 C1          5.8180   -2.7450   -5.6770 ca        1 0LB     -0.129500
     30 H3         -0.1460    0.6380    2.5250 hc        1 0LB      0.116700
     31 H4         -1.1570    1.9270    1.7020 hc        1 0LB      0.116700
     32 H5         -1.6350   -1.2020    1.4570 hc        1 0LB      0.116700
     33 H6         -2.6380    0.0940    0.6360 hc        1 0LB      0.116700
     34 H7          0.4240    1.5590   -1.1140 hn        1 0LB      0.483800
     35 H8         -1.0340    2.3760   -3.1150 hc        1 0LB      0.101700
     36 H9         -3.2810    1.2660   -3.1980 hc        1 0LB      0.065700
     37 H10        -2.6000   -0.0830   -4.2010 hc        1 0LB      0.065700
     38 H11        -0.0830   -0.1120   -4.6930 hc        1 0LB      0.095700
     39 H12         0.4950    1.5930   -6.4520 hc        1 0LB      0.069200
     40 H13        -0.1760    2.9140   -5.4120 hc        1 0LB      0.069200
     41 H14        -1.7260    0.5070   -6.6040 hc        1 0LB      0.065700
     42 H15        -1.8190    2.2330   -7.1350 hc        1 0LB      0.065700
     43 H16        -2.7570    2.9210   -4.9590 hc        1 0LB      0.065700
     44 H17        -3.7390    1.5650   -5.6450 hc        1 0LB      0.065700
     45 H18         1.5400   -0.3250   -5.9240 h1        1 0LB      0.071450
     46 H19         2.7640    0.8630   -6.5860 h1        1 0LB      0.071450
     47 H20         3.2240   -1.7890   -5.0290 h1        1 0LB      0.056200
     48 H21         3.6830   -1.3700   -6.7490 h1        1 0LB      0.056200
     49 H22         4.6150   -0.4950   -3.1680 h1        1 0LB      0.056200
     50 H23         5.8500    0.6850   -3.8100 h1        1 0LB      0.056200
     51 H24         3.6970    1.7320   -2.9490 h1        1 0LB      0.071450
     52 H25         4.1650    2.2010   -4.6550 h1        1 0LB      0.071450
     53 H26         7.4730    0.2360   -5.2780 ha        1 0LB      0.139000
     54 H27         9.4190   -1.2510   -5.6470 ha        1 0LB      0.157000
     55 H28         6.7660   -4.6500   -6.0810 ha        1 0LB      0.157000
     56 H29         4.8140   -3.1950   -5.6890 ha        1 0LB      0.139000
     57 H242       -1.1760    1.8800   -0.7350 hn        1 0LB      0.483800
@<TRIPOS>BOND
     1    1    2 3   
     2    2    3 1   
     3    3    4 1   
     4    3    5 1   
     5    3    6 1   
     6    4    5 1   
     7    4   30 1   
     8    4   31 1   
     9    5   32 1   
    10    5   33 1   
    11    6    7 1   
    12    6   34 1   
    13    6   57 1   
    14    7    8 2   
    15    7    9 1   
    16    9   10 1   
    17    9   11 1   
    18    9   35 1   
    19   10   14 1   
    20   10   36 1   
    21   10   37 1   
    22   11   12 1   
    23   11   15 1   
    24   11   38 1   
    25   12   13 1   
    26   12   39 1   
    27   12   40 1   
    28   13   14 1   
    29   13   41 1   
    30   13   42 1   
    31   14   43 1   
    32   14   44 1   
    33   15   16 2   
    34   15   17 1   
    35   17   18 1   
    36   17   22 1   
    37   18   19 1   
    38   18   45 1   
    39   18   46 1   
    40   19   20 1   
    41   19   47 1   
    42   19   48 1   
    43   20   21 1   
    44   20   23 1   
    45   21   22 1   
    46   21   49 1   
    47   21   50 1   
    48   22   51 1   
    49   22   52 1   
    50   23   24 ar  
    51   23   29 ar  
    52   24   25 ar  
    53   24   53 1   
    54   25   26 ar  
    55   25   54 1   
    56   26   27 1   
    57   26   28 ar  
    58   28   29 ar  
    59   28   55 1   
    60   29   56 1   
@<TRIPOS>SUBSTRUCTURE
     1 0LB         1 TEMP              0 ****  ****    0 ROOT
