@<TRIPOS>MOLECULE
0LB
   56    59     1     0     0
SMALL
bcc


@<TRIPOS>ATOM
      1 N29         0.1620    3.1790    0.9380 n1        1 0LB     -0.372800
      2 C28         1.2780    3.0720    0.6340 c1        1 0LB      0.229700
      3 C25         2.6710    2.9380    0.2520 cx        1 0LB      0.081500
      4 C27         3.5620    4.1380    0.5900 cx        1 0LB     -0.095900
      5 C26         3.1530    3.9050   -0.8280 cx        1 0LB     -0.095900
      6 N24         3.1970    1.6150    0.3540 n         1 0LB     -0.521900
      7 C22         3.2590    0.7510   -0.7300 c         1 0LB      0.656100
      8 O23         3.0390    1.1320   -1.8950 o         1 0LB     -0.602100
      9 C18         3.6740   -0.6950   -0.4330 c3        1 0LB     -0.118700
     10 C16         4.6380   -1.1460   -1.5220 c3        1 0LB     -0.075400
     11 C20         2.4230   -1.5780   -0.4000 c3        1 0LB     -0.121700
     12 C21         2.7990   -3.0510   -0.2880 c3        1 0LB     -0.074400
     13 C19         3.7510   -3.4700   -1.3870 c3        1 0LB     -0.078400
     14 C17         4.9950   -2.6090   -1.3800 c3        1 0LB     -0.079400
     15 C14         1.5510   -1.2200    0.8040 c         1 0LB      0.662100
     16 O15         2.0550   -0.6450    1.7960 o         1 0LB     -0.640100
     17 N8          0.2210   -1.5980    0.8410 n         1 0LB     -0.458800
     18 C10        -0.5030   -2.1720   -0.2670 c3        1 0LB      0.084500
     19 C12        -1.7110   -1.3150   -0.7190 c3        1 0LB      0.159800
     20 N11        -2.5720   -0.9610    0.3960 nh        1 0LB     -0.633000
     21 C9         -1.8420   -0.3420    1.4960 c3        1 0LB      0.159800
     22 C7         -0.6270   -1.1850    1.9420 c3        1 0LB      0.084500
     23 C2         -3.8030   -0.3380    0.0630 ca        1 0LB      0.119600
     24 C4         -4.8070   -0.2230    1.0550 ca        1 0LB     -0.140500
     25 C6         -6.0540    0.3030    0.7530 ca        1 0LB     -0.142500
     26 C5         -6.3400    0.7290   -0.5570 ca        1 0LB      0.098900
     27 F13        -7.5600    1.2400   -0.8540 f         1 0LB     -0.142900
     28 C3         -5.3570    0.6230   -1.5540 ca        1 0LB     -0.142500
     29 C1         -4.1070    0.1030   -1.2440 ca        1 0LB     -0.140500
     30 H3          3.1100    4.9710    1.1570 hc        1 0LB      0.090200
     31 H4          4.6080    3.9480    0.8890 hc        1 0LB      0.090200
     32 H5          3.8940    3.5330   -1.5600 hc        1 0LB      0.090200
     33 H6          2.4030    4.5680   -1.2950 hc        1 0LB      0.090200
     34 H7          3.1660    1.2100    1.2680 hn        1 0LB      0.342500
     35 H8          4.1870   -0.7680    0.5670 hc        1 0LB      0.087700
     36 H9          4.1720   -0.9620   -2.5270 hc        1 0LB      0.060700
     37 H10         5.5670   -0.5210   -1.4630 hc        1 0LB      0.060700
     38 H11         1.8660   -1.3970   -1.3620 hc        1 0LB      0.081700
     39 H12         3.2770   -3.2320    0.7110 hc        1 0LB      0.053700
     40 H13         1.8670   -3.6740   -0.3380 hc        1 0LB      0.053700
     41 H14         4.0320   -4.5460   -1.2430 hc        1 0LB      0.046700
     42 H15         3.2400   -3.3850   -2.3830 hc        1 0LB      0.046700
     43 H16         5.6680   -2.9100   -2.2250 hc        1 0LB      0.046200
     44 H17         5.5600   -2.7720   -0.4240 hc        1 0LB      0.046200
     45 H18         0.1590   -2.3220   -1.1620 h1        1 0LB      0.066450
     46 H19        -0.8800   -3.1860    0.0600 h1        1 0LB      0.066450
     47 H20        -1.3220   -0.4030   -1.2590 h1        1 0LB      0.052700
     48 H21        -2.3090   -1.9300   -1.4470 h1        1 0LB      0.052700
     49 H22        -1.4890    0.6950    1.2210 h1        1 0LB      0.052700
     50 H23        -2.5320   -0.2510    2.3800 h1        1 0LB      0.052700
     51 H24        -0.9930   -2.1160    2.4600 h1        1 0LB      0.066450
     52 H25        -0.0320   -0.5740    2.6780 h1        1 0LB      0.066450
     53 H26        -4.6120   -0.5640    2.0840 ha        1 0LB      0.140000
     54 H27        -6.8260    0.3880    1.5320 ha        1 0LB      0.148000
     55 H28        -5.5810    0.9600   -2.5770 ha        1 0LB      0.148000
     56 H29        -3.3560    0.0460   -2.0470 ha        1 0LB      0.140000
@<TRIPOS>BOND
     1    1    2 3   
     2    2    3 1   
     3    3    4 1   
     4    3    5 1   
     5    3    6 1   
     6    4    5 1   
     7    4   30 1   
     8    4   31 1   
     9    5   32 1   
    10    5   33 1   
    11    6    7 1   
    12    6   34 1   
    13    7    8 2   
    14    7    9 1   
    15    9   10 1   
    16    9   11 1   
    17    9   35 1   
    18   10   14 1   
    19   10   36 1   
    20   10   37 1   
    21   11   12 1   
    22   11   15 1   
    23   11   38 1   
    24   12   13 1   
    25   12   39 1   
    26   12   40 1   
    27   13   14 1   
    28   13   41 1   
    29   13   42 1   
    30   14   43 1   
    31   14   44 1   
    32   15   16 2   
    33   15   17 1   
    34   17   18 1   
    35   17   22 1   
    36   18   19 1   
    37   18   45 1   
    38   18   46 1   
    39   19   20 1   
    40   19   47 1   
    41   19   48 1   
    42   20   21 1   
    43   20   23 1   
    44   21   22 1   
    45   21   49 1   
    46   21   50 1   
    47   22   51 1   
    48   22   52 1   
    49   23   24 ar  
    50   23   29 ar  
    51   24   25 ar  
    52   24   53 1   
    53   25   26 ar  
    54   25   54 1   
    55   26   27 1   
    56   26   28 ar  
    57   28   29 ar  
    58   28   55 1   
    59   29   56 1   
@<TRIPOS>SUBSTRUCTURE
     1 0LB         1 TEMP              0 ****  ****    0 ROOT
