@<TRIPOS>MOLECULE
0LB
   57    60     1     0     0
SMALL
bcc


@<TRIPOS>ATOM
      1 N29        -0.5170   -1.9110    0.7380 n1        1 0LB     -0.240800
      2 C28        -0.1040   -0.9230    0.2900 c1        1 0LB      0.188700
      3 C25         0.4420    0.2920   -0.2530 cx        1 0LB      0.089300
      4 C27         1.8210    0.2170   -0.9110 cx        1 0LB     -0.076900
      5 C26         1.6810    0.8820    0.4190 cx        1 0LB     -0.076900
      6 N24        -0.5880    1.1810   -0.8360 n4        1 0LB     -0.646800
      7 C22        -1.5040    1.8710    0.1610 c         1 0LB      0.552100
      8 O23        -1.3650    1.6020    1.3410 o         1 0LB     -0.400100
      9 C18        -2.5010    2.8340   -0.4540 c3        1 0LB     -0.112700
     10 C16        -2.3620    4.1740    0.2660 c3        1 0LB     -0.082400
     11 C20        -3.9240    2.2760   -0.3030 c3        1 0LB     -0.125700
     12 C21        -4.9150    3.2980   -0.8540 c3        1 0LB     -0.078400
     13 C19        -4.7800    4.6320   -0.1520 c3        1 0LB     -0.087400
     14 C17        -3.3700    5.1710   -0.2650 c3        1 0LB     -0.081400
     15 C14        -4.0620    0.9610   -1.0730 c         1 0LB      0.662100
     16 O15        -3.1360    0.6240   -1.8640 o         1 0LB     -0.722100
     17 N8         -5.1620    0.1670   -0.9280 n         1 0LB     -0.422800
     18 C10        -6.2550    0.4350   -0.0160 c3        1 0LB      0.077500
     19 C12        -6.7130   -0.8200    0.7670 c3        1 0LB      0.168300
     20 N11        -6.9580   -1.9440   -0.1160 nh        1 0LB     -0.631000
     21 C9         -5.8030   -2.2540   -0.9450 c3        1 0LB      0.168300
     22 C7         -5.3240   -1.0250   -1.7470 c3        1 0LB      0.077500
     23 C2         -7.5920   -3.0780    0.4710 ca        1 0LB      0.091600
     24 C4         -8.1980   -4.0310   -0.3800 ca        1 0LB     -0.129500
     25 C6         -8.8840   -5.1170    0.1440 ca        1 0LB     -0.144500
     26 C5         -8.9890   -5.2770    1.5380 ca        1 0LB      0.122900
     27 F13        -9.6600   -6.3330    2.0510 f         1 0LB     -0.129900
     28 C3         -8.3950   -4.3350    2.3960 ca        1 0LB     -0.144500
     29 C1         -7.7010   -3.2540    1.8650 ca        1 0LB     -0.129500
     30 H3          2.0280    0.8280   -1.8100 hc        1 0LB      0.116700
     31 H4          2.2960   -0.7830   -0.9790 hc        1 0LB      0.116700
     32 H5          2.0530    0.3750    1.3320 hc        1 0LB      0.116700
     33 H6          1.7820    1.9810    0.4930 hc        1 0LB      0.116700
     34 H7         -0.1230    1.9010   -1.3990 hn        1 0LB      0.483800
     35 H8         -2.3020    2.9780   -1.5550 hc        1 0LB      0.101700
     36 H9         -1.3240    4.5720    0.1170 hc        1 0LB      0.065700
     37 H10        -2.5180    4.0230    1.3670 hc        1 0LB      0.065700
     38 H11        -4.1210    2.1050    0.7930 hc        1 0LB      0.095700
     39 H12        -5.9610    2.9130   -0.7240 hc        1 0LB      0.069200
     40 H13        -4.7390    3.4280   -1.9550 hc        1 0LB      0.069200
     41 H14        -5.0570    4.5210    0.9290 hc        1 0LB      0.065700
     42 H15        -5.4980    5.3630   -0.6100 hc        1 0LB      0.065700
     43 H16        -3.2820    6.1250    0.3200 hc        1 0LB      0.065700
     44 H17        -3.1400    5.4100   -1.3370 hc        1 0LB      0.065700
     45 H18        -7.1270    0.8300   -0.6160 h1        1 0LB      0.071450
     46 H19        -5.9630    1.2100    0.7430 h1        1 0LB      0.071450
     47 H20        -5.9360   -1.0540    1.5520 h1        1 0LB      0.056200
     48 H21        -7.6770   -0.5590    1.2880 h1        1 0LB      0.056200
     49 H22        -4.9420   -2.6480   -0.3310 h1        1 0LB      0.056200
     50 H23        -6.0940   -3.0480   -1.6880 h1        1 0LB      0.056200
     51 H24        -6.0770   -0.7890   -2.5530 h1        1 0LB      0.071450
     52 H25        -4.3440   -1.2860   -2.2380 h1        1 0LB      0.071450
     53 H26        -8.1420   -3.9150   -1.4740 ha        1 0LB      0.139000
     54 H27        -9.3550   -5.8540   -0.5240 ha        1 0LB      0.157000
     55 H28        -8.4810   -4.4620    3.4860 ha        1 0LB      0.157000
     56 H29        -7.2430   -2.5380    2.5640 ha        1 0LB      0.139000
     57 H242       -1.1990    0.6190   -1.4680 hn        1 0LB      0.483800
@<TRIPOS>BOND
     1    1    2 3   
     2    2    3 1   
     3    3    4 1   
     4    3    5 1   
     5    3    6 1   
     6    4    5 1   
     7    4   30 1   
     8    4   31 1   
     9    5   32 1   
    10    5   33 1   
    11    6    7 1   
    12    6   34 1   
    13    6   57 1   
    14    7    8 2   
    15    7    9 1   
    16    9   10 1   
    17    9   11 1   
    18    9   35 1   
    19   10   14 1   
    20   10   36 1   
    21   10   37 1   
    22   11   12 1   
    23   11   15 1   
    24   11   38 1   
    25   12   13 1   
    26   12   39 1   
    27   12   40 1   
    28   13   14 1   
    29   13   41 1   
    30   13   42 1   
    31   14   43 1   
    32   14   44 1   
    33   15   16 2   
    34   15   17 1   
    35   17   18 1   
    36   17   22 1   
    37   18   19 1   
    38   18   45 1   
    39   18   46 1   
    40   19   20 1   
    41   19   47 1   
    42   19   48 1   
    43   20   21 1   
    44   20   23 1   
    45   21   22 1   
    46   21   49 1   
    47   21   50 1   
    48   22   51 1   
    49   22   52 1   
    50   23   24 ar  
    51   23   29 ar  
    52   24   25 ar  
    53   24   53 1   
    54   25   26 ar  
    55   25   54 1   
    56   26   27 1   
    57   26   28 ar  
    58   28   29 ar  
    59   28   55 1   
    60   29   56 1   
@<TRIPOS>SUBSTRUCTURE
     1 0LB         1 TEMP              0 ****  ****    0 ROOT
