@<TRIPOS>MOLECULE
0LB
   57    60     1     0     0
SMALL
bcc


@<TRIPOS>ATOM
      1 N29        -0.5120   -1.9210    0.7190 n1        1 0LB     -0.240800
      2 C28        -0.0990   -0.9340    0.2670 c1        1 0LB      0.188700
      3 C25         0.4450    0.2790   -0.2810 cx        1 0LB      0.089300
      4 C27         1.8190    0.2000   -0.9500 cx        1 0LB     -0.076900
      5 C26         1.6900    0.8660    0.3800 cx        1 0LB     -0.076900
      6 N24        -0.5880    1.1700   -0.8570 ny        1 0LB     -0.646800
      7 C22        -1.4950    1.8610    0.1470 c         1 0LB      0.552100
      8 O23        -1.3490    1.5910    1.3260 o         1 0LB     -0.400100
      9 C18        -2.4930    2.8280   -0.4610 c3        1 0LB     -0.112700
     10 C16        -2.3450    4.1670    0.2600 c3        1 0LB     -0.082400
     11 C20        -3.9170    2.2740   -0.3010 c3        1 0LB     -0.125700
     12 C21        -4.9080    3.3000   -0.8450 c3        1 0LB     -0.078400
     13 C19        -4.7650    4.6320   -0.1420 c3        1 0LB     -0.087400
     14 C17        -3.3540    5.1670   -0.2640 c3        1 0LB     -0.081400
     15 C14        -4.0640    0.9600   -1.0710 c         1 0LB      0.662100
     16 O15        -3.1440    0.6210   -1.8680 o         1 0LB     -0.722100
     17 N8         -5.1650    0.1690   -0.9200 n         1 0LB     -0.422800
     18 C10        -6.2520    0.4400   -0.0020 c3        1 0LB      0.077500
     19 C12        -6.7110   -0.8140    0.7810 c3        1 0LB      0.168300
     20 N11        -6.9650   -1.9360   -0.1020 nh        1 0LB     -0.631000
     21 C9         -5.8150   -2.2490   -0.9370 c3        1 0LB      0.168300
     22 C7         -5.3350   -1.0210   -1.7400 c3        1 0LB      0.077500
     23 C2         -7.6010   -3.0670    0.4870 ca        1 0LB      0.091600
     24 C4         -8.2160   -4.0160   -0.3630 ca        1 0LB     -0.129500
     25 C6         -8.9050   -5.0990    0.1630 ca        1 0LB     -0.144500
     26 C5         -9.0030   -5.2610    1.5570 ca        1 0LB      0.122900
     27 F13        -9.6770   -6.3160    2.0710 f         1 0LB     -0.129900
     28 C3         -8.4000   -4.3240    2.4130 ca        1 0LB     -0.144500
     29 C1         -7.7040   -3.2460    1.8810 ca        1 0LB     -0.129500
     30 H3          2.2910   -0.8000   -1.0220 hc        1 0LB      0.116700
     31 H4          2.0200    0.8110   -1.8500 hc        1 0LB      0.116700
     32 H5          1.7950    1.9660    0.4530 hc        1 0LB      0.116700
     33 H6          2.0680    0.3590    1.2910 hc        1 0LB      0.116700
     34 H7         -1.2040    0.6090   -1.4840 hn        1 0LB      0.483800
     35 H8         -2.3010    2.9730   -1.5620 hc        1 0LB      0.101700
     36 H9         -2.4950    4.0160    1.3620 hc        1 0LB      0.065700
     37 H10        -1.3080    4.5620    0.1040 hc        1 0LB      0.065700
     38 H11        -4.1070    2.1030    0.7960 hc        1 0LB      0.095700
     39 H12        -4.7390    3.4300   -1.9470 hc        1 0LB      0.069200
     40 H13        -5.9540    2.9170   -0.7080 hc        1 0LB      0.069200
     41 H14        -5.4840    5.3660   -0.5950 hc        1 0LB      0.065700
     42 H15        -5.0360    4.5220    0.9410 hc        1 0LB      0.065700
     43 H16        -3.2590    6.1200    0.3210 hc        1 0LB      0.065700
     44 H17        -3.1300    5.4070   -1.3370 hc        1 0LB      0.065700
     45 H18        -5.9520    1.2130    0.7570 h1        1 0LB      0.071450
     46 H19        -7.1250    0.8400   -0.5960 h1        1 0LB      0.071450
     47 H20        -7.6710   -0.5500    1.3080 h1        1 0LB      0.056200
     48 H21        -5.9300   -1.0520    1.5620 h1        1 0LB      0.056200
     49 H22        -6.1140   -3.0410   -1.6790 h1        1 0LB      0.056200
     50 H23        -4.9530   -2.6480   -0.3280 h1        1 0LB      0.056200
     51 H24        -4.3590   -1.2850   -2.2350 h1        1 0LB      0.071450
     52 H25        -6.0910   -0.7810   -2.5420 h1        1 0LB      0.071450
     53 H26        -8.1650   -3.8980   -1.4570 ha        1 0LB      0.139000
     54 H27        -9.3830   -5.8330   -0.5040 ha        1 0LB      0.157000
     55 H28        -8.4810   -4.4530    3.5030 ha        1 0LB      0.157000
     56 H29        -7.2390   -2.5330    2.5790 ha        1 0LB      0.139000
     57 H242       -0.1250    1.8890   -1.4220 hn        1 0LB      0.483800
@<TRIPOS>BOND
     1    1    2 3   
     2    2    3 1   
     3    3    4 1   
     4    3    5 1   
     5    3    6 1   
     6    4    5 1   
     7    4   30 1   
     8    4   31 1   
     9    5   32 1   
    10    5   33 1   
    11    6    7 1   
    12    6   34 1   
    13    6   57 1   
    14    7    8 2   
    15    7    9 1   
    16    9   10 1   
    17    9   11 1   
    18    9   35 1   
    19   10   14 1   
    20   10   36 1   
    21   10   37 1   
    22   11   12 1   
    23   11   15 1   
    24   11   38 1   
    25   12   13 1   
    26   12   39 1   
    27   12   40 1   
    28   13   14 1   
    29   13   41 1   
    30   13   42 1   
    31   14   43 1   
    32   14   44 1   
    33   15   16 2   
    34   15   17 1   
    35   17   18 1   
    36   17   22 1   
    37   18   19 1   
    38   18   45 1   
    39   18   46 1   
    40   19   20 1   
    41   19   47 1   
    42   19   48 1   
    43   20   21 1   
    44   20   23 1   
    45   21   22 1   
    46   21   49 1   
    47   21   50 1   
    48   22   51 1   
    49   22   52 1   
    50   23   24 ar  
    51   23   29 ar  
    52   24   25 ar  
    53   24   53 1   
    54   25   26 ar  
    55   25   54 1   
    56   26   27 1   
    57   26   28 ar  
    58   28   29 ar  
    59   28   55 1   
    60   29   56 1   
@<TRIPOS>SUBSTRUCTURE
     1 0LB         1 TEMP              0 ****  ****    0 ROOT
