@<TRIPOS>MOLECULE
0LC
   56    60     1     0     0
SMALL
bcc


@<TRIPOS>ATOM
      1 O24         0.0120   -1.6530   -0.7130 o         1 0LC     -0.426100
      2 C23         0.6530   -0.6910   -0.3190 c         1 0LC      0.570100
      3 N25         0.6470    0.5120   -1.2510 n4        1 0LC     -0.642800
      4 C26         1.7310    0.4640   -2.2600 cx        1 0LC      0.076300
      5 C29         3.0110    0.8590   -1.7380 c1        1 0LC      0.178700
      6 N30         4.0600    1.1760   -1.3530 n1        1 0LC     -0.238800
      7 C28         1.4170    0.8280   -3.7130 cx        1 0LC     -0.074900
      8 C27         1.6980   -0.5950   -3.3620 cx        1 0LC     -0.074900
      9 C18         1.4190   -0.5390    0.9740 c3        1 0LC     -0.108700
     10 C19         2.3450   -1.7450    1.1330 c3        1 0LC     -0.080400
     11 C20         3.1280   -1.6400    2.4260 c3        1 0LC     -0.082400
     12 C22         2.2070   -1.4850    3.6170 c3        1 0LC     -0.087400
     13 C21         1.2660   -0.3120    3.4390 c3        1 0LC     -0.078400
     14 C17         0.4450   -0.4580    2.1610 c3        1 0LC     -0.127700
     15 C15        -0.5010    0.7320    2.0040 c         1 0LC      0.663100
     16 O16        -0.2600    1.5770    1.0970 o         1 0LC     -0.717100
     17 N10        -1.6280    0.8600    2.7680 n         1 0LC     -0.422800
     18 C12        -2.0190   -0.0560    3.8210 c3        1 0LC      0.086000
     19 C13        -2.0090    0.5410    5.2390 c3        1 0LC     -0.040200
     20 C1         -2.6100    1.8910    5.2010 cc        1 0LC     -0.056300
     21 C11        -2.4200    2.0910    2.6800 c3        1 0LC      0.161200
     22 C2         -2.7890    2.6140    4.0130 cd        1 0LC     -0.179400
     23 C5         -3.3780    3.8800    4.3610 ca        1 0LC     -0.051800
     24 C7         -3.7790    4.9980    3.6310 ca        1 0LC     -0.133000
     25 C6         -4.3280    6.0790    4.3250 ca        1 0LC      0.114900
     26 F14        -4.7260    7.1810    3.6440 f         1 0LC     -0.135900
     27 C8         -4.4830    6.0570    5.7390 ca        1 0LC     -0.138000
     28 C9         -4.0910    4.9600    6.4810 ca        1 0LC     -0.109000
     29 C4         -3.5360    3.8630    5.8010 ca        1 0LC     -0.055200
     30 N3         -3.0550    2.6420    6.2880 na        1 0LC     -0.166400
     31 H1         -0.2550    0.5460   -1.7430 hn        1 0LC      0.484300
     32 H4          2.1750    1.4220   -4.2630 hc        1 0LC      0.120200
     33 H5          0.3870    1.1310   -3.9840 hc        1 0LC      0.120200
     34 H6          0.8730   -1.3350   -3.3660 hc        1 0LC      0.120200
     35 H7          2.6630   -1.0540   -3.6570 hc        1 0LC      0.120200
     36 H8          2.0390    0.4040    0.9630 hc        1 0LC      0.106700
     37 H9          1.7350   -2.6880    1.1280 hc        1 0LC      0.066700
     38 H10         3.0550   -1.7900    0.2670 hc        1 0LC      0.066700
     39 H11         3.8290   -0.7650    2.3730 hc        1 0LC      0.067700
     40 H12         3.7520   -2.5640    2.5490 hc        1 0LC      0.067700
     41 H13         2.8190   -1.3290    4.5440 hc        1 0LC      0.064200
     42 H14         1.6140   -2.4270    3.7610 hc        1 0LC      0.064200
     43 H15         1.8520    0.6450    3.3970 hc        1 0LC      0.068200
     44 H16         0.5800   -0.2450    4.3240 hc        1 0LC      0.068200
     45 H17        -0.1480   -1.4150    2.1940 hc        1 0LC      0.093700
     46 H18        -3.0770   -0.3790    3.5870 h1        1 0LC      0.066200
     47 H19        -1.3690   -0.9720    3.8140 h1        1 0LC      0.066200
     48 H20        -2.5840   -0.1490    5.9120 hc        1 0LC      0.070200
     49 H21        -0.9580    0.6050    5.6320 hc        1 0LC      0.070200
     50 H22        -3.3560    1.8480    2.0940 h1        1 0LC      0.077700
     51 H23        -1.8400    2.8730    2.1090 h1        1 0LC      0.077700
     52 H24        -3.6670    5.0330    2.5380 ha        1 0LC      0.149000
     53 H25        -4.9230    6.9370    6.2330 ha        1 0LC      0.159000
     54 H26        -4.2130    4.9470    7.5730 ha        1 0LC      0.148000
     55 H27        -3.0560    2.3560    7.2310 hn        1 0LC      0.309700
     56 H252        0.7360    1.3720   -0.6740 hn        1 0LC      0.484300
@<TRIPOS>BOND
     1    1    2 2   
     2    2    3 1   
     3    2    9 1   
     4    3    4 1   
     5    3   31 1   
     6    3   56 1   
     7    4    5 1   
     8    4    7 1   
     9    4    8 1   
    10    5    6 3   
    11    7    8 1   
    12    7   32 1   
    13    7   33 1   
    14    8   34 1   
    15    8   35 1   
    16    9   10 1   
    17    9   14 1   
    18    9   36 1   
    19   10   11 1   
    20   10   37 1   
    21   10   38 1   
    22   11   12 1   
    23   11   39 1   
    24   11   40 1   
    25   12   13 1   
    26   12   41 1   
    27   12   42 1   
    28   13   14 1   
    29   13   43 1   
    30   13   44 1   
    31   14   15 1   
    32   14   45 1   
    33   15   16 2   
    34   15   17 1   
    35   17   18 1   
    36   17   21 1   
    37   18   19 1   
    38   18   46 1   
    39   18   47 1   
    40   19   20 1   
    41   19   48 1   
    42   19   49 1   
    43   20   22 2   
    44   20   30 1   
    45   21   22 1   
    46   21   50 1   
    47   21   51 1   
    48   22   23 1   
    49   23   24 ar  
    50   23   29 ar  
    51   24   25 ar  
    52   24   52 1   
    53   25   26 1   
    54   25   27 ar  
    55   27   28 ar  
    56   27   53 1   
    57   28   29 ar  
    58   28   54 1   
    59   29   30 1   
    60   30   55 1   
@<TRIPOS>SUBSTRUCTURE
     1 0LC         1 TEMP              0 ****  ****    0 ROOT
