@<TRIPOS>MOLECULE
0LC
   56    60     1     0     0
SMALL
bcc


@<TRIPOS>ATOM
      1 O24         0.0360   -1.6720   -0.6970 o         1 0LC     -0.426100
      2 C23         0.6670   -0.7000   -0.3130 c         1 0LC      0.570100
      3 N25         0.6430    0.4970   -1.2520 ny        1 0LC     -0.642800
      4 C26         1.7220    0.4550   -2.2660 cx        1 0LC      0.076300
      5 C29         3.0000    0.8670   -1.7530 c1        1 0LC      0.178700
      6 N30         4.0480    1.1990   -1.3760 n1        1 0LC     -0.238800
      7 C28         1.3960    0.8070   -3.7200 cx        1 0LC     -0.074900
      8 C27         1.6960   -0.6100   -3.3620 cx        1 0LC     -0.074900
      9 C18         1.4390   -0.5320    0.9760 c3        1 0LC     -0.108700
     10 C19         2.3790   -1.7270    1.1370 c3        1 0LC     -0.080400
     11 C20         3.1670   -1.6040    2.4250 c3        1 0LC     -0.082400
     12 C22         2.2500   -1.4530    3.6190 c3        1 0LC     -0.087400
     13 C21         1.2950   -0.2920    3.4400 c3        1 0LC     -0.078400
     14 C17         0.4690   -0.4560    2.1670 c3        1 0LC     -0.127700
     15 C15        -0.4910    0.7230    2.0070 c         1 0LC      0.663100
     16 O16        -0.2650    1.5650    1.0950 o         1 0LC     -0.717100
     17 N10        -1.6160    0.8420    2.7770 n         1 0LC     -0.422800
     18 C12        -1.9910   -0.0720    3.8370 c3        1 0LC      0.086000
     19 C13        -1.9800    0.5330    5.2520 c3        1 0LC     -0.040200
     20 C1         -2.5980    1.8760    5.2090 cc        1 0LC     -0.056300
     21 C11        -2.4230    2.0620    2.6860 c3        1 0LC      0.161200
     22 C2         -2.7910    2.5890    4.0170 cd        1 0LC     -0.179400
     23 C5         -3.3940    3.8500    4.3610 ca        1 0LC     -0.051800
     24 C7         -3.8120    4.9590    3.6250 ca        1 0LC     -0.133000
     25 C6         -4.3700    6.0380    4.3170 ca        1 0LC      0.114900
     26 F14        -4.7850    7.1310    3.6310 f         1 0LC     -0.135900
     27 C8         -4.5180    6.0220    5.7310 ca        1 0LC     -0.138000
     28 C9         -4.1100    4.9340    6.4780 ca        1 0LC     -0.109000
     29 C4         -3.5440    3.8400    5.8010 ca        1 0LC     -0.055200
     30 N3         -3.0460    2.6270    6.2930 na        1 0LC     -0.166400
     31 H1         -0.2620    0.5170   -1.7390 hn        1 0LC      0.484300
     32 H4          0.3610    1.0970   -3.9870 hc        1 0LC      0.120200
     33 H5          2.1450    1.4060   -4.2770 hc        1 0LC      0.120200
     34 H6          2.6640   -1.0600   -3.6600 hc        1 0LC      0.120200
     35 H7          0.8790   -1.3590   -3.3570 hc        1 0LC      0.120200
     36 H8          2.0470    0.4170    0.9550 hc        1 0LC      0.106700
     37 H9          3.0850   -1.7680    0.2670 hc        1 0LC      0.066700
     38 H10         1.7800   -2.6760    1.1400 hc        1 0LC      0.066700
     39 H11         3.8580   -0.7220    2.3630 hc        1 0LC      0.067700
     40 H12         3.8030   -2.5210    2.5500 hc        1 0LC      0.067700
     41 H13         2.8660   -1.2840    4.5430 hc        1 0LC      0.064200
     42 H14         1.6690   -2.4010    3.7720 hc        1 0LC      0.064200
     43 H15         1.8700    0.6710    3.3890 hc        1 0LC      0.068200
     44 H16         0.6130   -0.2280    4.3270 hc        1 0LC      0.068200
     45 H17        -0.1120   -1.4190    2.2090 hc        1 0LC      0.093700
     46 H18        -3.0460   -0.4090    3.6110 h1        1 0LC      0.066200
     47 H19        -1.3300   -0.9810    3.8330 h1        1 0LC      0.066200
     48 H20        -0.9290    0.6120    5.6390 hc        1 0LC      0.070200
     49 H21        -2.5440   -0.1600    5.9310 hc        1 0LC      0.070200
     50 H22        -1.8540    2.8480    2.1070 h1        1 0LC      0.077700
     51 H23        -3.3580    1.8050    2.1060 h1        1 0LC      0.077700
     52 H24        -3.7060    4.9890    2.5330 ha        1 0LC      0.149000
     53 H25        -4.9670    6.9000    6.2220 ha        1 0LC      0.159000
     54 H26        -4.2260    4.9260    7.5710 ha        1 0LC      0.148000
     55 H27        -3.0400    2.3470    7.2370 hn        1 0LC      0.309700
     56 H252        0.7250    1.3610   -0.6800 hn        1 0LC      0.484300
@<TRIPOS>BOND
     1    1    2 2   
     2    2    3 1   
     3    2    9 1   
     4    3    4 1   
     5    3   31 1   
     6    3   56 1   
     7    4    5 1   
     8    4    7 1   
     9    4    8 1   
    10    5    6 3   
    11    7    8 1   
    12    7   32 1   
    13    7   33 1   
    14    8   34 1   
    15    8   35 1   
    16    9   10 1   
    17    9   14 1   
    18    9   36 1   
    19   10   11 1   
    20   10   37 1   
    21   10   38 1   
    22   11   12 1   
    23   11   39 1   
    24   11   40 1   
    25   12   13 1   
    26   12   41 1   
    27   12   42 1   
    28   13   14 1   
    29   13   43 1   
    30   13   44 1   
    31   14   15 1   
    32   14   45 1   
    33   15   16 2   
    34   15   17 1   
    35   17   18 1   
    36   17   21 1   
    37   18   19 1   
    38   18   46 1   
    39   18   47 1   
    40   19   20 1   
    41   19   48 1   
    42   19   49 1   
    43   20   22 2   
    44   20   30 1   
    45   21   22 1   
    46   21   50 1   
    47   21   51 1   
    48   22   23 1   
    49   23   24 ar  
    50   23   29 ar  
    51   24   25 ar  
    52   24   52 1   
    53   25   26 1   
    54   25   27 ar  
    55   27   28 ar  
    56   27   53 1   
    57   28   29 ar  
    58   28   54 1   
    59   29   30 1   
    60   30   55 1   
@<TRIPOS>SUBSTRUCTURE
     1 0LC         1 TEMP              0 ****  ****    0 ROOT
