@<TRIPOS>MOLECULE
0LC
   55    59     1     0     0
SMALL
bcc


@<TRIPOS>ATOM
      1 O24         4.5510    0.1250    1.1510 o         1 0LC     -0.608100
      2 C23         3.9420    0.1310    0.0630 c         1 0LC      0.667100
      3 N25         3.7490   -1.0160   -0.6810 n         1 0LC     -0.536900
      4 C26         4.2900   -2.2890   -0.3440 cx        1 0LC      0.095500
      5 C29         5.3930   -2.7020   -1.1900 c1        1 0LC      0.233700
      6 N30         6.2780   -3.0370   -1.8650 n1        1 0LC     -0.366800
      7 C28         3.3790   -3.4240    0.1380 cx        1 0LC     -0.103400
      8 C27         4.3410   -2.8000    1.0950 cx        1 0LC     -0.103400
      9 C18         3.3640    1.4270   -0.5160 c3        1 0LC     -0.119700
     10 C19         4.3470    2.5540   -0.2280 c3        1 0LC     -0.075400
     11 C20         3.8010    3.8960   -0.6640 c3        1 0LC     -0.079400
     12 C22         2.4670    4.1750   -0.0060 c3        1 0LC     -0.078400
     13 C21         1.4750    3.0730   -0.3130 c3        1 0LC     -0.075400
     14 C17         2.0000    1.7090    0.1200 c3        1 0LC     -0.121700
     15 C15         0.9820    0.6550   -0.3190 c         1 0LC      0.660100
     16 O16         1.1330    0.0570   -1.4070 o         1 0LC     -0.627100
     17 N10        -0.0830    0.3170    0.5060 n         1 0LC     -0.456800
     18 C12        -0.4780    1.0880    1.6620 c3        1 0LC      0.095000
     19 C13        -1.7740    1.9050    1.4970 c3        1 0LC     -0.047200
     20 C1         -2.7860    1.0730    0.8120 cc        1 0LC     -0.056300
     21 C11        -1.0850   -0.6260    0.0200 c3        1 0LC      0.153200
     22 C2         -2.4650   -0.0990    0.1150 cd        1 0LC     -0.162400
     23 C5         -3.6900   -0.6260   -0.4280 ca        1 0LC     -0.052800
     24 C7         -4.0070   -1.7420   -1.2000 ca        1 0LC     -0.122000
     25 C6         -5.3460   -1.9450   -1.5520 ca        1 0LC      0.099900
     26 F14        -5.6870   -3.0230   -2.3020 f         1 0LC     -0.144900
     27 C8         -6.3680   -1.0470   -1.1450 ca        1 0LC     -0.146000
     28 C9         -6.0750    0.0670   -0.3810 ca        1 0LC     -0.119000
     29 C4         -4.7370    0.2880   -0.0160 ca        1 0LC     -0.057200
     30 N3         -4.1600    1.3140    0.7400 na        1 0LC     -0.177400
     31 H1          3.1430   -0.9850   -1.4730 hn        1 0LC      0.346500
     32 H4          2.2980   -3.2200    0.2470 hc        1 0LC      0.090450
     33 H5          3.5740   -4.4410   -0.2440 hc        1 0LC      0.090450
     34 H6          5.2390   -3.3620    1.4080 hc        1 0LC      0.090450
     35 H7          3.9680   -2.1330    1.8950 hc        1 0LC      0.090450
     36 H8          3.2240    1.3390   -1.6310 hc        1 0LC      0.087700
     37 H9          4.5750    2.5720    0.8720 hc        1 0LC      0.062700
     38 H10         5.3080    2.3420   -0.7650 hc        1 0LC      0.062700
     39 H11         4.5330    4.7000   -0.3900 hc        1 0LC      0.047200
     40 H12         3.6820    3.9130   -1.7790 hc        1 0LC      0.047200
     41 H13         2.6050    4.2620    1.1030 hc        1 0LC      0.045200
     42 H14         2.0590    5.1520   -0.3740 hc        1 0LC      0.045200
     43 H15         0.5060    3.2810    0.2130 hc        1 0LC      0.050700
     44 H16         1.2660    3.0520   -1.4160 hc        1 0LC      0.050700
     45 H17         2.1460    1.6890    1.2360 hc        1 0LC      0.082700
     46 H18        -0.6380    0.3540    2.5060 h1        1 0LC      0.060700
     47 H19         0.3380    1.7960    1.9710 h1        1 0LC      0.060700
     48 H20        -2.1210    2.2260    2.5140 hc        1 0LC      0.062200
     49 H21        -1.5760    2.8320    0.8940 hc        1 0LC      0.062200
     50 H22        -0.8570   -0.9050   -1.0510 h1        1 0LC      0.075700
     51 H23        -1.0010   -1.5620    0.6490 h1        1 0LC      0.075700
     52 H24        -3.2280   -2.4450   -1.5260 ha        1 0LC      0.153000
     53 H25        -7.4040   -1.2560   -1.4510 ha        1 0LC      0.148000
     54 H26        -6.8690    0.7590   -0.0690 ha        1 0LC      0.138000
     55 H27        -4.6360    2.0800    1.1320 hn        1 0LC      0.301700
@<TRIPOS>BOND
     1    1    2 2   
     2    2    3 1   
     3    2    9 1   
     4    3    4 1   
     5    3   31 1   
     6    4    5 1   
     7    4    7 1   
     8    4    8 1   
     9    5    6 3   
    10    7    8 1   
    11    7   32 1   
    12    7   33 1   
    13    8   34 1   
    14    8   35 1   
    15    9   10 1   
    16    9   14 1   
    17    9   36 1   
    18   10   11 1   
    19   10   37 1   
    20   10   38 1   
    21   11   12 1   
    22   11   39 1   
    23   11   40 1   
    24   12   13 1   
    25   12   41 1   
    26   12   42 1   
    27   13   14 1   
    28   13   43 1   
    29   13   44 1   
    30   14   15 1   
    31   14   45 1   
    32   15   16 2   
    33   15   17 1   
    34   17   18 1   
    35   17   21 1   
    36   18   19 1   
    37   18   46 1   
    38   18   47 1   
    39   19   20 1   
    40   19   48 1   
    41   19   49 1   
    42   20   22 2   
    43   20   30 1   
    44   21   22 1   
    45   21   50 1   
    46   21   51 1   
    47   22   23 1   
    48   23   24 ar  
    49   23   29 ar  
    50   24   25 ar  
    51   24   52 1   
    52   25   26 1   
    53   25   27 ar  
    54   27   28 ar  
    55   27   53 1   
    56   28   29 ar  
    57   28   54 1   
    58   29   30 1   
    59   30   55 1   
@<TRIPOS>SUBSTRUCTURE
     1 0LC         1 TEMP              0 ****  ****    0 ROOT
