@<TRIPOS>MOLECULE
0LC
   56    60     1     0     0
SMALL
bcc


@<TRIPOS>ATOM
      1 O24        -0.0020   -1.6700   -0.7050 o         1 0LC     -0.426100
      2 C23         0.6410   -0.7050   -0.3210 c         1 0LC      0.570100
      3 N25         0.6250    0.4940   -1.2560 n4        1 0LC     -0.642800
      4 C26         1.6980    0.4430   -2.2760 cx        1 0LC      0.076300
      5 C29         2.9830    0.8400   -1.7690 c1        1 0LC      0.178700
      6 N30         4.0360    1.1590   -1.3960 n1        1 0LC     -0.238800
      7 C28         1.3690    0.8020   -3.7280 cx        1 0LC     -0.074900
      8 C27         1.6540   -0.6190   -3.3750 cx        1 0LC     -0.074900
      9 C18         1.4190   -0.5480    0.9660 c3        1 0LC     -0.108700
     10 C19         2.3480   -1.7520    1.1200 c3        1 0LC     -0.080400
     11 C20         3.1420   -1.6410    2.4050 c3        1 0LC     -0.082400
     12 C22         2.2310   -1.4840    3.6040 c3        1 0LC     -0.087400
     13 C21         1.2880   -0.3120    3.4310 c3        1 0LC     -0.078400
     14 C17         0.4550   -0.4650    2.1600 c3        1 0LC     -0.127700
     15 C15        -0.4940    0.7240    2.0080 c         1 0LC      0.663100
     16 O16        -0.2630    1.5660    1.0960 o         1 0LC     -0.717100
     17 N10        -1.6150    0.8530    2.7810 n         1 0LC     -0.422800
     18 C12        -1.9950   -0.0600    3.8410 c3        1 0LC      0.086000
     19 C13        -1.9720    0.5420    5.2570 c3        1 0LC     -0.040200
     20 C1         -2.5780    1.8910    5.2190 cc        1 0LC     -0.056300
     21 C11        -2.4100    2.0810    2.6960 c3        1 0LC      0.161200
     22 C2         -2.7680    2.6080    4.0300 cd        1 0LC     -0.179400
     23 C5         -3.3580    3.8750    4.3780 ca        1 0LC     -0.051800
     24 C7         -3.7670    4.9890    3.6470 ca        1 0LC     -0.133000
     25 C6         -4.3130    6.0720    4.3430 ca        1 0LC      0.114900
     26 F14        -4.7200    7.1700    3.6610 f         1 0LC     -0.135900
     27 C8         -4.4550    6.0550    5.7570 ca        1 0LC     -0.138000
     28 C9         -4.0550    4.9610    6.5000 ca        1 0LC     -0.109000
     29 C4         -3.5020    3.8630    5.8190 ca        1 0LC     -0.055200
     30 N3         -3.0150    2.6440    6.3070 na        1 0LC     -0.166400
     31 H1         -0.2820    0.5260   -1.7390 hn        1 0LC      0.484300
     32 H4          0.3360    1.1040   -3.9890 hc        1 0LC      0.120200
     33 H5          2.1210    1.3940   -4.2870 hc        1 0LC      0.120200
     34 H6          0.8290   -1.3590   -3.3680 hc        1 0LC      0.120200
     35 H7          2.6160   -1.0790   -3.6790 hc        1 0LC      0.120200
     36 H8          2.0370    0.3950    0.9450 hc        1 0LC      0.106700
     37 H9          1.7390   -2.6960    1.1240 hc        1 0LC      0.066700
     38 H10         3.0500   -1.7990    0.2470 hc        1 0LC      0.066700
     39 H11         3.8410   -0.7660    2.3430 hc        1 0LC      0.067700
     40 H12         3.7690   -2.5640    2.5260 hc        1 0LC      0.067700
     41 H13         2.8520   -1.3230    4.5250 hc        1 0LC      0.064200
     42 H14         1.6410   -2.4260    3.7560 hc        1 0LC      0.064200
     43 H15         1.8720    0.6450    3.3800 hc        1 0LC      0.068200
     44 H16         0.6090   -0.2440    4.3210 hc        1 0LC      0.068200
     45 H17        -0.1360   -1.4230    2.2030 hc        1 0LC      0.093700
     46 H18        -3.0540   -0.3860    3.6180 h1        1 0LC      0.066200
     47 H19        -1.3430   -0.9760    3.8320 h1        1 0LC      0.066200
     48 H20        -2.5400   -0.1470    5.9380 hc        1 0LC      0.070200
     49 H21        -0.9190    0.6100    5.6410 hc        1 0LC      0.070200
     50 H22        -3.3500    1.8350    2.1190 h1        1 0LC      0.077700
     51 H23        -1.8360    2.8630    2.1170 h1        1 0LC      0.077700
     52 H24        -3.6650    5.0200    2.5540 ha        1 0LC      0.149000
     53 H25        -4.8940    6.9350    6.2520 ha        1 0LC      0.159000
     54 H26        -4.1670    4.9520    7.5940 ha        1 0LC      0.148000
     55 H27        -3.0070    2.3620    7.2510 hn        1 0LC      0.309700
     56 H252        0.7190    1.3560   -0.6830 hn        1 0LC      0.484300
@<TRIPOS>BOND
     1    1    2 2   
     2    2    3 1   
     3    2    9 1   
     4    3    4 1   
     5    3   31 1   
     6    3   56 1   
     7    4    5 1   
     8    4    7 1   
     9    4    8 1   
    10    5    6 3   
    11    7    8 1   
    12    7   32 1   
    13    7   33 1   
    14    8   34 1   
    15    8   35 1   
    16    9   10 1   
    17    9   14 1   
    18    9   36 1   
    19   10   11 1   
    20   10   37 1   
    21   10   38 1   
    22   11   12 1   
    23   11   39 1   
    24   11   40 1   
    25   12   13 1   
    26   12   41 1   
    27   12   42 1   
    28   13   14 1   
    29   13   43 1   
    30   13   44 1   
    31   14   15 1   
    32   14   45 1   
    33   15   16 2   
    34   15   17 1   
    35   17   18 1   
    36   17   21 1   
    37   18   19 1   
    38   18   46 1   
    39   18   47 1   
    40   19   20 1   
    41   19   48 1   
    42   19   49 1   
    43   20   22 2   
    44   20   30 1   
    45   21   22 1   
    46   21   50 1   
    47   21   51 1   
    48   22   23 1   
    49   23   24 ar  
    50   23   29 ar  
    51   24   25 ar  
    52   24   52 1   
    53   25   26 1   
    54   25   27 ar  
    55   27   28 ar  
    56   27   53 1   
    57   28   29 ar  
    58   28   54 1   
    59   29   30 1   
    60   30   55 1   
@<TRIPOS>SUBSTRUCTURE
     1 0LC         1 TEMP              0 ****  ****    0 ROOT
