@<TRIPOS>MOLECULE
0LD
   51    42     1     0     0
SMALL
bcc


@<TRIPOS>ATOM
      1 C33         6.6930    0.0300   -1.4090 c1        1 0LD     -0.135750
      2 C32         8.0560    0.1730   -1.5440 c1        1 0LD     -0.135750
      3 C4          1.0200   -1.0780   -0.4140 c1        1 0LD     -0.207000
      4 C13        -4.4000    1.4580   -1.8490 c3        1 0LD      0.086000
      5 C20         2.5430   -1.0520   -0.2720 c1        1 0LD     -0.085000
      6 C21        -5.7970    0.7200   -0.2450 c1        1 0LD     -0.070000
      7 C18        -3.5580    0.1640    0.4420 c1        1 0LD     -0.123000
      8 C16         3.5410   -1.3970   -1.1380 c1        1 0LD     -0.106000
      9 C19        -4.4130    0.7260   -0.4790 c2        1 0LD     -0.076000
     10 C31         8.9130   -0.8010   -1.0330 c1        1 0LD     -0.135750
     11 C30         8.3840   -1.9260   -0.3810 c1        1 0LD     -0.135750
     12 C29         7.0130   -2.0680   -0.2460 c1        1 0LD     -0.133000
     13 C28         6.1630   -1.1000   -0.7540 c1        1 0LD      0.098000
     14 C17        -4.0670   -0.4060    1.5980 c1        1 0LD     -0.029000
     15 C15        -5.4390   -0.4090    1.8250 c1        1 0LD     -0.118000
     16 C22         3.1310   -0.5580    0.8900 c1        1 0LD     -0.018000
     17 C3          0.1810   -0.5690    0.6590 c1        1 0LD      0.047000
     18 C2          0.8030   -0.0610    1.8930 c1        1 0LD      0.303000
     19 C1         -6.4930   -0.7540    2.8470 c2        1 0LD     -0.153000
     20 C14        -2.0660    0.4620    0.1780 c2        1 0LD      0.011000
     21 N12        -6.2960    0.1570    0.8970 n1        1 0LD     -0.144000
     22 N10         4.4840   -0.6050    0.7240 n2        1 0LD     -0.075000
     23 N11         4.7420   -1.1250   -0.5330 n3        1 0LD     -0.101000
     24 N9          2.2620   -0.0410    2.0210 n1        1 0LD     -0.096000
     25 N8         -1.2600   -0.6900    0.5720 n3        1 0LD     -0.270000
     26 O6         -6.2000    2.6620   -3.9730 o         1 0LD     -0.912833
     27 O27        -6.1670    4.7860   -2.6830 o         1 0LD     -0.912833
     28 O5          0.1240    0.3560    2.7740 o         1 0LD     -0.329000
     29 O7         -4.1050    3.9790   -3.7580 o         1 0LD     -0.912833
     30 O26        -3.1990   -1.0890    2.4970 o         1 0LD     -0.293000
     31 O25         2.8360    0.3680    3.1840 oh        1 0LD     -0.211000
     32 O24        -4.9760    2.7500   -1.7070 os        1 0LD     -0.715000
     33 P23        -5.3640    3.5630   -3.0490 p5        1 0LD      1.548500
     34 H1          6.0890    0.7150   -1.7690 ha        1 0LD      0.132250
     35 H2          8.4420    0.9970   -2.0220 ha        1 0LD      0.132250
     36 H3          0.6080   -1.4210   -1.2450 ha        1 0LD      0.171000
     37 H4         -4.9390    0.9240   -2.5210 h1        1 0LD      0.058500
     38 H5         -3.4630    1.5460   -2.1710 h1        1 0LD      0.058500
     39 H6         -6.4180    1.1300   -0.9100 ha        1 0LD      0.311000
     40 H7          3.4190   -1.7140   -2.0630 DU        1 0LD      0.188000
     41 H8          9.8730   -0.6380   -1.0150 ha        1 0LD      0.132250
     42 H9          8.9990   -2.6260   -0.0140 ha        1 0LD      0.132250
     43 H10         6.6300   -2.8860    0.2280 ha        1 0LD      0.159000
     44 H11        -7.0230    0.0620    3.0670 ha        1 0LD      0.066667
     45 H12        -6.0500   -1.1020    3.6810 ha        1 0LD      0.066667
     46 H13        -7.1010   -1.4560    2.4750 ha        1 0LD      0.066667
     47 H14        -1.7870    1.2590    0.7070 h4        1 0LD      0.102000
     48 H15        -1.9360    0.6350   -0.7470 h4        1 0LD      0.102000
     49 H16        -1.6650   -1.4920    0.7590 hn        1 0LD      0.243000
     50 H19        -3.6120   -1.8160    2.8120 ho        1 0LD      0.198000
     51 H20         2.8450    1.2600    3.2140 ho        1 0LD      0.223000
@<TRIPOS>BOND
     1    1    2 1   
     2    1   34 1   
     3    2   35 1   
     4    3   17 1   
     5    3   36 1   
     6    4    9 1   
     7    4   32 1   
     8    4   37 1   
     9    4   38 1   
    10    5    8 1   
    11    5   16 1   
    12    6    9 1   
    13    6   39 1   
    14    7    9 1   
    15    7   14 1   
    16    8   23 1   
    17   10   11 1   
    18   10   41 1   
    19   11   42 1   
    20   12   13 1   
    21   12   43 1   
    22   13   23 1   
    23   14   15 1   
    24   15   21 1   
    25   16   22 1   
    26   17   25 1   
    27   18   28 1   
    28   19   44 1   
    29   19   45 1   
    30   19   46 1   
    31   20   25 1   
    32   20   47 1   
    33   20   48 1   
    34   22   23 1   
    35   24   31 1   
    36   25   49 1   
    37   26   33 1   
    38   27   33 1   
    39   29   33 1   
    40   30   50 1   
    41   31   51 1   
    42   32   33 1   
@<TRIPOS>SUBSTRUCTURE
     1 0LD         1 TEMP              0 ****  ****    0 ROOT
