@<TRIPOS>MOLECULE
0LD
   51    54     1     0     0
SMALL
bcc


@<TRIPOS>ATOM
      1 C33        -7.5820   -0.3890   -0.8420 ca        1 0LD     -0.178500
      2 C32        -8.9540   -0.4870   -0.6560 ca        1 0LD     -0.111500
      3 C4         -1.9700    0.9880    0.9660 cc        1 0LD     -0.505600
      4 C13         4.1290   -0.6710   -0.8250 c3        1 0LD      0.216700
      5 C20        -3.2300    0.7580    0.4400 cd        1 0LD     -0.013300
      6 C21         5.2670    1.2580    0.3440 ca        1 0LD      0.362200
      7 C18         2.8550    1.0560    0.5240 ca        1 0LD     -0.112300
      8 C16        -4.5300    1.0990    0.8170 cd        1 0LD     -0.330300
      9 C19         4.0800    0.5660    0.0250 ca        1 0LD     -0.168600
     10 C31        -9.5930    0.2100    0.3680 ca        1 0LD     -0.200000
     11 C30        -8.8340    1.0160    1.2140 ca        1 0LD     -0.111500
     12 C29        -7.4600    1.1330    1.0490 ca        1 0LD     -0.178500
     13 C28        -6.7960    0.4310    0.0100 ca        1 0LD      0.086800
     14 C17         2.9060    2.2020    1.3430 ca        1 0LD      0.044800
     15 C15         4.1590    2.8300    1.6130 ca        1 0LD      0.326600
     16 C22        -3.4280    0.0040   -0.8350 cd        1 0LD      0.386200
     17 C3         -0.8030    0.4930    0.3170 cc        1 0LD      0.569600
     18 C2         -1.0510   -0.4580   -0.8470 c         1 0LD      0.524200
     19 C1          4.1550    4.0460    2.4800 c3        1 0LD     -0.117400
     20 C14         1.6010    0.3240    0.1210 c3        1 0LD      0.186100
     21 N12         5.3200    2.3590    1.1100 nb        1 0LD     -0.673000
     22 N10        -4.7420   -0.0950   -1.1530 nc        1 0LD     -0.523800
     23 N11        -5.4200    0.6140   -0.2040 na        1 0LD      0.139300
     24 N9         -2.2900   -0.3810   -1.5890 n         1 0LD     -0.248800
     25 O6          6.9320   -2.6080   -2.3780 o         1 0LD     -0.837000
     26 O27         5.3520   -3.1420   -0.3350 o         1 0LD     -0.837000
     27 O7          7.2390   -1.6240   -0.0410 oh        1 0LD     -0.779400
     28 O26         1.8350    2.8170    1.9370 oh        1 0LD     -0.541100
     29 O25        -2.5180   -1.4330   -2.3920 oh        1 0LD     -0.427100
     30 O24         5.3660   -0.8530   -1.4370 os        1 0LD     -0.580200
     31 P23         6.2080   -2.2490   -1.1460 p5        1 0LD      1.427800
     32 H1         -7.1100   -0.9560   -1.6590 ha        1 0LD      0.145000
     33 H2         -9.5420   -1.1290   -1.3280 ha        1 0LD      0.111000
     34 H3         -1.8610    1.5790    1.8810 ha        1 0LD      0.131000
     35 H4          3.8680   -1.5690   -0.1890 h1        1 0LD      0.054700
     36 H5          3.3550   -0.5640   -1.6430 h1        1 0LD      0.054700
     37 H6          6.2370    0.9000   -0.0500 h4        1 0LD      0.048100
     38 H7         -4.8870    1.6630    1.6680 h4        1 0LD      0.159000
     39 H8        -10.6780    0.1230    0.5080 ha        1 0LD      0.110000
     40 H9         -9.3250    1.5690    2.0280 ha        1 0LD      0.111000
     41 H10        -6.8950    1.7800    1.7350 ha        1 0LD      0.145000
     42 H11         3.7050    3.7870    3.4700 hc        1 0LD      0.032700
     43 H12         5.1790    4.4580    2.6420 hc        1 0LD      0.032700
     44 H13         3.5160    4.8320    2.0050 hc        1 0LD      0.032700
     45 H14         1.5460    0.3690   -1.0120 h1        1 0LD      0.051200
     46 H15         1.7490   -0.7720    0.3770 h1        1 0LD      0.051200
     47 H16         6.8980   -1.7020    0.8420 ho        1 0LD      0.421000
     48 H19         1.0250    2.3030    1.7390 ho        1 0LD      0.474000
     49 H20        -1.8010   -1.4020   -3.0560 ho        1 0LD      0.421000
     50 N8          0.4000    0.8050    0.7270 n2        1 0LD     -0.763900
     51 O5         -0.1940   -1.2420   -1.2890 o         1 0LD     -0.619500
@<TRIPOS>BOND
     1    1    2 ar  
     2    1   13 ar  
     3    1   32 1   
     4    2   10 ar  
     5    2   33 1   
     6    3    5 2   
     7    3   17 1   
     8    3   34 1   
     9    4    9 1   
    10    4   30 1   
    11    4   35 1   
    12    4   36 1   
    13    5    8 1   
    14    5   16 1   
    15    6    9 ar  
    16    6   21 ar  
    17    6   37 1   
    18    7    9 ar  
    19    7   14 ar  
    20    7   20 1   
    21    8   23 2   
    22    8   38 1   
    23   10   11 ar  
    24   10   39 1   
    25   11   12 ar  
    26   11   40 1   
    27   12   13 ar  
    28   12   41 1   
    29   13   23 1   
    30   14   15 ar  
    31   14   28 1   
    32   15   19 1   
    33   15   21 ar  
    34   16   22 2   
    35   16   24 1   
    36   17   18 1   
    37   17   50 2   
    38   18   24 1   
    39   18   51 2   
    40   19   42 1   
    41   19   43 1   
    42   19   44 1   
    43   20   45 1   
    44   20   46 1   
    45   20   50 1   
    46   22   23 1   
    47   24   29 1   
    48   25   31 1   
    49   26   31 1   
    50   27   31 1   
    51   27   47 1   
    52   28   48 1   
    53   29   49 1   
    54   30   31 1   
@<TRIPOS>SUBSTRUCTURE
     1 0LD         1 TEMP              0 ****  ****    0 ROOT
