@<TRIPOS>MOLECULE
0LF
   39    40     1     0     0
SMALL
bcc


@<TRIPOS>ATOM
      1 N           4.1120    1.5950    0.4010 n3        1 0LF     -0.750200
      2 CA          4.7590    0.3080    0.7060 c3        1 0LF      0.022500
      3 C           6.0110    0.0440   -0.1980 c         1 0LF      0.934600
      4 O           5.8280   -0.3690   -1.3760 o         1 0LF     -0.838800
      5 CD          2.9490    1.3040   -0.4300 c3        1 0LF      0.123800
      6 CG          2.5560   -0.1850   -0.2530 c3        1 0LF      0.110100
      7 CB          3.7210   -0.8200    0.5160 c3        1 0LF     -0.088400
      8 O26         1.3810   -0.3250    0.5550 os        1 0LF     -0.434600
      9 C27         0.1800   -0.1200   -0.1760 c3        1 0LF      0.135400
     10 C28        -0.9640   -0.2360    0.8170 c3        1 0LF     -0.085400
     11 C29        -2.2940   -0.0590    0.1190 c3        1 0LF     -0.074400
     12 C30        -3.4420   -0.1710    1.1060 c3        1 0LF     -0.040100
     13 C31        -4.7650   -0.0450    0.4360 ca        1 0LF     -0.069300
     14 C32        -5.2490   -1.0860   -0.3670 ca        1 0LF     -0.128500
     15 C33        -6.4910   -0.9760   -0.9890 ca        1 0LF     -0.130500
     16 C34        -7.2620    0.1730   -0.8150 ca        1 0LF     -0.139000
     17 C35        -6.7870    1.2120   -0.0170 ca        1 0LF     -0.130500
     18 C36        -5.5440    1.1050    0.6060 ca        1 0LF     -0.128500
     19 H02         5.1250    0.3170    1.7700 h1        1 0LF      0.038700
     20 H33         2.0870    1.9780   -0.1880 h1        1 0LF      0.041700
     21 H32         3.2570    1.4700   -1.4980 h1        1 0LF      0.041700
     22 H34         2.3940   -0.6780   -1.2460 h1        1 0LF      0.045700
     23 H36         4.1680   -1.6490   -0.0850 hc        1 0LF      0.053700
     24 H35         3.3710   -1.2220    1.4960 hc        1 0LF      0.053700
     25 H44         0.1880    0.8940   -0.6590 h1        1 0LF      0.019200
     26 H43         0.0880   -0.8990   -0.9810 h1        1 0LF      0.019200
     27 H46        -0.9180   -1.2370    1.3180 hc        1 0LF      0.050700
     28 H45        -0.8390    0.5400    1.6160 hc        1 0LF      0.050700
     29 H48        -2.3280    0.9420   -0.3860 hc        1 0LF      0.042700
     30 H47        -2.4110   -0.8380   -0.6800 hc        1 0LF      0.042700
     31 H49        -3.3850   -1.1640    1.6280 hc        1 0LF      0.048700
     32 H50        -3.3310    0.6230    1.8930 hc        1 0LF      0.048700
     33 H51        -4.6390   -1.9910   -0.5070 ha        1 0LF      0.132500
     34 H52        -6.8620   -1.7970   -1.6190 ha        1 0LF      0.125500
     35 H53        -8.2420    0.2590   -1.3070 ha        1 0LF      0.125000
     36 H54        -7.3910    2.1200    0.1210 ha        1 0LF      0.125500
     37 H          -5.1720    1.9290    1.2330 ha        1 0LF      0.132500
     38 OXT         7.1360    0.2190    0.3420 o         1 0LF     -0.838800
     39 H2          3.7980    2.0030    1.2660 hn        1 0LF      0.310800
@<TRIPOS>BOND
     1    1    2 1   
     2    1    5 1   
     3    1   39 1   
     4    2    3 1   
     5    2    7 1   
     6    2   19 1   
     7    3    4 1   
     8    3   38 1   
     9    5    6 1   
    10    5   20 1   
    11    5   21 1   
    12    6    7 1   
    13    6    8 1   
    14    6   22 1   
    15    7   23 1   
    16    7   24 1   
    17    8    9 1   
    18    9   10 1   
    19    9   25 1   
    20    9   26 1   
    21   10   11 1   
    22   10   27 1   
    23   10   28 1   
    24   11   12 1   
    25   11   29 1   
    26   11   30 1   
    27   12   13 1   
    28   12   31 1   
    29   12   32 1   
    30   13   14 ar  
    31   13   18 ar  
    32   14   15 ar  
    33   14   33 1   
    34   15   16 ar  
    35   15   34 1   
    36   16   17 ar  
    37   16   35 1   
    38   17   18 ar  
    39   17   36 1   
    40   18   37 1   
@<TRIPOS>SUBSTRUCTURE
     1 0LF         1 TEMP              0 ****  ****    0 ROOT
