@<TRIPOS>MOLECULE
0LG
   93    96     1     0     0
SMALL
bcc


@<TRIPOS>ATOM
      1 O14         1.6760    1.8260    2.0290 o         1 0LG     -0.655300
      2 S11         2.3030    0.7590    1.3840 s6        1 0LG      1.463900
      3 O13         3.6400    0.5100    1.7990 o         1 0LG     -0.655300
      4 C12         1.3900   -0.6310    1.4400 c3        1 0LG     -0.404300
      5 N7          2.3980    1.1180   -0.2660 nh        1 0LG     -0.659900
      6 C10         1.2250    1.1560   -1.0990 c3        1 0LG      0.178100
      7 C6          3.5780    1.6720   -0.7720 ca        1 0LG      0.182600
      8 C1          4.8240    1.0740   -0.4580 ca        1 0LG     -0.052000
      9 C2          6.0140    1.7510   -0.7260 ca        1 0LG     -0.164600
     10 C5          3.5880    2.8570   -1.5430 ca        1 0LG     -0.045000
     11 C4          4.8030    3.4870   -1.8720 ca        1 0LG     -0.172600
     12 C3          6.0240    2.9460   -1.4510 ca        1 0LG     -0.032000
     13 C8          4.6840    4.7240   -2.6520 c         1 0LG      0.576700
     14 O15         3.7140    5.1250   -3.2810 o         1 0LG     -0.412100
     15 N16         5.8670    5.6780   -2.6820 n4        1 0LG     -0.674800
     16 C17         5.7620    6.7390   -1.6120 c3        1 0LG      0.122500
     17 C18         5.3450    8.1020   -2.2410 c3        1 0LG      0.101100
     18 C19         5.3890    9.2230   -1.1820 c3        1 0LG      0.079800
     19 N20         5.0220   10.5530   -1.7280 n4        1 0LG     -0.777000
     20 C37         5.1250   11.6540   -0.6820 c3        1 0LG      0.198100
     21 C38         4.7070   12.9450   -1.2760 ca        1 0LG     -0.222300
     22 C39         5.6670   13.7930   -1.8500 ca        1 0LG     -0.100000
     23 C40         5.2930   15.0410   -2.3550 ca        1 0LG     -0.045300
     24 C44         6.3230   15.9520   -2.9510 c3        1 0LG     -0.034400
     25 C45         6.0070   16.2500   -4.4040 c3        1 0LG     -0.095600
     26 C46         6.4270   17.2400   -2.1540 c3        1 0LG     -0.095600
     27 C41         3.9460   15.4310   -2.2820 ca        1 0LG     -0.053000
     28 C42         2.9920   14.5870   -1.7140 ca        1 0LG     -0.112000
     29 C43         3.3650   13.3440   -1.2090 ca        1 0LG     -0.103000
     30 O21         6.2770    8.4050   -3.2630 oh        1 0LG     -0.599800
     31 C22         7.0830    6.8610   -0.8090 c3        1 0LG      0.113400
     32 O34         7.5710    5.5490   -0.5790 os        1 0LG     -0.476600
     33 C35         8.2870    5.3530    0.6520 c3        1 0LG      0.165600
     34 C36         7.4080    4.6910    1.6530 c2        1 0LG     -0.207200
     35 C33         7.6190    3.5020    2.2280 c2        1 0LG     -0.151200
     36 C26         8.7680    2.6060    1.9780 c3        1 0LG     -0.088200
     37 C25         8.4720    1.1020    2.0160 c3        1 0LG      0.211800
     38 N23         7.2450    0.7180    1.2040 n4        1 0LG     -0.673800
     39 C9          7.2930    1.2130   -0.2150 c         1 0LG      0.561700
     40 O24         8.3590    1.1630   -0.8120 o         1 0LG     -0.391100
     41 C27         8.3510    0.5460    3.4020 ca        1 0LG     -0.198300
     42 C28         7.2270    0.7710    4.2080 ca        1 0LG     -0.109000
     43 C29         7.1800    0.2510    5.4990 ca        1 0LG     -0.107500
     44 C30         8.2520   -0.4940    5.9970 ca        1 0LG     -0.069000
     45 C31         9.3710   -0.7240    5.1950 ca        1 0LG     -0.107500
     46 C32         9.4200   -0.2120    3.8990 ca        1 0LG     -0.109000
     47 H1          0.2800   -0.4460    1.4470 h1        1 0LG      0.159033
     48 H2          1.5620   -1.3810    0.6250 h1        1 0LG      0.159033
     49 H3          1.5840   -1.2040    2.3930 h1        1 0LG      0.159033
     50 H4          0.6630    2.1210   -0.9600 h1        1 0LG      0.070367
     51 H5          1.4940    1.0480   -2.1840 h1        1 0LG      0.070367
     52 H6          0.5520    0.2980   -0.8230 h1        1 0LG      0.070367
     53 H7          4.8480    0.0770    0.0220 ha        1 0LG      0.192000
     54 H8          2.6320    3.3000   -1.8840 ha        1 0LG      0.191000
     55 H9          6.9990    3.4210   -1.6560 ha        1 0LG      0.167000
     56 H10         5.9130    6.1360   -3.6060 hn        1 0LG      0.479800
     57 H11         4.9420    6.4190   -0.9020 hx        1 0LG      0.116700
     58 H12         4.2980    8.0000   -2.6510 h1        1 0LG      0.091700
     59 H13         4.6840    8.9710   -0.3390 hx        1 0LG      0.120200
     60 H14         6.4390    9.3140   -0.7730 hx        1 0LG      0.120200
     61 H15         5.6490   10.7900   -2.5100 hn        1 0LG      0.456800
     62 H17         6.1970   11.6840   -0.3350 hx        1 0LG      0.107200
     63 H18         4.4570   11.3590    0.1770 hx        1 0LG      0.107200
     64 H19         6.7250   13.4890   -1.8800 ha        1 0LG      0.136000
     65 H20         7.3270   15.4370   -2.9100 hc        1 0LG      0.054700
     66 H21         5.0320   16.7870   -4.4980 hc        1 0LG      0.050867
     67 H22         5.9550   15.3080   -4.9990 hc        1 0LG      0.050867
     68 H23         6.8070   16.9010   -4.8370 hc        1 0LG      0.050867
     69 H24         7.2270   17.8870   -2.5900 hc        1 0LG      0.050867
     70 H25         5.4640   17.8040   -2.1830 hc        1 0LG      0.050867
     71 H26         6.6840   17.0250   -1.0890 hc        1 0LG      0.050867
     72 H27         3.6450   16.4200   -2.6720 ha        1 0LG      0.176000
     73 H28         1.9390   14.9120   -1.6530 ha        1 0LG      0.171000
     74 H29         2.6120   12.6960   -0.7370 ha        1 0LG      0.134000
     75 H30         5.7970    8.6720   -4.0620 ho        1 0LG      0.453000
     76 H31         7.8500    7.4250   -1.4080 h1        1 0LG      0.086200
     77 H32         6.8620    7.3930    0.1540 h1        1 0LG      0.086200
     78 H33         8.6720    6.3280    1.0560 h1        1 0LG      0.087200
     79 H34         9.1640    4.7200    0.3400 h1        1 0LG      0.087200
     80 H35         6.5270    5.2870    1.9490 ha        1 0LG      0.135000
     81 H36         6.9270    3.1620    3.0230 ha        1 0LG      0.153000
     82 H37         9.2570    2.8340    0.9910 hc        1 0LG      0.101200
     83 H38         9.5430    2.7910    2.7810 hc        1 0LG      0.101200
     84 H39         9.3440    0.5910    1.4900 hx        1 0LG      0.122700
     85 H40         7.1900   -0.3110    1.2020 hn        1 0LG      0.477800
     86 H41         6.3680    1.3560    3.8450 ha        1 0LG      0.135000
     87 H42         6.2940    0.4280    6.1310 ha        1 0LG      0.168500
     88 H43         8.2130   -0.9010    7.0220 ha        1 0LG      0.174000
     89 H44        10.2190   -1.3120    5.5840 ha        1 0LG      0.168500
     90 H45        10.3090   -0.4030    3.2760 ha        1 0LG      0.135000
     91 H162        6.7460    5.1570   -2.5480 hn        1 0LG      0.479800
     92 H202        4.0600   10.5440   -2.0890 hn        1 0LG      0.456800
     93 H232        6.3980    1.0740    1.6730 hn        1 0LG      0.477800
@<TRIPOS>BOND
     1    1    2 2   
     2    2    3 2   
     3    2    4 1   
     4    2    5 1   
     5    4   47 1   
     6    4   48 1   
     7    4   49 1   
     8    5    6 1   
     9    5    7 1   
    10    6   50 1   
    11    6   51 1   
    12    6   52 1   
    13    7    8 ar  
    14    7   10 ar  
    15    8    9 ar  
    16    8   53 1   
    17    9   12 ar  
    18    9   39 1   
    19   10   11 ar  
    20   10   54 1   
    21   11   12 ar  
    22   11   13 1   
    23   12   55 1   
    24   13   14 2   
    25   13   15 1   
    26   15   16 1   
    27   15   56 1   
    28   15   91 1   
    29   16   17 1   
    30   16   31 1   
    31   16   57 1   
    32   17   18 1   
    33   17   30 1   
    34   17   58 1   
    35   18   19 1   
    36   18   59 1   
    37   18   60 1   
    38   19   20 1   
    39   19   61 1   
    40   19   92 1   
    41   20   21 1   
    42   20   62 1   
    43   20   63 1   
    44   21   22 ar  
    45   21   29 ar  
    46   22   23 ar  
    47   22   64 1   
    48   23   24 1   
    49   23   27 ar  
    50   24   25 1   
    51   24   26 1   
    52   24   65 1   
    53   25   66 1   
    54   25   67 1   
    55   25   68 1   
    56   26   69 1   
    57   26   70 1   
    58   26   71 1   
    59   27   28 ar  
    60   27   72 1   
    61   28   29 ar  
    62   28   73 1   
    63   29   74 1   
    64   30   75 1   
    65   31   32 1   
    66   31   76 1   
    67   31   77 1   
    68   32   33 1   
    69   33   34 1   
    70   33   78 1   
    71   33   79 1   
    72   34   35 2   
    73   34   80 1   
    74   35   36 1   
    75   35   81 1   
    76   36   37 1   
    77   36   82 1   
    78   36   83 1   
    79   37   38 1   
    80   37   41 1   
    81   37   84 1   
    82   38   39 1   
    83   38   85 1   
    84   38   93 1   
    85   39   40 2   
    86   41   42 ar  
    87   41   46 ar  
    88   42   43 ar  
    89   42   86 1   
    90   43   44 ar  
    91   43   87 1   
    92   44   45 ar  
    93   44   88 1   
    94   45   46 ar  
    95   45   89 1   
    96   46   90 1   
@<TRIPOS>SUBSTRUCTURE
     1 0LG         1 TEMP              0 ****  ****    0 ROOT
