@<TRIPOS>MOLECULE
0LG
   94    96     1     0     0
SMALL
bcc


@<TRIPOS>ATOM
      1 O14      -604.6010-1939.4590 -756.2940 o         1 0LG     -0.354400
      2 S11      -603.9620-1940.0720 -757.3010 s4        1 0LG      1.640500
      3 O13      -602.7950-1939.6640 -757.8180 o         1 0LG     -0.354400
      4 C12      -604.6320-1941.3650 -757.9180 c3        1 0LG     -0.612800
      5 N7         55.9790  166.5190   66.9890 nh        1 0LG     -0.720600
      6 C10        57.3790  166.8110   66.8870 c3        1 0LG      0.176100
      7 C6         55.2770  165.8590   66.0310 ca        1 0LG      0.242600
      8 C1         53.8780  165.6040   66.2000 ca        1 0LG     -0.135000
      9 C2         53.1700  164.9050   65.2320 ca        1 0LG     -0.111600
     10 C5         55.8890  165.3890   64.8280 ca        1 0LG     -0.133000
     11 C4         55.1320  164.7200   63.8670 ca        1 0LG     -0.118600
     12 C3         53.7710  164.4490   64.0530 ca        1 0LG     -0.181000
     13 C8         55.8310  164.2840   62.6470 c         1 0LG      0.580700
     14 O15        56.9250  163.7540   62.5300 o         1 0LG     -0.414100
     15 N16        55.1010  164.5710   61.3450 n4        1 0LG     -0.681800
     16 C17        54.9940  163.3670   60.4450 c3        1 0LG      0.100500
     17 C18        56.2020  163.3040   59.4640 c3        1 0LG      0.103100
     18 C19        55.9900  162.1890   58.4180 c3        1 0LG      0.079800
     19 N20        57.0970  162.0950   57.4350 n4        1 0LG     -0.776000
     20 C37        56.8450  161.0230   56.3860 c3        1 0LG      0.197100
     21 C38        58.0000  160.9450   55.4610 ca        1 0LG     -0.221300
     22 C39        57.9800  161.6620   54.2560 ca        1 0LG     -0.099000
     23 C40        59.0340  161.5400   53.3450 ca        1 0LG     -0.045300
     24 C44        59.0000  162.2900   52.0490 c3        1 0LG     -0.034400
     25 C45        60.1800  163.2380   51.9390 c3        1 0LG     -0.095600
     26 C46        58.9780  161.3300   50.8730 c3        1 0LG     -0.095600
     27 C41        60.1110  160.6970   53.6590 ca        1 0LG     -0.054000
     28 C42        60.1330  159.9870   54.8590 ca        1 0LG     -0.112000
     29 C43        59.0810  160.1060   55.7640 ca        1 0LG     -0.104000
     30 O21        56.2750  164.5500   58.7930 oh        1 0LG     -0.600800
     31 C22        53.6370  163.3760   59.6890 c3        1 0LG      0.107400
     32 O34        52.6180  163.8310   60.5560 os        1 0LG     -0.443600
     33 C35        51.5780  162.9000   60.8780 c3        1 0LG      0.150600
     34 C36        51.9750  161.9880   61.9840 c2        1 0LG     -0.223200
     35 C33        51.3560  161.8700   63.1630 c2        1 0LG     -0.151200
     36 C26        50.1920  162.6680   63.6080 c3        1 0LG     -0.089200
     37 C25        50.0340  162.8270   65.1240 c3        1 0LG      0.202800
     38 N23        51.3170  163.2920   65.7920 n4        1 0LG     -0.678800
     39 C9         51.7150  164.7010   65.4310 c         1 0LG      0.553700
     40 O24        50.8330  165.5390   65.3510 o         1 0LG     -0.363100
     41 C27        49.5220  161.5950   65.8080 ca        1 0LG     -0.197300
     42 C28        50.3390  160.4900   66.0830 ca        1 0LG     -0.113000
     43 C29        49.8050  159.3660   66.7080 ca        1 0LG     -0.104000
     44 C30        48.4530  159.3330   67.0600 ca        1 0LG     -0.068000
     45 C31        47.6380  160.4330   66.7900 ca        1 0LG     -0.104000
     46 C32        48.1690  161.5650   66.1720 ca        1 0LG     -0.113000
     47 H1       -605.6220-1941.6860 -757.4590 h1        1 0LG      0.227033
     48 H2       -604.0170-1942.3240 -757.8760 h1        1 0LG      0.227033
     49 H3       -604.8760-1941.3270 -759.0320 h1        1 0LG      0.227033
     50 H4         57.9750  165.8630   66.7920 h1        1 0LG      0.074367
     51 H5         57.7040  167.3510   67.8190 h1        1 0LG      0.074367
     52 H6         57.5850  167.4670   65.9980 h1        1 0LG      0.074367
     53 H7         53.3620  165.9800   67.1010 ha        1 0LG      0.181000
     54 H8         56.9670  165.5590   64.6600 ha        1 0LG      0.182000
     55 H9         53.1800  163.8890   63.3100 ha        1 0LG      0.150000
     56 H10        54.1450  164.9070   61.5590 hn        1 0LG      0.485300
     57 H11        55.0380  162.4520   61.1080 hx        1 0LG      0.111700
     58 H12        57.1350  163.1010   60.0670 h1        1 0LG      0.096700
     59 H13        55.8910  161.1970   58.9450 hx        1 0LG      0.119700
     60 H14        55.0470  162.3960   57.8310 hx        1 0LG      0.119700
     61 H15        57.9840  161.8790   57.9070 hn        1 0LG      0.455800
     62 H17        56.6920  160.0510   56.9370 hx        1 0LG      0.107200
     63 H18        55.8970  161.3030   55.8430 hx        1 0LG      0.107200
     64 H19        57.1200  162.3030   54.0080 ha        1 0LG      0.137000
     65 H20        58.0540  162.9050   52.0130 hc        1 0LG      0.054700
     66 H21        61.1440  162.6750   51.9430 hc        1 0LG      0.050700
     67 H22        60.1850  163.9630   52.7880 hc        1 0LG      0.050700
     68 H23        60.1120  163.8120   50.9820 hc        1 0LG      0.050700
     69 H24        59.9080  160.7130   50.8470 hc        1 0LG      0.050700
     70 H25        58.0970  160.6480   50.9370 hc        1 0LG      0.050700
     71 H26        58.9120  161.9080   49.9180 hc        1 0LG      0.050700
     72 H27        60.9440  160.5890   52.9410 ha        1 0LG      0.176000
     73 H28        60.9810  159.3190   55.0870 ha        1 0LG      0.171000
     74 H29        59.0910  159.5190   56.6950 ha        1 0LG      0.134000
     75 H30        57.1930  164.8610   58.8050 ho        1 0LG      0.451000
     76 H31        53.6810  164.1180   58.8420 h1        1 0LG      0.096700
     77 H32        53.4390  162.3430   59.3010 h1        1 0LG      0.096700
     78 H33        51.2890  162.3030   59.9710 h1        1 0LG      0.097200
     79 H34        50.7220  163.5810   61.1510 h1        1 0LG      0.097200
     80 H35        52.8190  161.3190   61.7440 ha        1 0LG      0.125000
     81 H36        51.6720  161.0660   63.8560 ha        1 0LG      0.146000
     82 H37        49.2480  162.1580   63.2490 hc        1 0LG      0.103200
     83 H38        50.2090  163.6940   63.1460 hc        1 0LG      0.103200
     84 H39        49.2860  163.6710   65.2900 hx        1 0LG      0.131700
     85 H40        51.1660  163.2410   66.8110 hn        1 0LG      0.466800
     86 H41        51.4050  160.4860   65.8130 ha        1 0LG      0.129500
     87 H42        50.4500  158.4990   66.9260 ha        1 0LG      0.170500
     88 H43        48.0320  158.4390   67.5530 ha        1 0LG      0.177000
     89 H44        46.5690  160.4110   67.0680 ha        1 0LG      0.170500
     90 H45        47.5140  162.4280   65.9690 ha        1 0LG      0.129500
     91 H71        55.4910  166.8500   67.7950 hn        1 0LG      0.470800
     92 H162       55.5890  165.3220   60.8340 hn        1 0LG      0.485300
     93 H202       57.2090  162.9990   56.9550 hn        1 0LG      0.455800
     94 H232       52.0760  162.6480   65.5480 hn        1 0LG      0.466800
@<TRIPOS>BOND
     1    1    2 1   
     2    2    3 1   
     3    2    4 1   
     4    4   47 1   
     5    4   48 1   
     6    4   49 1   
     7    5    6 1   
     8    5    7 1   
     9    5   91 1   
    10    6   50 1   
    11    6   51 1   
    12    6   52 1   
    13    7    8 ar  
    14    7   10 ar  
    15    8    9 ar  
    16    8   53 1   
    17    9   12 ar  
    18    9   39 1   
    19   10   11 ar  
    20   10   54 1   
    21   11   12 ar  
    22   11   13 1   
    23   12   55 1   
    24   13   14 2   
    25   13   15 1   
    26   15   16 1   
    27   15   56 1   
    28   15   92 1   
    29   16   17 1   
    30   16   31 1   
    31   16   57 1   
    32   17   18 1   
    33   17   30 1   
    34   17   58 1   
    35   18   19 1   
    36   18   59 1   
    37   18   60 1   
    38   19   20 1   
    39   19   61 1   
    40   19   93 1   
    41   20   21 1   
    42   20   62 1   
    43   20   63 1   
    44   21   22 ar  
    45   21   29 ar  
    46   22   23 ar  
    47   22   64 1   
    48   23   24 1   
    49   23   27 ar  
    50   24   25 1   
    51   24   26 1   
    52   24   65 1   
    53   25   66 1   
    54   25   67 1   
    55   25   68 1   
    56   26   69 1   
    57   26   70 1   
    58   26   71 1   
    59   27   28 ar  
    60   27   72 1   
    61   28   29 ar  
    62   28   73 1   
    63   29   74 1   
    64   30   75 1   
    65   31   32 1   
    66   31   76 1   
    67   31   77 1   
    68   32   33 1   
    69   33   34 1   
    70   33   78 1   
    71   33   79 1   
    72   34   35 2   
    73   34   80 1   
    74   35   36 1   
    75   35   81 1   
    76   36   37 1   
    77   36   82 1   
    78   36   83 1   
    79   37   38 1   
    80   37   41 1   
    81   37   84 1   
    82   38   39 1   
    83   38   85 1   
    84   38   94 1   
    85   39   40 2   
    86   41   42 ar  
    87   41   46 ar  
    88   42   43 ar  
    89   42   86 1   
    90   43   44 ar  
    91   43   87 1   
    92   44   45 ar  
    93   44   88 1   
    94   45   46 ar  
    95   45   89 1   
    96   46   90 1   
@<TRIPOS>SUBSTRUCTURE
     1 0LG         1 TEMP              0 ****  ****    0 ROOT
