@<TRIPOS>MOLECULE
0LG
   90    93     1     0     0
SMALL
bcc


@<TRIPOS>ATOM
      1 O14        -5.5940   -5.9610    0.4640 o         1 0LG     -0.645800
      2 S11        -5.2860   -4.6160    0.7480 s6        1 0LG      1.460900
      3 O13        -6.3790   -3.7360    0.8260 o         1 0LG     -0.645800
      4 C12        -4.4460   -4.5480    2.2190 c3        1 0LG     -0.371300
      5 N7         -4.1700   -4.0740   -0.3400 nh        1 0LG     -0.677900
      6 C10        -3.7600   -4.9260   -1.4240 c3        1 0LG      0.193100
      7 C6         -3.5300   -2.8210   -0.2470 ca        1 0LG      0.144600
      8 C1         -4.2210   -1.6930    0.2580 ca        1 0LG     -0.124000
      9 C2         -3.5710   -0.4650    0.3480 ca        1 0LG     -0.117600
     10 C5         -2.1880   -2.6670   -0.6660 ca        1 0LG     -0.099000
     11 C4         -1.5620   -1.4270   -0.5620 ca        1 0LG     -0.126600
     12 C3         -2.2440   -0.3180   -0.0590 ca        1 0LG     -0.109000
     13 C8         -0.1540   -1.2300   -1.0260 c         1 0LG      0.669700
     14 O15         0.1970   -1.4590   -2.1960 o         1 0LG     -0.574100
     15 N16         0.7450   -0.7920   -0.0570 n         1 0LG     -0.531900
     16 C17         1.8520    0.0660   -0.4220 c3        1 0LG      0.064700
     17 C18         3.2070   -0.5260    0.0530 c3        1 0LG      0.122100
     18 C19         4.3570    0.0870   -0.7680 c3        1 0LG      0.134800
     19 N20         5.6280   -0.5420   -0.4860 n3        1 0LG     -0.826200
     20 C37         6.7590    0.1860   -1.0290 c3        1 0LG      0.213100
     21 C38         8.0810   -0.2680   -0.4820 ca        1 0LG     -0.098300
     22 C39         8.9960    0.6780   -0.0110 ca        1 0LG     -0.123000
     23 C40        10.2480    0.2780    0.4690 ca        1 0LG     -0.075300
     24 C44        11.2200    1.3020    0.9660 c3        1 0LG     -0.023400
     25 C45        11.5420    1.0810    2.4320 c3        1 0LG     -0.088100
     26 C46        12.4900    1.2940    0.1370 c3        1 0LG     -0.088100
     27 C41        10.5730   -1.0840    0.4780 ca        1 0LG     -0.121000
     28 C42         9.6610   -2.0280    0.0120 ca        1 0LG     -0.131000
     29 C43         8.4160   -1.6250   -0.4700 ca        1 0LG     -0.111000
     30 O21         3.4070   -0.3540    1.4430 oh        1 0LG     -0.590800
     31 C22         1.6850    1.4980    0.1430 c3        1 0LG      0.096400
     32 O34         0.4360    1.9950   -0.3240 os        1 0LG     -0.426600
     33 C35        -0.0110    3.1400    0.4100 c3        1 0LG      0.161600
     34 C36        -1.3630    3.4810   -0.1120 c2        1 0LG     -0.183200
     35 C33        -2.3820    3.8310    0.6770 c2        1 0LG     -0.150200
     36 C26        -3.7240    4.1910    0.1600 c3        1 0LG     -0.069200
     37 C25        -4.7840    3.1230    0.5220 c3        1 0LG      0.155000
     38 N23        -4.4000    1.8060    0.0700 n         1 0LG     -0.561900
     39 C9         -4.2720    0.7270    0.9210 c         1 0LG      0.679700
     40 O24        -4.6790    0.7510    2.0980 o         1 0LG     -0.592100
     41 C27        -6.1140    3.5650   -0.0460 ca        1 0LG     -0.102300
     42 C28        -6.3100    3.6610   -1.4270 ca        1 0LG     -0.115500
     43 C29        -7.5400    4.0780   -1.9330 ca        1 0LG     -0.129500
     44 C30        -8.5810    4.4000   -1.0630 ca        1 0LG     -0.123000
     45 C31        -8.3910    4.3000    0.3150 ca        1 0LG     -0.129500
     46 C32        -7.1620    3.8800    0.8240 ca        1 0LG     -0.115500
     47 H1         -3.5850   -5.2580    2.2750 h1        1 0LG      0.122367
     48 H2         -4.0430   -3.5340    2.4630 h1        1 0LG      0.122367
     49 H3         -5.1270   -4.8190    3.0670 h1        1 0LG      0.122367
     50 H4         -3.6100   -4.3270   -2.3620 h1        1 0LG      0.057367
     51 H5         -2.7990   -5.4540   -1.1780 h1        1 0LG      0.057367
     52 H6         -4.5550   -5.7000   -1.6140 h1        1 0LG      0.057367
     53 H7         -5.2770   -1.7640    0.5800 ha        1 0LG      0.187000
     54 H8         -1.6240   -3.5150   -1.0880 ha        1 0LG      0.158000
     55 H9         -1.7390    0.6630    0.0050 ha        1 0LG      0.164000
     56 H10         0.3770   -0.6280    0.8540 hn        1 0LG      0.304500
     57 H11         1.8850    0.1320   -1.5520 h1        1 0LG      0.101700
     58 H12         3.1930   -1.6490   -0.0800 h1        1 0LG      0.113700
     59 H13         4.1400   -0.0640   -1.8630 h1        1 0LG      0.035700
     60 H14         4.3780    1.2020   -0.5770 h1        1 0LG      0.035700
     61 H15         5.7360   -0.7080    0.4980 hn        1 0LG      0.374800
     62 H17         6.7560    0.0140   -2.1460 h1        1 0LG      0.036700
     63 H18         6.6590    1.3020   -0.8680 h1        1 0LG      0.036700
     64 H19         8.7320    1.7460   -0.0210 ha        1 0LG      0.129000
     65 H20        10.7490    2.3230    0.8660 hc        1 0LG      0.048700
     66 H21        12.2390    1.8750    2.7930 hc        1 0LG      0.036867
     67 H22        10.6100    1.1180    3.0450 hc        1 0LG      0.036867
     68 H23        12.0270    0.0870    2.5840 hc        1 0LG      0.036867
     69 H24        13.0050    0.3060    0.2140 hc        1 0LG      0.036867
     70 H25        12.2550    1.4880   -0.9370 hc        1 0LG      0.036867
     71 H26        13.1880    2.0870    0.4990 hc        1 0LG      0.036867
     72 H27        11.5550   -1.4080    0.8560 ha        1 0LG      0.133000
     73 H28         9.9240   -3.0960    0.0220 ha        1 0LG      0.133000
     74 H29         7.6980   -2.3720   -0.8420 ha        1 0LG      0.147000
     75 H30         3.6280    0.5730    1.5970 ho        1 0LG      0.392000
     76 H31         1.7060    1.4880    1.2660 h1        1 0LG      0.038700
     77 H32         2.5090    2.1560   -0.2410 h1        1 0LG      0.038700
     78 H33        -0.0310    2.9030    1.5080 h1        1 0LG      0.038200
     79 H34         0.7040    3.9900    0.2320 h1        1 0LG      0.038200
     80 H35        -1.4600    3.4250   -1.2080 ha        1 0LG      0.140000
     81 H36        -2.2770    3.8630    1.7750 ha        1 0LG      0.128000
     82 H37        -4.0540    5.1620    0.6180 hc        1 0LG      0.060200
     83 H38        -3.6990    4.3350   -0.9530 hc        1 0LG      0.060200
     84 H39        -4.8680    3.0800    1.6520 h1        1 0LG      0.092700
     85 H40        -4.1010    1.7170   -0.8720 hn        1 0LG      0.315500
     86 H41        -5.4940    3.4050   -2.1190 ha        1 0LG      0.132500
     87 H42        -7.6890    4.1500   -3.0210 ha        1 0LG      0.134000
     88 H43        -9.5510    4.7290   -1.4630 ha        1 0LG      0.133000
     89 H44        -9.2120    4.5470    1.0040 ha        1 0LG      0.134000
     90 H45        -7.0220    3.7890    1.9120 ha        1 0LG      0.132500
@<TRIPOS>BOND
     1    1    2 2   
     2    2    3 2   
     3    2    4 1   
     4    2    5 1   
     5    4   47 1   
     6    4   48 1   
     7    4   49 1   
     8    5    6 1   
     9    5    7 1   
    10    6   50 1   
    11    6   51 1   
    12    6   52 1   
    13    7    8 ar  
    14    7   10 ar  
    15    8    9 ar  
    16    8   53 1   
    17    9   12 ar  
    18    9   39 1   
    19   10   11 ar  
    20   10   54 1   
    21   11   12 ar  
    22   11   13 1   
    23   12   55 1   
    24   13   14 2   
    25   13   15 1   
    26   15   16 1   
    27   15   56 1   
    28   16   17 1   
    29   16   31 1   
    30   16   57 1   
    31   17   18 1   
    32   17   30 1   
    33   17   58 1   
    34   18   19 1   
    35   18   59 1   
    36   18   60 1   
    37   19   20 1   
    38   19   61 1   
    39   20   21 1   
    40   20   62 1   
    41   20   63 1   
    42   21   22 ar  
    43   21   29 ar  
    44   22   23 ar  
    45   22   64 1   
    46   23   24 1   
    47   23   27 ar  
    48   24   25 1   
    49   24   26 1   
    50   24   65 1   
    51   25   66 1   
    52   25   67 1   
    53   25   68 1   
    54   26   69 1   
    55   26   70 1   
    56   26   71 1   
    57   27   28 ar  
    58   27   72 1   
    59   28   29 ar  
    60   28   73 1   
    61   29   74 1   
    62   30   75 1   
    63   31   32 1   
    64   31   76 1   
    65   31   77 1   
    66   32   33 1   
    67   33   34 1   
    68   33   78 1   
    69   33   79 1   
    70   34   35 2   
    71   34   80 1   
    72   35   36 1   
    73   35   81 1   
    74   36   37 1   
    75   36   82 1   
    76   36   83 1   
    77   37   38 1   
    78   37   41 1   
    79   37   84 1   
    80   38   39 1   
    81   38   85 1   
    82   39   40 2   
    83   41   42 ar  
    84   41   46 ar  
    85   42   43 ar  
    86   42   86 1   
    87   43   44 ar  
    88   43   87 1   
    89   44   45 ar  
    90   44   88 1   
    91   45   46 ar  
    92   45   89 1   
    93   46   90 1   
@<TRIPOS>SUBSTRUCTURE
     1 0LG         1 TEMP              0 ****  ****    0 ROOT
