@<TRIPOS>MOLECULE
0LG
   93    96     1     0     0
SMALL
bcc


@<TRIPOS>ATOM
      1 O14         1.6590    1.8370    2.0430 o         1 0LG     -0.655300
      2 S11         2.2820    0.7700    1.3970 s6        1 0LG      1.463900
      3 O13         3.6190    0.5160    1.8110 o         1 0LG     -0.655300
      4 C12         1.3650   -0.6180    1.4540 c3        1 0LG     -0.404300
      5 N7          2.3780    1.1280   -0.2530 nh        1 0LG     -0.659900
      6 C10         1.2040    1.1710   -1.0850 c3        1 0LG      0.178100
      7 C6          3.5580    1.6780   -0.7600 ca        1 0LG      0.183600
      8 C1          4.8030    1.0780   -0.4480 ca        1 0LG     -0.052000
      9 C2          5.9950    1.7500   -0.7180 ca        1 0LG     -0.164600
     10 C5          3.5710    2.8630   -1.5320 ca        1 0LG     -0.046000
     11 C4          4.7870    3.4890   -1.8640 ca        1 0LG     -0.172600
     12 C3          6.0080    2.9450   -1.4450 ca        1 0LG     -0.033000
     13 C8          4.6710    4.7270   -2.6430 c         1 0LG      0.576700
     14 O15         3.7000    5.1310   -3.2680 o         1 0LG     -0.412100
     15 N16         5.8590    5.6740   -2.6810 ny        1 0LG     -0.674800
     16 C17         5.7640    6.7370   -1.6110 c3        1 0LG      0.122500
     17 C18         5.3490    8.1010   -2.2400 c3        1 0LG      0.101100
     18 C19         5.4050    9.2230   -1.1810 c3        1 0LG      0.079800
     19 N20         5.0380   10.5530   -1.7270 ny        1 0LG     -0.777000
     20 C37         5.1540   11.6550   -0.6830 c3        1 0LG      0.198100
     21 C38         4.7340   12.9470   -1.2750 ca        1 0LG     -0.222300
     22 C39         5.6890   13.7910   -1.8610 ca        1 0LG     -0.100000
     23 C40         5.3130   15.0400   -2.3630 ca        1 0LG     -0.045300
     24 C44         6.3380   15.9480   -2.9720 c3        1 0LG     -0.034400
     25 C45         6.0070   16.2440   -4.4230 c3        1 0LG     -0.095600
     26 C46         6.4540   17.2360   -2.1790 c3        1 0LG     -0.095600
     27 C41         3.9680   15.4330   -2.2770 ca        1 0LG     -0.053000
     28 C42         3.0170   14.5920   -1.6960 ca        1 0LG     -0.112000
     29 C43         3.3940   13.3490   -1.1940 ca        1 0LG     -0.103000
     30 O21         6.2740    8.3990   -3.2680 oh        1 0LG     -0.599800
     31 C22         7.0910    6.8540   -0.8170 c3        1 0LG      0.113400
     32 O34         7.5750    5.5410   -0.5880 os        1 0LG     -0.476600
     33 C35         8.2950    5.3430    0.6410 c3        1 0LG      0.165600
     34 C36         7.4160    4.6880    1.6460 c2        1 0LG     -0.207200
     35 C33         7.6220    3.5000    2.2240 c2        1 0LG     -0.151200
     36 C26         8.7650    2.5960    1.9720 c3        1 0LG     -0.088200
     37 C25         8.4610    1.0950    2.0150 c3        1 0LG      0.211800
     38 N23         7.2290    0.7150    1.2090 ny        1 0LG     -0.673800
     39 C9          7.2740    1.2070   -0.2110 c         1 0LG      0.561700
     40 O24         8.3370    1.1510   -0.8120 o         1 0LG     -0.391100
     41 C27         8.3420    0.5430    3.4030 ca        1 0LG     -0.198300
     42 C28         7.2230    0.7770    4.2130 ca        1 0LG     -0.109000
     43 C29         7.1780    0.2590    5.5060 ca        1 0LG     -0.107500
     44 C30         8.2470   -0.4920    6.0010 ca        1 0LG     -0.069000
     45 C31         9.3610   -0.7300    5.1950 ca        1 0LG     -0.107500
     46 C32         9.4080   -0.2220    3.8970 ca        1 0LG     -0.109000
     47 H1          1.5580   -1.1910    2.4060 h1        1 0LG      0.159033
     48 H2          0.2560   -0.4300    1.4600 h1        1 0LG      0.159033
     49 H3          1.5350   -1.3690    0.6380 h1        1 0LG      0.159033
     50 H4          1.4720    1.0620   -2.1690 h1        1 0LG      0.070367
     51 H5          0.6450    2.1370   -0.9440 h1        1 0LG      0.070367
     52 H6          0.5290    0.3150   -0.8080 h1        1 0LG      0.070367
     53 H7          4.8250    0.0810    0.0350 ha        1 0LG      0.192000
     54 H8          2.6160    3.3100   -1.8710 ha        1 0LG      0.191000
     55 H9          6.9840    3.4150   -1.6520 ha        1 0LG      0.167000
     56 H10         5.9030    6.1310   -3.6050 hn        1 0LG      0.479800
     57 H11         4.9480    6.4210   -0.8950 hx        1 0LG      0.116700
     58 H12         4.2980    8.0020   -2.6410 h1        1 0LG      0.091700
     59 H13         6.4580    9.3110   -0.7820 hx        1 0LG      0.120200
     60 H14         4.7060    8.9750   -0.3330 hx        1 0LG      0.120200
     61 H15         4.0730   10.5470   -2.0790 hn        1 0LG      0.456800
     62 H17         6.2300   11.6840   -0.3480 hx        1 0LG      0.107200
     63 H18         4.4950   11.3630    0.1830 hx        1 0LG      0.107200
     64 H19         6.7460   13.4850   -1.9020 ha        1 0LG      0.136000
     65 H20         7.3410   15.4300   -2.9420 hc        1 0LG      0.054700
     66 H21         6.8030   16.8920   -4.8650 hc        1 0LG      0.050867
     67 H22         5.9470   15.3010   -5.0150 hc        1 0LG      0.050867
     68 H23         5.0320   16.7820   -4.5070 hc        1 0LG      0.050867
     69 H24         7.2500   17.8810   -2.6240 hc        1 0LG      0.050867
     70 H25         6.7220   17.0230   -1.1160 hc        1 0LG      0.050867
     71 H26         5.4920   17.8030   -2.1980 hc        1 0LG      0.050867
     72 H27         3.6640   16.4220   -2.6640 ha        1 0LG      0.176000
     73 H28         1.9660   14.9190   -1.6240 ha        1 0LG      0.171000
     74 H29         2.6430   12.7040   -0.7120 ha        1 0LG      0.134000
     75 H30         5.7890    8.6660   -4.0640 ho        1 0LG      0.453000
     76 H31         7.8560    7.4140   -1.4210 h1        1 0LG      0.086200
     77 H32         6.8790    7.3890    0.1460 h1        1 0LG      0.086200
     78 H33         9.1670    4.7030    0.3270 h1        1 0LG      0.087700
     79 H34         8.6880    6.3160    1.0410 h1        1 0LG      0.087700
     80 H35         6.5390    5.2900    1.9440 ha        1 0LG      0.135000
     81 H36         6.9310    3.1660    3.0220 ha        1 0LG      0.153000
     82 H37         9.2520    2.8200    0.9830 hc        1 0LG      0.101200
     83 H38         9.5430    2.7790    2.7730 hc        1 0LG      0.101200
     84 H39         9.3280    0.5780    1.4870 hx        1 0LG      0.122700
     85 H40         7.1680   -0.3140    1.2090 hn        1 0LG      0.477800
     86 H41         6.3670    1.3660    3.8520 ha        1 0LG      0.134500
     87 H42         6.2960    0.4440    6.1410 ha        1 0LG      0.168500
     88 H43         8.2100   -0.8960    7.0270 ha        1 0LG      0.174000
     89 H44        10.2070   -1.3230    5.5820 ha        1 0LG      0.168500
     90 H45        10.2940   -0.4190    3.2710 ha        1 0LG      0.134500
     91 H162        6.7360    5.1490   -2.5510 hn        1 0LG      0.479800
     92 H202        5.6580   10.7860   -2.5150 hn        1 0LG      0.456800
     93 H232        6.3850    1.0770    1.6810 hn        1 0LG      0.477800
@<TRIPOS>BOND
     1    1    2 2   
     2    2    3 2   
     3    2    4 1   
     4    2    5 1   
     5    4   47 1   
     6    4   48 1   
     7    4   49 1   
     8    5    6 1   
     9    5    7 1   
    10    6   50 1   
    11    6   51 1   
    12    6   52 1   
    13    7    8 ar  
    14    7   10 ar  
    15    8    9 ar  
    16    8   53 1   
    17    9   12 ar  
    18    9   39 1   
    19   10   11 ar  
    20   10   54 1   
    21   11   12 ar  
    22   11   13 1   
    23   12   55 1   
    24   13   14 2   
    25   13   15 1   
    26   15   16 1   
    27   15   56 1   
    28   15   91 1   
    29   16   17 1   
    30   16   31 1   
    31   16   57 1   
    32   17   18 1   
    33   17   30 1   
    34   17   58 1   
    35   18   19 1   
    36   18   59 1   
    37   18   60 1   
    38   19   20 1   
    39   19   61 1   
    40   19   92 1   
    41   20   21 1   
    42   20   62 1   
    43   20   63 1   
    44   21   22 ar  
    45   21   29 ar  
    46   22   23 ar  
    47   22   64 1   
    48   23   24 1   
    49   23   27 ar  
    50   24   25 1   
    51   24   26 1   
    52   24   65 1   
    53   25   66 1   
    54   25   67 1   
    55   25   68 1   
    56   26   69 1   
    57   26   70 1   
    58   26   71 1   
    59   27   28 ar  
    60   27   72 1   
    61   28   29 ar  
    62   28   73 1   
    63   29   74 1   
    64   30   75 1   
    65   31   32 1   
    66   31   76 1   
    67   31   77 1   
    68   32   33 1   
    69   33   34 1   
    70   33   78 1   
    71   33   79 1   
    72   34   35 2   
    73   34   80 1   
    74   35   36 1   
    75   35   81 1   
    76   36   37 1   
    77   36   82 1   
    78   36   83 1   
    79   37   38 1   
    80   37   41 1   
    81   37   84 1   
    82   38   39 1   
    83   38   85 1   
    84   38   93 1   
    85   39   40 2   
    86   41   42 ar  
    87   41   46 ar  
    88   42   43 ar  
    89   42   86 1   
    90   43   44 ar  
    91   43   87 1   
    92   44   45 ar  
    93   44   88 1   
    94   45   46 ar  
    95   45   89 1   
    96   46   90 1   
@<TRIPOS>SUBSTRUCTURE
     1 0LG         1 TEMP              0 ****  ****    0 ROOT
