@<TRIPOS>MOLECULE
0LG
   90    79     1     0     0
SMALL
bcc


@<TRIPOS>ATOM
      1 O14         2.3090    7.3630    0.7810 o         1 0LG     -0.923500
      2 S11         3.7740    7.2880    0.8270 ss        1 0LG      2.816000
      3 O13         4.0020    7.1700    2.2310 o         1 0LG     -0.923500
      4 C12         4.5280    8.7890    0.1660 c2        1 0LG     -0.950000
      5 N7          4.3400    5.9370    0.0030 n2        1 0LG     -0.774000
      6 C10         5.7200    5.9120   -0.5060 c3        1 0LG     -0.085000
      7 C6          3.4250    4.8130   -0.2880 c1        1 0LG      0.064000
      8 C1          3.2580    4.3730   -1.6050 c1        1 0LG     -0.095000
      9 C2          2.4030    3.2710   -1.8850 c1        1 0LG     -0.101000
     10 C5          2.7400    4.1590    0.7740 c1        1 0LG     -0.116000
     11 C4          1.9030    3.0800    0.5050 c1        1 0LG     -0.108000
     12 C3          1.7310    2.6290   -0.8450 c1        1 0LG     -0.114000
     13 C8          1.2700    2.2550    1.7010 c1        1 0LG      0.332000
     14 O15         0.4400    2.7540    2.4000 o         1 0LG     -0.326000
     15 N16         1.1570    0.8390    1.3170 n2        1 0LG     -0.335000
     16 C17        -0.0020    0.2690    1.8880 c3        1 0LG     -0.030000
     17 C18         0.3460   -1.0810    2.5000 c3        1 0LG     -0.011000
     18 C19        -0.7480   -1.4940    3.4610 c3        1 0LG     -0.068000
     19 N20        -0.9170   -2.9630    3.4180 n3        1 0LG     -0.290000
     20 C37        -2.3270   -3.2890    3.4310 c3        1 0LG     -0.045000
     21 C38        -2.5050   -4.8200    3.7120 c1        1 0LG     -0.078000
     22 C39        -3.6880   -5.2930    4.2450 c1        1 0LG     -0.111000
     23 C40        -3.8660   -6.6480    4.4280 c1        1 0LG     -0.067000
     24 C44        -5.1960   -7.1810    4.9260 c2        1 0LG     -0.070000
     25 C45        -5.4200   -8.5990    4.3660 c3        1 0LG     -0.206000
     26 C46        -5.1840   -7.2330    6.4860 c3        1 0LG     -0.206000
     27 C41        -2.8550   -7.5330    4.0750 c2        1 0LG     -0.124000
     28 C42        -1.6890   -7.0630    3.5480 c1        1 0LG     -0.129000
     29 C43        -1.5090   -5.7010    3.3640 c1        1 0LG     -0.130000
     30 O21         0.4640   -2.0390    1.4830 oh        1 0LG     -0.333000
     31 C22        -1.0650    0.0780    0.8060 c3        1 0LG     -0.054000
     32 O34        -0.4120   -0.2430   -0.4740 os        1 0LG     -0.306000
     33 C35        -1.3950   -0.2110   -1.5520 c3        1 0LG      0.013000
     34 C36        -0.9820   -1.2020   -2.6590 c2        1 0LG     -0.174000
     35 C33        -0.6640   -0.6710   -4.1180 c1        1 0LG     -0.148000
     36 C26        -0.7380    0.8580   -4.4260 c2        1 0LG     -0.153000
     37 C25         0.6090    1.4240   -4.5170 c3        1 0LG      0.071000
     38 N23         0.7430    2.5260   -3.5540 n         1 0LG     -0.374000
     39 C9          2.1220    2.8420   -3.3980 c2        1 0LG      0.353000
     40 O24         2.9630    2.2220   -4.0220 o         1 0LG     -0.354000
     41 C27         0.8390    1.9550   -5.9300 c1        1 0LG     -0.097000
     42 C28         1.8160    1.3700   -6.7570 c1        1 0LG     -0.122750
     43 C29         2.0260    1.8740   -8.0530 c1        1 0LG     -0.122750
     44 C30         1.2620    2.9550   -8.5140 c1        1 0LG     -0.122750
     45 C31         0.2910    3.5320   -7.6830 c1        1 0LG     -0.122750
     46 C32         0.0810    3.0340   -6.3970 c1        1 0LG     -0.122000
     47 H1          3.9620    9.5350    0.3480 ha        1 0LG      0.161333
     48 H2          5.3910    8.9280    0.5850 ha        1 0LG      0.161333
     49 H3          4.6440    8.6990   -0.7870 ha        1 0LG      0.161333
     50 H4          6.0120    4.9890   -0.6090 h1        1 0LG      0.097333
     51 H5          6.3120    6.3750    0.1290 h1        1 0LG      0.097333
     52 H6          5.7550    6.3570   -1.3630 h1        1 0LG      0.097333
     53 H7          3.7230    4.8190   -2.3240 ha        1 0LG      0.163000
     54 H8          2.8610    4.4740    1.7140 ha        1 0LG      0.190000
     55 H9          1.1380    1.8650   -1.0370 ha        1 0LG      0.154000
     56 H10         1.4360    0.5720    0.5120 hn        1 0LG      0.215000
     57 H11        -0.3470    0.8600    2.5810 h1        1 0LG      0.141000
     58 H12         1.1990   -1.0120    2.9850 h1        1 0LG      0.095000
     59 H13        -0.4990   -1.2130    4.3970 h1        1 0LG      0.098500
     60 H14        -1.5760   -1.0680    3.2070 h1        1 0LG      0.098500
     61 H15        -0.5320   -3.2940    2.6560 hn        1 0LG      0.161000
     62 H17        -2.7180   -3.0700    2.5750 h1        1 0LG      0.089500
     63 H18        -2.7680   -2.7790    4.1280 h1        1 0LG      0.089500
     64 H19        -4.4200   -4.6220    4.5660 ha        1 0LG      0.134000
     65 H20        -5.9090   -6.6000    4.6270 ha        1 0LG      0.090000
     66 H21        -6.3500   -8.8420    4.4670 hc        1 0LG      0.075333
     67 H22        -4.8670   -9.2290    4.8510 hc        1 0LG      0.075333
     68 H23        -5.1780   -8.6160    3.4160 hc        1 0LG      0.075333
     69 H24        -5.1950   -8.1760    6.7840 hc        1 0LG      0.075333
     70 H25        -4.3740   -6.7930    6.8230 hc        1 0LG      0.075333
     71 H26        -5.9840   -6.7670    6.8370 hc        1 0LG      0.075333
     72 H27        -2.9860   -8.5400    4.2100 ha        1 0LG      0.131000
     73 H28        -0.9570   -7.7060    3.2920 ha        1 0LG      0.130000
     74 H29        -0.6550   -5.3580    2.9770 ha        1 0LG      0.132000
     75 H30         1.2330   -2.4790    1.5760 ho        1 0LG      0.215000
     76 H31        -1.6530   -0.6470    1.0580 h1        1 0LG      0.088000
     77 H32        -1.5810    0.8930    0.7100 h1        1 0LG      0.088000
     78 H33        -1.4410    0.7080   -1.9310 h1        1 0LG      0.076000
     79 H34        -2.2980   -0.4690   -1.1910 h1        1 0LG      0.076000
     80 H35        -0.9360   -2.1760   -2.4620 ha        1 0LG      0.142000
     81 H36        -0.4080   -1.2860   -4.8070 ha        1 0LG      0.132000
     82 H37        -1.2030    0.9950   -5.2770 ha        1 0LG      0.097500
     83 H38        -1.2260    1.3040   -3.7190 ha        1 0LG      0.097500
     84 H39         1.2530    0.7500   -4.3210 h1        1 0LG      0.136000
     85 H40         0.1090    3.2000   -3.5340 hn        1 0LG      0.223000
     86 H41         2.3420    0.6200   -6.4340 ha        1 0LG      0.135750
     87 H42         2.7100    1.4670   -8.6370 ha        1 0LG      0.135750
     88 H43         1.4070    3.3090   -9.4170 ha        1 0LG      0.135750
     89 H44        -0.2330    4.2750   -8.0000 ha        1 0LG      0.135750
     90 H45        -0.5970    3.4400   -5.8230 ha        1 0LG      0.124000
@<TRIPOS>BOND
     1    1    2 1   
     2    2    3 1   
     3    4   47 1   
     4    4   48 1   
     5    4   49 1   
     6    5    6 1   
     7    5    7 1   
     8    6   50 1   
     9    6   51 1   
    10    6   52 1   
    11    7   10 1   
    12    8    9 1   
    13    8   53 1   
    14    9   39 1   
    15   10   54 1   
    16   11   12 1   
    17   12   55 1   
    18   13   14 1   
    19   15   16 1   
    20   15   56 1   
    21   16   17 1   
    22   16   31 1   
    23   16   57 1   
    24   17   18 1   
    25   17   30 1   
    26   17   58 1   
    27   18   19 1   
    28   18   59 1   
    29   18   60 1   
    30   19   20 1   
    31   19   61 1   
    32   20   21 1   
    33   20   62 1   
    34   20   63 1   
    35   21   29 1   
    36   22   23 1   
    37   22   64 1   
    38   23   27 1   
    39   24   25 1   
    40   24   26 1   
    41   24   65 1   
    42   25   66 1   
    43   25   67 1   
    44   25   68 1   
    45   26   69 1   
    46   26   70 1   
    47   26   71 1   
    48   27   28 1   
    49   27   72 1   
    50   28   73 1   
    51   29   74 1   
    52   30   75 1   
    53   31   32 1   
    54   31   76 1   
    55   31   77 1   
    56   32   33 1   
    57   33   34 1   
    58   33   78 1   
    59   33   79 1   
    60   34   35 1   
    61   34   80 1   
    62   35   81 1   
    63   36   37 1   
    64   36   82 1   
    65   36   83 1   
    66   37   38 1   
    67   37   41 1   
    68   37   84 1   
    69   38   39 1   
    70   38   85 1   
    71   39   40 1   
    72   41   46 1   
    73   42   43 1   
    74   42   86 1   
    75   43   87 1   
    76   44   45 1   
    77   44   88 1   
    78   45   89 1   
    79   46   90 1   
@<TRIPOS>SUBSTRUCTURE
     1 0LG         1 TEMP              0 ****  ****    0 ROOT
