@<TRIPOS>MOLECULE
0LH
   25    26     1     0     0
SMALL
bcc


@<TRIPOS>ATOM
      1 CAG        -0.0480   -0.1310   -0.0040 cc        1 0LH     -0.150100
      2 CAF         1.3120    0.0960    0.0150 cd        1 0LH     -0.116200
      3 CAJ         1.7400    0.0820    1.4060 ca        1 0LH     -0.089800
      4 CAD         2.9740    0.2340    2.0300 ca        1 0LH     -0.068000
      5 CAB         3.0360    0.1490    3.4180 ca        1 0LH     -0.134000
      6 CAC         1.8880   -0.0960    4.1840 ca        1 0LH     -0.095000
      7 CAE         0.6390   -0.2630    3.5920 ca        1 0LH     -0.154000
      8 CAK         0.5630   -0.1710    2.1990 ca        1 0LH     -0.073200
      9 NAL        -0.5320   -0.3750    1.3150 na        1 0LH     -0.075400
     10 CAI        -1.8780   -0.1210    1.6890 c3        1 0LH      0.036300
     11 CAH        -2.1980    1.3930    1.8700 c3        1 0LH      0.036800
     12 NAA        -3.5980    1.6250    2.3190 n4        1 0LH     -0.829600
     13 H1         -0.7270   -0.2220   -0.8550 h4        1 0LH      0.172000
     14 H2          1.9680    0.2410   -0.8410 ha        1 0LH      0.177000
     15 H3          3.8820    0.4100    1.4330 ha        1 0LH      0.155000
     16 H4          4.0060    0.2680    3.9270 ha        1 0LH      0.152000
     17 H5          1.9780   -0.1680    5.2790 ha        1 0LH      0.146000
     18 H6         -0.2450   -0.4840    4.2030 ha        1 0LH      0.125000
     19 H7         -2.0770   -0.6520    2.6650 h1        1 0LH      0.077700
     20 H8         -2.5550   -0.5430    0.8920 h1        1 0LH      0.077700
     21 H9         -2.0490    1.9360    0.8930 hx        1 0LH      0.122700
     22 H10        -1.5040    1.8380    2.6420 hx        1 0LH      0.122700
     23 H11        -3.7690    2.6300    2.4280 hn        1 0LH      0.462133
     24 H12        -4.2570    1.2460    1.6320 hn        1 0LH      0.462133
     25 HAA3       -3.7610    1.1600    3.2190 hn        1 0LH      0.462133
@<TRIPOS>BOND
     1    1    2 2   
     2    1    9 1   
     3    1   13 1   
     4    2    3 1   
     5    2   14 1   
     6    3    4 ar  
     7    3    8 ar  
     8    4    5 ar  
     9    4   15 1   
    10    5    6 ar  
    11    5   16 1   
    12    6    7 ar  
    13    6   17 1   
    14    7    8 ar  
    15    7   18 1   
    16    8    9 1   
    17    9   10 1   
    18   10   11 1   
    19   10   19 1   
    20   10   20 1   
    21   11   12 1   
    22   11   21 1   
    23   11   22 1   
    24   12   23 1   
    25   12   24 1   
    26   12   25 1   
@<TRIPOS>SUBSTRUCTURE
     1 0LH         1 TEMP              0 ****  ****    0 ROOT
