@<TRIPOS>MOLECULE
0LH
   25    26     1     0     0
SMALL
bcc


@<TRIPOS>ATOM
      1 CAG        -0.0570   -0.1490    0.0000 cc        1 0LH     -0.150100
      2 CAF         1.3070    0.0570    0.0180 cd        1 0LH     -0.116200
      3 CAJ         1.7350    0.0470    1.4090 ca        1 0LH     -0.089800
      4 CAD         2.9710    0.1860    2.0310 ca        1 0LH     -0.068000
      5 CAB         3.0330    0.1110    3.4200 ca        1 0LH     -0.134000
      6 CAC         1.8810   -0.1110    4.1870 ca        1 0LH     -0.095000
      7 CAE         0.6290   -0.2640    3.5970 ca        1 0LH     -0.154000
      8 CAK         0.5540   -0.1810    2.2040 ca        1 0LH     -0.073200
      9 NAL        -0.5440   -0.3760    1.3210 na        1 0LH     -0.075400
     10 CAI        -1.8850   -0.0990    1.6940 c3        1 0LH      0.036300
     11 CAH        -2.1830    1.4210    1.8630 c3        1 0LH      0.036800
     12 NAA        -3.5790    1.6780    2.3090 nz        1 0LH     -0.829600
     13 H1         -0.7370   -0.2370   -0.8490 h4        1 0LH      0.172000
     14 H2          1.9640    0.1860   -0.8400 ha        1 0LH      0.177000
     15 H3          3.8820    0.3440    1.4330 ha        1 0LH      0.155000
     16 H4          4.0040    0.2190    3.9280 ha        1 0LH      0.152000
     17 H5          1.9700   -0.1750    5.2840 ha        1 0LH      0.146000
     18 H6         -0.2580   -0.4670    4.2100 ha        1 0LH      0.125000
     19 H7         -2.0920   -0.6190    2.6750 h1        1 0LH      0.077700
     20 H8         -2.5690   -0.5170    0.9010 h1        1 0LH      0.077700
     21 H9         -2.0260    1.9540    0.8810 hx        1 0LH      0.122700
     22 H10        -1.4830    1.8620    2.6310 hx        1 0LH      0.122700
     23 H11        -3.7350    2.6860    2.4090 hn        1 0LH      0.462133
     24 H12        -4.2450    1.3040    1.6250 hn        1 0LH      0.462133
     25 HAA3       -3.7500    1.2230    3.2130 hn        1 0LH      0.462133
@<TRIPOS>BOND
     1    1    2 2   
     2    1    9 1   
     3    1   13 1   
     4    2    3 1   
     5    2   14 1   
     6    3    4 ar  
     7    3    8 ar  
     8    4    5 ar  
     9    4   15 1   
    10    5    6 ar  
    11    5   16 1   
    12    6    7 ar  
    13    6   17 1   
    14    7    8 ar  
    15    7   18 1   
    16    8    9 1   
    17    9   10 1   
    18   10   11 1   
    19   10   19 1   
    20   10   20 1   
    21   11   12 1   
    22   11   21 1   
    23   11   22 1   
    24   12   23 1   
    25   12   24 1   
    26   12   25 1   
@<TRIPOS>SUBSTRUCTURE
     1 0LH         1 TEMP              0 ****  ****    0 ROOT
