@<TRIPOS>MOLECULE
0LH
   24    25     1     0     0
SMALL
bcc


@<TRIPOS>ATOM
      1 CAG         0.4520    1.9620    0.1410 cc        1 0LH     -0.105100
      2 CAF        -0.8800    2.1220   -0.2210 cd        1 0LH     -0.186200
      3 CAJ        -1.5010    0.8170   -0.1530 ca        1 0LH     -0.093800
      4 CAD        -2.7920    0.3480   -0.3910 ca        1 0LH     -0.083000
      5 CAB        -3.0560   -1.0050   -0.2260 ca        1 0LH     -0.158000
      6 CAC        -2.0500   -1.8990    0.1780 ca        1 0LH     -0.115000
      7 CAE        -0.7550   -1.4730    0.4300 ca        1 0LH     -0.144000
      8 CAK        -0.4700   -0.1090    0.2650 ca        1 0LH     -0.044200
      9 NAL         0.7090    0.6220    0.4800 na        1 0LH     -0.078400
     10 CAI         2.0110    0.0670    0.6930 c3        1 0LH      0.041300
     11 CAH         2.7440   -0.3420   -0.6090 c3        1 0LH      0.130800
     12 NAA         4.0690   -0.8410   -0.3350 n3        1 0LH     -0.916800
     13 H1          1.2480    2.7060    0.2130 h4        1 0LH      0.166000
     14 H2         -1.3750    3.0470   -0.4980 ha        1 0LH      0.156000
     15 H3         -3.5830    1.0440   -0.7020 ha        1 0LH      0.133000
     16 H4         -4.0690   -1.3900   -0.4110 ha        1 0LH      0.129000
     17 H5         -2.3000   -2.9650    0.2970 ha        1 0LH      0.128000
     18 H6          0.0230   -2.1790    0.7480 ha        1 0LH      0.129000
     19 H7          2.6320    0.8340    1.2390 h1        1 0LH      0.065200
     20 H8          1.8980   -0.8390    1.3550 h1        1 0LH      0.065200
     21 H9          2.0990   -1.0890   -1.1600 h1        1 0LH      0.038200
     22 H10         2.8470    0.5640   -1.2710 h1        1 0LH      0.038200
     23 H11         4.0360   -1.6640    0.2320 hn        1 0LH      0.353300
     24 H12         4.5460   -1.0460   -1.1900 hn        1 0LH      0.353300
@<TRIPOS>BOND
     1    1    2 2   
     2    1    9 1   
     3    1   13 1   
     4    2    3 1   
     5    2   14 1   
     6    3    4 ar  
     7    3    8 ar  
     8    4    5 ar  
     9    4   15 1   
    10    5    6 ar  
    11    5   16 1   
    12    6    7 ar  
    13    6   17 1   
    14    7    8 ar  
    15    7   18 1   
    16    8    9 1   
    17    9   10 1   
    18   10   11 1   
    19   10   19 1   
    20   10   20 1   
    21   11   12 1   
    22   11   21 1   
    23   11   22 1   
    24   12   23 1   
    25   12   24 1   
@<TRIPOS>SUBSTRUCTURE
     1 0LH         1 TEMP              0 ****  ****    0 ROOT
