@<TRIPOS>MOLECULE
0LH
   25    26     1     0     0
SMALL
bcc


@<TRIPOS>ATOM
      1 CAG        -0.0560   -0.1500   -0.0000 cc        1 0LH     -0.150100
      2 CAF         1.3070    0.0580    0.0180 cd        1 0LH     -0.116200
      3 CAJ         1.7350    0.0500    1.4080 ca        1 0LH     -0.089800
      4 CAD         2.9710    0.1910    2.0300 ca        1 0LH     -0.068000
      5 CAB         3.0330    0.1160    3.4200 ca        1 0LH     -0.134000
      6 CAC         1.8820   -0.1070    4.1870 ca        1 0LH     -0.095000
      7 CAE         0.6300   -0.2620    3.5970 ca        1 0LH     -0.154000
      8 CAK         0.5540   -0.1800    2.2040 ca        1 0LH     -0.073200
      9 NAL        -0.5430   -0.3770    1.3210 na        1 0LH     -0.075400
     10 CAI        -1.8850   -0.1010    1.6940 c3        1 0LH      0.036300
     11 CAH        -2.1840    1.4180    1.8640 c3        1 0LH      0.036800
     12 NAA        -3.5800    1.6730    2.3100 n4        1 0LH     -0.829600
     13 H1         -0.7370   -0.2390   -0.8500 h4        1 0LH      0.172000
     14 H2          1.9640    0.1870   -0.8410 ha        1 0LH      0.177000
     15 H3          3.8810    0.3490    1.4320 ha        1 0LH      0.155000
     16 H4          4.0040    0.2260    3.9280 ha        1 0LH      0.152000
     17 H5          1.9700   -0.1710    5.2830 ha        1 0LH      0.146000
     18 H6         -0.2570   -0.4660    4.2100 ha        1 0LH      0.125000
     19 H7         -2.5680   -0.5200    0.9000 h1        1 0LH      0.077700
     20 H8         -2.0920   -0.6220    2.6740 h1        1 0LH      0.077700
     21 H9         -1.4840    1.8590    2.6320 hx        1 0LH      0.122700
     22 H10        -2.0270    1.9520    0.8820 hx        1 0LH      0.122700
     23 H11        -3.7370    2.6820    2.4120 hn        1 0LH      0.462133
     24 H12        -3.7510    1.2170    3.2130 hn        1 0LH      0.462133
     25 HAA3       -4.2450    1.3000    1.6250 hn        1 0LH      0.462133
@<TRIPOS>BOND
     1    1    2 2   
     2    1    9 1   
     3    1   13 1   
     4    2    3 1   
     5    2   14 1   
     6    3    4 ar  
     7    3    8 ar  
     8    4    5 ar  
     9    4   15 1   
    10    5    6 ar  
    11    5   16 1   
    12    6    7 ar  
    13    6   17 1   
    14    7    8 ar  
    15    7   18 1   
    16    8    9 1   
    17    9   10 1   
    18   10   11 1   
    19   10   19 1   
    20   10   20 1   
    21   11   12 1   
    22   11   21 1   
    23   11   22 1   
    24   12   23 1   
    25   12   24 1   
    26   12   25 1   
@<TRIPOS>SUBSTRUCTURE
     1 0LH         1 TEMP              0 ****  ****    0 ROOT
