@<TRIPOS>MOLECULE
0LH
   24    18     1     0     0
SMALL
bcc


@<TRIPOS>ATOM
      1 CAG         0.0160   -0.2010   -1.8130 c1        1 0LH     -0.078000
      2 CAF         1.3990   -0.1810   -1.8400 c1        1 0LH     -0.198000
      3 CAJ         1.8550   -0.2020   -0.5290 c1        1 0LH     -0.082000
      4 CAD         3.1860   -0.1960    0.0250 c1        1 0LH     -0.125000
      5 CAB         3.3650   -0.2220    1.3880 c1        1 0LH     -0.125000
      6 CAC         2.2440   -0.2550    2.2420 c1        1 0LH     -0.125000
      7 CAE         0.9490   -0.2610    1.6980 c1        1 0LH     -0.125000
      8 CAK         0.7720   -0.2330    0.2950 c1        1 0LH      0.001000
      9 NAL        -0.3810   -0.2330   -0.5080 n1        1 0LH     -0.170000
     10 CAI        -1.7510   -0.4970   -0.2420 c2        1 0LH     -0.018000
     11 CAH        -2.5570    0.8370   -0.2730 c3        1 0LH     -0.106000
     12 NAA        -3.9510    0.5480   -0.4210 n3        1 0LH     -0.349000
     13 H1         -0.5520   -0.2360   -2.5650 DU        1 0LH      0.161000
     14 H2          1.9620   -0.1560   -2.6460 DU        1 0LH      0.161000
     15 H3          4.0090   -0.1700   -0.6070 ha        1 0LH      0.129750
     16 H4          4.2370   -0.2180    1.7490 ha        1 0LH      0.129750
     17 H5          2.3740   -0.2740    3.2640 ha        1 0LH      0.129750
     18 H6          0.1380   -0.2860    2.3140 ha        1 0LH      0.129750
     19 H7         -2.1180   -1.1240   -0.9440 ha        1 0LH      0.104500
     20 H8         -1.8400   -0.9330    0.6880 ha        1 0LH      0.104500
     21 H9         -2.4160    1.3100    0.5310 h1        1 0LH      0.077500
     22 H10        -2.2560    1.3810   -1.0270 h1        1 0LH      0.077500
     23 H11        -4.2550    0.9470   -1.1300 hn        1 0LH      0.148500
     24 H12        -4.4280    0.8570    0.3510 hn        1 0LH      0.148500
@<TRIPOS>BOND
     1    1    2 1   
     2    1    9 1   
     3    2    3 1   
     4    3    8 1   
     5    4    5 1   
     6    4   15 1   
     7    5   16 1   
     8    6    7 1   
     9    6   17 1   
    10    7   18 1   
    11   10   11 1   
    12   10   19 1   
    13   10   20 1   
    14   11   12 1   
    15   11   21 1   
    16   11   22 1   
    17   12   23 1   
    18   12   24 1   
@<TRIPOS>SUBSTRUCTURE
     1 0LH         1 TEMP              0 ****  ****    0 ROOT
