@<TRIPOS>MOLECULE
0LI
   66    70     1     0     0
SMALL
bcc


@<TRIPOS>ATOM
      1 N1         -0.7000    0.0230   -0.2330 nc        1 0LI     -0.262600
      2 N3          9.2800    0.9650  -13.5790 n3        1 0LI     -0.730600
      3 C4          0.7480   -0.1530   -4.8610 cg        1 0LI     -0.084000
      4 C5          0.9720   -0.2410   -6.2450 ca        1 0LI      0.018000
      5 C6         -0.1000   -0.4360   -7.1430 ca        1 0LI     -0.026300
      6 C7          0.1660   -0.5230   -8.5140 ca        1 0LI     -0.141000
      7 C8          1.4660   -0.4090   -9.0000 ca        1 0LI     -0.094000
      8 C10         2.2830   -0.1350   -6.7370 ca        1 0LI     -0.050000
      9 C13         5.3570    0.9520  -10.3520 ca        1 0LI      0.071600
     10 C15         7.7300    0.6120  -10.7210 ca        1 0LI     -0.109000
     11 C17         6.5500    2.2140  -12.0680 ca        1 0LI     -0.119300
     12 C21        10.0480    1.6010  -14.6400 c3        1 0LI      0.170300
     13 C22        10.3220    0.6610  -15.8280 c3        1 0LI      0.168300
     14 C24         9.8360   -0.3190  -13.1810 c3        1 0LI      0.170300
     15 C81         1.4220    0.4740    1.1230 cd        1 0LI     -0.045000
     16 C82         2.7660    0.6720    0.9700 cc        1 0LI     -0.236300
     17 C83         3.3290    0.6470   -0.3560 cc        1 0LI      0.357200
     18 N81         2.6330    0.4420   -1.4700 nd        1 0LI     -0.447800
     19 N82         1.3290    0.2480   -1.3310 na        1 0LI      0.178200
     20 C84         0.6350    0.2480   -0.0570 cd        1 0LI     -0.067300
     21 C1         -0.8840   -0.1240   -1.5890 cc        1 0LI      0.038600
     22 C2          0.3380    0.0060   -2.3100 cd        1 0LI      0.008200
     23 C3          0.5660   -0.0780   -3.6770 ch        1 0LI     -0.100300
     24 C9          2.5250   -0.2080   -8.1100 ca        1 0LI     -0.158600
     25 C11        -1.4880   -0.5640   -6.6450 c3        1 0LI     -0.064800
     26 C12         3.9390   -0.1030   -8.5800 c         1 0LI      0.685700
     27 O1          4.8660   -0.6730   -7.9780 o         1 0LI     -0.579100
     28 N2          4.1390    0.6790   -9.7130 n         1 0LI     -0.470100
     29 C14         6.5680    0.3010  -10.0280 ca        1 0LI     -0.129000
     30 C16         7.7470    1.5630  -11.7480 ca        1 0LI     -0.050300
     31 C18         5.3720    1.9200  -11.3830 ca        1 0LI     -0.150000
     32 C19         6.4920    3.2900  -13.1530 c3        1 0LI      0.687200
     33 F1          5.2270    3.7440  -13.4470 f         1 0LI     -0.237967
     34 F2          7.1790    4.4410  -12.8400 f         1 0LI     -0.237967
     35 F3          6.9920    2.9250  -14.3770 f         1 0LI     -0.237967
     36 C23        10.1040   -1.2540  -14.3740 c3        1 0LI      0.168300
     37 N4         10.8870   -0.6190  -15.4250 n3        1 0LI     -0.732600
     38 H7         -0.6650   -0.6850   -9.2170 ha        1 0LI      0.142000
     39 H8          1.6480   -0.4980  -10.0820 ha        1 0LI      0.139000
     40 H10         3.1270   -0.0030   -6.0390 ha        1 0LI      0.165000
     41 H15         8.6660    0.0960  -10.4530 ha        1 0LI      0.143000
     42 H20         9.8790    1.7910  -11.6860 h1        1 0LI      0.049200
     43 H20A        9.0220    2.9200  -12.8230 h1        1 0LI      0.049200
     44 H21        11.0320    2.0020  -14.2600 h1        1 0LI      0.038450
     45 H21A        9.4390    2.4690  -15.0240 h1        1 0LI      0.038450
     46 H22        11.0700    1.1690  -16.5000 h1        1 0LI      0.038200
     47 H22A        9.3650    0.5290  -16.4120 h1        1 0LI      0.038200
     48 H24        10.7950   -0.1960  -12.5960 h1        1 0LI      0.038450
     49 H24A        9.0840   -0.8220  -12.5090 h1        1 0LI      0.038450
     50 H81         0.9130    0.4770    2.0980 ha        1 0LI      0.171000
     51 H82         3.4310    0.8500    1.8250 ha        1 0LI      0.158000
     52 H83         4.4130    0.8050   -0.5050 h4        1 0LI      0.047100
     53 H1         -1.8700   -0.3180   -2.0160 h4        1 0LI      0.191000
     54 H11        -1.6940    0.2000   -5.8540 hc        1 0LI      0.054367
     55 H11A       -1.6390   -1.5790   -6.1960 hc        1 0LI      0.054367
     56 H11B       -2.2290   -0.4310   -7.4710 hc        1 0LI      0.054367
     57 HN2         3.3430    1.1550  -10.0800 hn        1 0LI      0.322500
     58 H14         6.6040   -0.4550   -9.2260 ha        1 0LI      0.180000
     59 H18         4.4470    2.4530  -11.6600 ha        1 0LI      0.149000
     60 H23         9.1150   -1.6370  -14.7630 h1        1 0LI      0.038200
     61 H23A       10.6910   -2.1370  -13.9940 h1        1 0LI      0.038200
     62 H25        11.6290   -2.4260  -16.1800 h1        1 0LI      0.032033
     63 H25A       11.7940   -0.9800  -17.2780 h1        1 0LI      0.032033
     64 H25B       10.1760   -1.7980  -17.0840 h1        1 0LI      0.032033
     65 C20         9.0460    1.8550  -12.4500 c3        1 0LI      0.210100
     66 C25        11.1190   -1.4980  -16.5480 c3        1 0LI      0.157100
@<TRIPOS>BOND
     1    1   20 2   
     2    1   21 1   
     3    2   12 1   
     4    2   14 1   
     5    2   65 1   
     6    3    4 1   
     7    3   23 3   
     8    4    5 ar  
     9    4    8 ar  
    10    5    6 ar  
    11    5   25 1   
    12    6    7 ar  
    13    6   38 1   
    14    7   24 ar  
    15    7   39 1   
    16    8   24 ar  
    17    8   40 1   
    18    9   28 1   
    19    9   29 ar  
    20    9   31 ar  
    21   10   29 ar  
    22   10   30 ar  
    23   10   41 1   
    24   11   30 ar  
    25   11   31 ar  
    26   11   32 1   
    27   12   13 1   
    28   12   44 1   
    29   12   45 1   
    30   13   37 1   
    31   13   46 1   
    32   13   47 1   
    33   14   36 1   
    34   14   48 1   
    35   14   49 1   
    36   15   16 2   
    37   15   20 1   
    38   15   50 1   
    39   16   17 1   
    40   16   51 1   
    41   17   18 2   
    42   17   52 1   
    43   18   19 1   
    44   19   20 1   
    45   19   22 1   
    46   21   22 2   
    47   21   53 1   
    48   22   23 1   
    49   24   26 1   
    50   25   54 1   
    51   25   55 1   
    52   25   56 1   
    53   26   27 2   
    54   26   28 1   
    55   28   57 1   
    56   29   58 1   
    57   30   65 1   
    58   31   59 1   
    59   32   33 1   
    60   32   34 1   
    61   32   35 1   
    62   36   37 1   
    63   36   60 1   
    64   36   61 1   
    65   37   66 1   
    66   42   65 1   
    67   43   65 1   
    68   62   66 1   
    69   63   66 1   
    70   64   66 1   
@<TRIPOS>SUBSTRUCTURE
     1 0LI         1 TEMP              0 ****  ****    0 ROOT
