@<TRIPOS>MOLECULE
0LI
   67    71     1     0     0
SMALL
bcc


@<TRIPOS>ATOM
      1 N1          2.2420   -1.2320   -1.3720 nc        1 0LI     -0.254600
      2 N3          2.9800   -2.9880  -14.7360 n3        1 0LI     -0.736600
      3 C4          0.2000    0.1120   -5.5560 cg        1 0LI     -0.169000
      4 C5         -0.5730    0.4430   -6.6780 ca        1 0LI      0.061000
      5 C6         -1.9710    0.2430   -6.6880 ca        1 0LI      0.014700
      6 C7         -2.7060    0.5970   -7.8300 ca        1 0LI     -0.126000
      7 C8         -2.0830    1.1250   -8.9510 ca        1 0LI     -0.099000
      8 C10         0.0600    0.9880   -7.8070 ca        1 0LI     -0.035000
      9 C13         0.3020    0.2930  -11.9440 ca        1 0LI     -0.066400
     10 C15         0.3760   -2.0350  -12.5560 ca        1 0LI     -0.120000
     11 C17         2.3700   -0.6840  -12.7460 ca        1 0LI     -0.129300
     12 C21         4.1560   -3.8200  -14.9690 c3        1 0LI      0.166800
     13 C22         4.7050   -3.6920  -16.4020 c3        1 0LI      0.168300
     14 C24         1.9630   -3.1530  -15.7670 c3        1 0LI      0.166800
     15 C81         4.7310   -0.6890   -1.6220 cd        1 0LI     -0.042000
     16 C82         5.6280   -0.1680   -2.5150 cc        1 0LI     -0.225300
     17 C83         5.1570    0.2680   -3.8040 cc        1 0LI      0.368200
     18 N81         3.8900    0.2050   -4.2080 nd        1 0LI     -0.464800
     19 N82         3.0170   -0.2980   -3.3480 na        1 0LI      0.188200
     20 C84         3.3550   -0.7730   -2.0230 cd        1 0LI     -0.047300
     21 C1          1.1960   -1.0640   -2.2430 cc        1 0LI      0.071600
     22 C2          1.6200   -0.4890   -3.4800 cd        1 0LI     -0.048800
     23 C3          0.8690   -0.1640   -4.5970 ch        1 0LI     -0.006300
     24 C9         -0.6910    1.3140   -8.9450 ca        1 0LI     -0.204600
     25 C11        -2.6600   -0.3150   -5.5040 c3        1 0LI     -0.079800
     26 C12         0.0300    1.8930  -10.0740 c         1 0LI      0.588700
     27 O1          0.9740    2.6680  -10.0840 o         1 0LI     -0.418100
     28 N2         -0.4400    1.4620  -11.4690 n4        1 0LI     -0.548200
     29 C14        -0.3450   -0.9500  -12.0780 ca        1 0LI     -0.078000
     30 C16         1.7340   -1.9230  -12.9020 ca        1 0LI      0.037700
     31 C18         1.6590    0.4240  -12.2740 ca        1 0LI     -0.061000
     32 C19         3.8520   -0.4550  -13.0830 c3        1 0LI      0.702200
     33 F1          4.3880    0.6350  -12.4320 f         1 0LI     -0.219633
     34 F2          4.6910   -1.4790  -12.7350 f         1 0LI     -0.219633
     35 F3          4.0930   -0.2020  -14.4060 f         1 0LI     -0.219633
     36 C23         2.5300   -3.0210  -17.1940 c3        1 0LI      0.168300
     37 N4          3.6790   -3.8850  -17.4170 n3        1 0LI     -0.732600
     38 H7         -3.8000    0.4590   -7.8300 ha        1 0LI      0.163000
     39 H8         -2.7030    1.4250   -9.8090 ha        1 0LI      0.127000
     40 H10         1.1500    1.1610   -7.7920 ha        1 0LI      0.173000
     41 H15        -0.1330   -3.0080  -12.6700 ha        1 0LI      0.173000
     42 H20         1.7280   -4.0350  -13.3330 h1        1 0LI      0.068200
     43 H20A        3.2910   -3.3710  -12.6780 h1        1 0LI      0.068200
     44 H21         4.9610   -3.4750  -14.2600 h1        1 0LI      0.040950
     45 H21A        3.9390   -4.9070  -14.7580 h1        1 0LI      0.040950
     46 H22         5.4830   -4.4940  -16.5410 h1        1 0LI      0.045200
     47 H22A        5.2150   -2.6900  -16.5060 h1        1 0LI      0.045200
     48 H24         1.1940   -2.3440  -15.6230 h1        1 0LI      0.040950
     49 H24A        1.4400   -4.1500  -15.6780 h1        1 0LI      0.040950
     50 H81         5.0070   -1.0450   -0.6180 ha        1 0LI      0.182000
     51 H82         6.6970   -0.0700   -2.2800 ha        1 0LI      0.169000
     52 H83         5.8630    0.6930   -4.5410 h4        1 0LI      0.051100
     53 H1          0.1750   -1.3490   -1.9770 h4        1 0LI      0.195000
     54 H11        -2.1020   -1.2010   -5.1070 hc        1 0LI      0.072033
     55 H11A       -3.7050   -0.6290   -5.7480 hc        1 0LI      0.072033
     56 H11B       -2.7030    0.4580   -4.6930 hc        1 0LI      0.072033
     57 HN2        -0.2790    2.2360  -12.1280 hn        1 0LI      0.459300
     58 H14        -1.4080   -1.0770  -11.8160 ha        1 0LI      0.157000
     59 H18         2.1810    1.3930  -12.1560 ha        1 0LI      0.183000
     60 H23         2.7730   -1.9360  -17.3880 h1        1 0LI      0.045200
     61 H23A        1.7200   -3.3290  -17.9130 h1        1 0LI      0.045200
     62 H25         5.0250   -4.5340  -18.8840 h1        1 0LI      0.039367
     63 H25A        4.6030   -2.7630  -19.0080 h1        1 0LI      0.039367
     64 H25B        3.3780   -4.0290  -19.4850 h1        1 0LI      0.039367
     65 C20         2.4420   -3.1590  -13.3950 c3        1 0LI      0.187100
     66 C25         4.2000   -3.7840  -18.7610 c3        1 0LI      0.155100
     67 H221       -1.4400    1.2400  -11.4460 hn        1 0LI      0.459300
@<TRIPOS>BOND
     1    1   20 2   
     2    1   21 1   
     3    2   12 1   
     4    2   14 1   
     5    2   65 1   
     6    3    4 1   
     7    3   23 3   
     8    4    5 ar  
     9    4    8 ar  
    10    5    6 ar  
    11    5   25 1   
    12    6    7 ar  
    13    6   38 1   
    14    7   24 ar  
    15    7   39 1   
    16    8   24 ar  
    17    8   40 1   
    18    9   28 1   
    19    9   29 ar  
    20    9   31 ar  
    21   10   29 ar  
    22   10   30 ar  
    23   10   41 1   
    24   11   30 ar  
    25   11   31 ar  
    26   11   32 1   
    27   12   13 1   
    28   12   44 1   
    29   12   45 1   
    30   13   37 1   
    31   13   46 1   
    32   13   47 1   
    33   14   36 1   
    34   14   48 1   
    35   14   49 1   
    36   15   16 2   
    37   15   20 1   
    38   15   50 1   
    39   16   17 1   
    40   16   51 1   
    41   17   18 2   
    42   17   52 1   
    43   18   19 1   
    44   19   20 1   
    45   19   22 1   
    46   21   22 2   
    47   21   53 1   
    48   22   23 1   
    49   24   26 1   
    50   25   54 1   
    51   25   55 1   
    52   25   56 1   
    53   26   27 2   
    54   26   28 1   
    55   28   57 1   
    56   28   67 1   
    57   29   58 1   
    58   30   65 1   
    59   31   59 1   
    60   32   33 1   
    61   32   34 1   
    62   32   35 1   
    63   36   37 1   
    64   36   60 1   
    65   36   61 1   
    66   37   66 1   
    67   42   65 1   
    68   43   65 1   
    69   62   66 1   
    70   63   66 1   
    71   64   66 1   
@<TRIPOS>SUBSTRUCTURE
     1 0LI         1 TEMP              0 ****  ****    0 ROOT
