@<TRIPOS>MOLECULE
0LI
   66    70     1     0     0
SMALL
bcc


@<TRIPOS>ATOM
      1 N1        -10.1080   -0.0210    0.2620 nc        1 0LI     -0.262600
      2 N3          6.5340   -1.2460   -0.1060 n3        1 0LI     -0.730600
      3 C4         -5.4700    1.1660   -0.5240 cg        1 0LI     -0.084000
      4 C5         -4.1970    1.6960   -0.7950 ca        1 0LI      0.018000
      5 C6         -4.0410    3.0420   -1.1870 ca        1 0LI     -0.026300
      6 C7         -2.7570    3.5300   -1.4550 ca        1 0LI     -0.141000
      7 C8         -1.6380    2.7110   -1.3270 ca        1 0LI     -0.094000
      8 C10        -3.0690    0.8680   -0.6750 ca        1 0LI     -0.050000
      9 C13         1.7110    0.3370    0.0790 ca        1 0LI      0.071600
     10 C15         3.2740   -1.5020   -0.1620 ca        1 0LI     -0.109000
     11 C17         3.8960    0.4010    1.1670 ca        1 0LI     -0.119300
     12 C21         7.8880   -1.2480    0.4260 c3        1 0LI      0.170300
     13 C22         8.9560   -0.9650   -0.6480 c3        1 0LI      0.168300
     14 C24         6.3960   -2.0820   -1.2880 c3        1 0LI      0.170300
     15 C81       -10.0720   -2.4910    0.9260 cd        1 0LI     -0.045000
     16 C82        -9.2080   -3.5320    1.1210 cc        1 0LI     -0.236300
     17 C83        -7.7970   -3.3160    0.9230 cc        1 0LI      0.357200
     18 N81        -7.2530   -2.1590    0.5570 nd        1 0LI     -0.447800
     19 N82        -8.0840   -1.1440    0.3640 na        1 0LI      0.178200
     20 C84        -9.5230   -1.2250    0.5290 cd        1 0LI     -0.067300
     21 C1         -9.0830    0.8340   -0.0710 cc        1 0LI      0.038600
     22 C2         -7.8140    0.1890   -0.0230 cd        1 0LI      0.008200
     23 C3         -6.5540    0.7060   -0.2900 ch        1 0LI     -0.100300
     24 C9         -1.7940    1.3790   -0.9300 ca        1 0LI     -0.158600
     25 C11        -5.2170    3.9330   -1.3130 c3        1 0LI     -0.064800
     26 C12        -0.6290    0.4550   -0.8020 c         1 0LI      0.684700
     27 O1         -0.6810   -0.7160   -1.2180 o         1 0LI     -0.578100
     28 N2          0.4950    0.9880   -0.1790 n         1 0LI     -0.470100
     29 C14         2.0400   -0.9310   -0.4470 ca        1 0LI     -0.129000
     30 C16         4.2210   -0.8530    0.6400 ca        1 0LI     -0.050300
     31 C18         2.6610    0.9910    0.8970 ca        1 0LI     -0.150000
     32 C19         4.8600    1.1580    2.0800 c3        1 0LI      0.687200
     33 F1          4.4600    2.4320    2.4130 f         1 0LI     -0.237967
     34 F2          5.0640    0.5580    3.3030 f         1 0LI     -0.237967
     35 F3          6.1260    1.3410    1.5840 f         1 0LI     -0.237967
     36 C23         7.4650   -1.7910   -2.3580 c3        1 0LI      0.168300
     37 N4          8.8190   -1.8120   -1.8250 n3        1 0LI     -0.732600
     38 H7         -2.6310    4.5770   -1.7740 ha        1 0LI      0.142000
     39 H8         -0.6410    3.1160   -1.5600 ha        1 0LI      0.140000
     40 H10        -3.1870   -0.1900   -0.3900 ha        1 0LI      0.165000
     41 H15         3.5130   -2.4940   -0.5790 ha        1 0LI      0.143000
     42 H20         5.3390   -2.6470    1.0030 h1        1 0LI      0.049200
     43 H20A        5.9210   -1.1860    1.9140 h1        1 0LI      0.049200
     44 H21         7.9520   -0.4260    1.1950 h1        1 0LI      0.038450
     45 H21A        8.1360   -2.2260    0.9340 h1        1 0LI      0.038450
     46 H22         8.9150    0.1310   -0.9160 h1        1 0LI      0.038200
     47 H22A        9.9640   -1.1730   -0.1910 h1        1 0LI      0.038200
     48 H24         6.4360   -3.1820   -1.0280 h1        1 0LI      0.038450
     49 H24A        5.3870   -1.8700   -1.7400 h1        1 0LI      0.038450
     50 H81       -11.1610   -2.5710    1.0560 ha        1 0LI      0.171000
     51 H82        -9.5530   -4.5300    1.4240 ha        1 0LI      0.158000
     52 H83        -7.0790   -4.1420    1.0750 h4        1 0LI      0.047100
     53 H1         -9.2690    1.8770   -0.3350 h4        1 0LI      0.191000
     54 H11        -5.5990    4.2060   -0.2960 hc        1 0LI      0.054700
     55 H11A       -4.9570    4.8750   -1.8570 hc        1 0LI      0.054700
     56 H11B       -6.0410    3.4170   -1.8670 hc        1 0LI      0.054700
     57 HN2         0.4130    1.9110    0.1880 hn        1 0LI      0.322500
     58 H14         1.3250   -1.4800   -1.0830 ha        1 0LI      0.180000
     59 H18         2.4370    1.9800    1.3310 ha        1 0LI      0.149000
     60 H23         7.3920   -2.5950   -3.1430 h1        1 0LI      0.038200
     61 H23A        7.2240   -0.8030   -2.8500 h1        1 0LI      0.038200
     62 H25        10.8320   -1.6350   -2.3770 h1        1 0LI      0.032033
     63 H25A        9.7060   -2.2590   -3.6690 h1        1 0LI      0.032033
     64 H25B        9.7270   -0.4830   -3.2590 h1        1 0LI      0.032033
     65 C20         5.5340   -1.5360    0.9130 c3        1 0LI      0.210100
     66 C25         9.8130   -1.5210   -2.8320 c3        1 0LI      0.157100
@<TRIPOS>BOND
     1    1   20 2   
     2    1   21 1   
     3    2   12 1   
     4    2   14 1   
     5    2   65 1   
     6    3    4 1   
     7    3   23 3   
     8    4    5 ar  
     9    4    8 ar  
    10    5    6 ar  
    11    5   25 1   
    12    6    7 ar  
    13    6   38 1   
    14    7   24 ar  
    15    7   39 1   
    16    8   24 ar  
    17    8   40 1   
    18    9   28 1   
    19    9   29 ar  
    20    9   31 ar  
    21   10   29 ar  
    22   10   30 ar  
    23   10   41 1   
    24   11   30 ar  
    25   11   31 ar  
    26   11   32 1   
    27   12   13 1   
    28   12   44 1   
    29   12   45 1   
    30   13   37 1   
    31   13   46 1   
    32   13   47 1   
    33   14   36 1   
    34   14   48 1   
    35   14   49 1   
    36   15   16 2   
    37   15   20 1   
    38   15   50 1   
    39   16   17 1   
    40   16   51 1   
    41   17   18 2   
    42   17   52 1   
    43   18   19 1   
    44   19   20 1   
    45   19   22 1   
    46   21   22 2   
    47   21   53 1   
    48   22   23 1   
    49   24   26 1   
    50   25   54 1   
    51   25   55 1   
    52   25   56 1   
    53   26   27 2   
    54   26   28 1   
    55   28   57 1   
    56   29   58 1   
    57   30   65 1   
    58   31   59 1   
    59   32   33 1   
    60   32   34 1   
    61   32   35 1   
    62   36   37 1   
    63   36   60 1   
    64   36   61 1   
    65   37   66 1   
    66   42   65 1   
    67   43   65 1   
    68   62   66 1   
    69   63   66 1   
    70   64   66 1   
@<TRIPOS>SUBSTRUCTURE
     1 0LI         1 TEMP              0 ****  ****    0 ROOT
