@<TRIPOS>MOLECULE
0LI
   66    70     1     0     0
SMALL
bcc


@<TRIPOS>ATOM
      1 N1         -0.5690    0.0670   -0.0730 nc        1 0LI     -0.262600
      2 N3          8.7400    0.0940  -13.9270 n3        1 0LI     -0.730600
      3 C4          0.6730   -0.5140   -4.7270 cg        1 0LI     -0.084000
      4 C5          0.8340   -0.7160   -6.1080 ca        1 0LI      0.018000
      5 C6         -0.2710   -1.0200   -6.9310 ca        1 0LI     -0.026300
      6 C7         -0.0670   -1.2200   -8.3010 ca        1 0LI     -0.141000
      7 C8          1.2030   -1.1110   -8.8590 ca        1 0LI     -0.094000
      8 C10         2.1170   -0.6150   -6.6710 ca        1 0LI     -0.050000
      9 C13         4.9800    0.2400  -10.5140 ca        1 0LI      0.071600
     10 C15         7.3410   -0.0700  -10.9750 ca        1 0LI     -0.109000
     11 C17         6.0530    1.3910  -12.3810 ca        1 0LI     -0.119300
     12 C21         9.4360    0.6640  -15.0710 c3        1 0LI      0.170300
     13 C22         9.6780   -0.3600  -16.1960 c3        1 0LI      0.168300
     14 C24         9.3500   -1.1410  -13.4590 c3        1 0LI      0.170300
     15 C81         1.6170    0.5770    1.1530 cd        1 0LI     -0.045000
     16 C82         2.9570    0.7310    0.9280 cc        1 0LI     -0.236300
     17 C83         3.4620    0.5870   -0.4140 cc        1 0LI      0.357200
     18 N81         2.7140    0.3080   -1.4770 nd        1 0LI     -0.447800
     19 N82         1.4140    0.1560   -1.2690 na        1 0LI      0.178200
     20 C84         0.7760    0.2750    0.0290 cd        1 0LI     -0.067300
     21 C1         -0.8150   -0.1840   -1.4030 cc        1 0LI      0.038600
     22 C2          0.3760   -0.1410   -2.1830 cd        1 0LI      0.008200
     23 C3          0.5430   -0.3400   -3.5460 ch        1 0LI     -0.100300
     24 C9          2.2960   -0.8020   -8.0440 ca        1 0LI     -0.158600
     25 C11        -1.6330   -1.1230   -6.3580 c3        1 0LI     -0.064800
     26 C12         3.6820   -0.6980   -8.5910 c         1 0LI      0.684700
     27 O1          4.6540   -1.1880   -7.9900 o         1 0LI     -0.578100
     28 N2          3.8020   -0.0120   -9.7950 ns        1 0LI     -0.470100
     29 C14         6.2230   -0.3540  -10.2020 ca        1 0LI     -0.129000
     30 C16         7.2810    0.7970  -12.0720 ca        1 0LI     -0.050300
     31 C18         4.9170    1.1230  -11.6170 ca        1 0LI     -0.150000
     32 C19         5.9110    2.3770  -13.5410 c3        1 0LI      0.687200
     33 F1          4.6210    2.7760  -13.8050 f         1 0LI     -0.237967
     34 F2          6.5810    3.5650  -13.3540 f         1 0LI     -0.237967
     35 F3          6.3620    1.9290  -14.7570 f         1 0LI     -0.237967
     36 C23         9.5850   -2.1600  -14.5890 c3        1 0LI      0.168300
     37 N4         10.2970   -1.5910  -15.7240 n3        1 0LI     -0.732600
     38 H7         -0.9250   -1.4700   -8.9450 ha        1 0LI      0.142000
     39 H8          1.3380   -1.2910   -9.9370 ha        1 0LI      0.140000
     40 H10         2.9870   -0.3990   -6.0300 ha        1 0LI      0.165000
     41 H15         8.3030   -0.5410  -10.7150 ha        1 0LI      0.143000
     42 H20         9.4060    1.0800  -12.1360 h1        1 0LI      0.049200
     43 H20A        8.4640    2.0960  -13.3120 h1        1 0LI      0.049200
     44 H21         8.7840    1.4830  -15.4900 h1        1 0LI      0.038450
     45 H21A       10.4260    1.1160  -14.7740 h1        1 0LI      0.038450
     46 H22         8.6970   -0.5610  -16.7180 h1        1 0LI      0.038200
     47 H22A       10.3770    0.1110  -16.9430 h1        1 0LI      0.038200
     48 H24        10.3330   -0.9490  -12.9360 h1        1 0LI      0.038450
     49 H24A        8.6470   -1.6080  -12.7130 h1        1 0LI      0.038450
     50 H81         1.1510    0.6710    2.1440 ha        1 0LI      0.171000
     51 H82         3.6630    0.9620    1.7370 ha        1 0LI      0.158000
     52 H83         4.5410    0.7070   -0.6200 h4        1 0LI      0.047100
     53 H1         -1.8220   -0.3880   -1.7720 h4        1 0LI      0.191000
     54 H11        -2.0180   -0.1030   -6.1060 hc        1 0LI      0.054700
     55 H11A       -2.3410   -1.6010   -7.0780 hc        1 0LI      0.054700
     56 H11B       -1.6170   -1.7310   -5.4180 hc        1 0LI      0.054700
     57 HN2         2.9760    0.4090  -10.1600 hn        1 0LI      0.322500
     58 H14         6.3190   -1.0430   -9.3460 ha        1 0LI      0.180000
     59 H18         3.9650    1.6110  -11.8860 ha        1 0LI      0.149000
     60 H23        10.2150   -2.9950  -14.1720 h1        1 0LI      0.038200
     61 H23A        8.5900   -2.5960  -14.8960 h1        1 0LI      0.038200
     62 H25        11.1220   -2.0740  -17.5880 h1        1 0LI      0.032033
     63 H25A       11.0530   -3.4330  -16.3740 h1        1 0LI      0.032033
     64 H25B        9.5390   -2.9130  -17.2480 h1        1 0LI      0.032033
     65 C20         8.5360    1.0640  -12.8590 c3        1 0LI      0.210100
     66 C25        10.4980   -2.5500  -16.7860 c3        1 0LI      0.157100
@<TRIPOS>BOND
     1    1   20 2   
     2    1   21 1   
     3    2   12 1   
     4    2   14 1   
     5    2   65 1   
     6    3    4 1   
     7    3   23 3   
     8    4    5 ar  
     9    4    8 ar  
    10    5    6 ar  
    11    5   25 1   
    12    6    7 ar  
    13    6   38 1   
    14    7   24 ar  
    15    7   39 1   
    16    8   24 ar  
    17    8   40 1   
    18    9   28 1   
    19    9   29 ar  
    20    9   31 ar  
    21   10   29 ar  
    22   10   30 ar  
    23   10   41 1   
    24   11   30 ar  
    25   11   31 ar  
    26   11   32 1   
    27   12   13 1   
    28   12   44 1   
    29   12   45 1   
    30   13   37 1   
    31   13   46 1   
    32   13   47 1   
    33   14   36 1   
    34   14   48 1   
    35   14   49 1   
    36   15   16 2   
    37   15   20 1   
    38   15   50 1   
    39   16   17 1   
    40   16   51 1   
    41   17   18 2   
    42   17   52 1   
    43   18   19 1   
    44   19   20 1   
    45   19   22 1   
    46   21   22 2   
    47   21   53 1   
    48   22   23 1   
    49   24   26 1   
    50   25   54 1   
    51   25   55 1   
    52   25   56 1   
    53   26   27 2   
    54   26   28 1   
    55   28   57 1   
    56   29   58 1   
    57   30   65 1   
    58   31   59 1   
    59   32   33 1   
    60   32   34 1   
    61   32   35 1   
    62   36   37 1   
    63   36   60 1   
    64   36   61 1   
    65   37   66 1   
    66   42   65 1   
    67   43   65 1   
    68   62   66 1   
    69   63   66 1   
    70   64   66 1   
@<TRIPOS>SUBSTRUCTURE
     1 0LI         1 TEMP              0 ****  ****    0 ROOT
