@<TRIPOS>MOLECULE
0LI
   66    58     1     0     0
SMALL
bcc


@<TRIPOS>ATOM
      1 N1         -2.6350    3.5110    8.7350 n2        1 0LI     -0.121000
      2 N3          2.7950    0.2550   -5.8010 n3        1 0LI     -0.259000
      3 C4         -2.4420    0.0800    5.5790 c1        1 0LI     -0.077500
      4 C5         -2.0740   -0.7690    4.3640 c1        1 0LI      0.021000
      5 C6         -2.4560   -2.1070    4.3080 c1        1 0LI     -0.015000
      6 C7         -2.1550   -2.8710    3.1840 c1        1 0LI     -0.129250
      7 C8         -1.4720   -2.2970    2.1150 c1        1 0LI     -0.129250
      8 C10        -1.3910   -0.1950    3.2950 c2        1 0LI     -0.052000
      9 C13         0.5360   -0.4780   -1.3410 c1        1 0LI      0.079000
     10 C15         2.5570    0.2590   -2.4330 c1        1 0LI     -0.113000
     11 C17         0.4520    0.3430   -3.6080 c1        1 0LI     -0.104000
     12 C20         2.5210    1.2410   -4.7720 c3        1 0LI     -0.038000
     13 C21         2.8690    0.9580   -7.1860 c3        1 0LI     -0.088000
     14 C22         3.2800    0.0110   -8.3060 c3        1 0LI     -0.088500
     15 C24         4.2970   -0.1450   -5.7480 c3        1 0LI     -0.088000
     16 C81        -4.1950    3.1680   10.6980 c1        1 0LI     -0.044000
     17 C82        -5.0960    2.3020   11.2520 c1        1 0LI     -0.129250
     18 C83        -5.3790    1.1010   10.6240 c1        1 0LI     -0.129250
     19 N81        -4.7600    0.7820    9.4530 n1        1 0LI     -0.032000
     20 N82        -3.8410    1.6630    8.8870 n1        1 0LI     -0.032000
     21 C84        -3.5620    2.8400    9.5000 c1        1 0LI     -0.043000
     22 C1         -2.3510    2.7490    7.6630 c1        1 0LI     -0.098000
     23 C2         -3.0980    1.5970    7.7510 c1        1 0LI      0.003000
     24 C3         -2.7310    0.7490    6.5370 c1        1 0LI     -0.077500
     25 C9         -1.0900   -0.9590    2.1700 c1        1 0LI     -0.139000
     26 C11        -3.1720   -2.7480    5.4990 c3        1 0LI     -0.192000
     27 C12        -0.3770   -0.3140    0.9730 c2        1 0LI      0.359000
     28 O1         -0.0430    0.8560    1.0220 o         1 0LI     -0.341000
     29 N2         -0.1180   -1.0880   -0.2120 n2        1 0LI     -0.324000
     30 C14         1.9120   -0.2600   -1.3130 c1        1 0LI     -0.131000
     31 C16         1.8280    0.5610   -3.5800 c1        1 0LI     -0.051000
     32 C18        -0.1930   -0.1760   -2.4880 c2        1 0LI     -0.153000
     33 C19        -0.7500    0.7280   -4.4700 c3        1 0LI      0.475000
     34 F1         -1.2410   -0.3700   -5.0700 f         1 0LI     -0.166000
     35 F2         -1.7000    1.2770   -3.6950 f         1 0LI     -0.166000
     36 F3         -0.3660    1.6140   -5.4040 f         1 0LI     -0.166000
     37 C23         4.6960   -1.0830   -6.8800 c3        1 0LI     -0.088500
     38 C25         4.3340   -1.8430   -8.9400 c3        1 0LI     -0.119000
     39 N4          3.8590   -1.0300   -7.8440 n3        1 0LI     -0.259000
     40 H7         -2.4240   -3.8150    3.1440 ha        1 0LI      0.155000
     41 H8         -1.2600   -2.8340    1.3230 ha        1 0LI      0.155000
     42 H10        -1.1220    0.7480    3.3340 ha        1 0LI      0.162000
     43 H15         3.5270    0.4130   -2.4130 ha        1 0LI      0.142000
     44 H20         1.9340    1.9410   -5.1370 h1        1 0LI      0.088000
     45 H20A        3.3660    1.6460   -4.4730 h1        1 0LI      0.088000
     46 H21         3.5230    1.6910   -7.1350 h1        1 0LI      0.091000
     47 H21A        1.9860    1.3350   -7.3980 h1        1 0LI      0.091000
     48 H22         3.8970    0.4800   -8.9140 h1        1 0LI      0.087500
     49 H22A        2.4780   -0.2620   -8.8080 h1        1 0LI      0.087500
     50 H24         4.8440    0.6700   -5.8040 h1        1 0LI      0.091000
     51 H24A        4.4760   -0.5900   -4.8900 h1        1 0LI      0.091000
     52 H81        -3.9940    4.0190   11.1420 ha        1 0LI      0.171000
     53 H82        -5.5430    2.5320   12.0950 ha        1 0LI      0.155000
     54 H83        -6.0260    0.4800   11.0210 ha        1 0LI      0.155000
     55 H1         -1.7390    2.9850    6.9350 DU        1 0LI      0.194000
     56 H11        -2.3230   -3.2440    5.5310 hc        1 0LI      0.096000
     57 H11A       -3.9060   -2.7520    4.8440 hc        1 0LI      0.096000
     58 H11B       -3.5180   -3.6610    5.6410 hc        1 0LI      0.096000
     59 HN2        -0.3340   -1.9780   -0.2340 hn        1 0LI      0.237000
     60 H14         2.4260   -0.4720   -0.5040 ha        1 0LI      0.180000
     61 H18        -1.1610   -0.3290   -2.5080 ha        1 0LI      0.149000
     62 H23         4.7340   -2.0050   -6.5360 h1        1 0LI      0.087500
     63 H23A        5.5870   -0.8260   -7.2110 h1        1 0LI      0.087500
     64 H25         5.2580   -2.1290   -8.7600 h1        1 0LI      0.070000
     65 H25A        3.7580   -2.6360   -9.0330 h1        1 0LI      0.070000
     66 H25B        4.3090   -1.3190   -9.7720 h1        1 0LI      0.070000
@<TRIPOS>BOND
     1    1   21 1   
     2    1   22 1   
     3    2   12 1   
     4    2   13 1   
     5    2   15 1   
     6    3   24 1   
     7    4    5 1   
     8    4    8 1   
     9    5   26 1   
    10    6    7 1   
    11    6   40 1   
    12    7   41 1   
    13    8   25 1   
    14    8   42 1   
    15    9   30 1   
    16    9   32 1   
    17   10   31 1   
    18   10   43 1   
    19   11   32 1   
    20   11   33 1   
    21   12   31 1   
    22   12   44 1   
    23   12   45 1   
    24   13   14 1   
    25   13   46 1   
    26   13   47 1   
    27   14   39 1   
    28   14   48 1   
    29   14   49 1   
    30   15   37 1   
    31   15   50 1   
    32   15   51 1   
    33   16   21 1   
    34   16   52 1   
    35   17   18 1   
    36   17   53 1   
    37   18   54 1   
    38   19   20 1   
    39   22   23 1   
    40   25   27 1   
    41   26   56 1   
    42   26   57 1   
    43   26   58 1   
    44   27   28 1   
    45   27   29 1   
    46   29   59 1   
    47   30   60 1   
    48   32   61 1   
    49   33   34 1   
    50   33   35 1   
    51   33   36 1   
    52   37   39 1   
    53   37   62 1   
    54   37   63 1   
    55   38   39 1   
    56   38   64 1   
    57   38   65 1   
    58   38   66 1   
@<TRIPOS>SUBSTRUCTURE
     1 0LI         1 TEMP              0 ****  ****    0 ROOT
