@<TRIPOS>MOLECULE
0LJ
   44    35     1     0     0
SMALL
bcc


@<TRIPOS>ATOM
      1 C10         1.8040   -0.4550    1.2180 c1        1 0LJ      0.293000
      2 C15        -1.0530    0.2780   -1.3230 c3        1 0LJ      0.065000
      3 C17        -3.4070    0.6500   -1.3340 c3        1 0LJ     -0.158000
      4 C21        -3.2320    3.2940   -1.8770 c1        1 0LJ     -0.117000
      5 C22        -2.3680    4.3580   -2.1620 c1        1 0LJ     -0.124500
      6 C24        -0.4570    2.8510   -1.9850 c1        1 0LJ     -0.097000
      7 C01         4.7780   -2.3700    4.2520 c1        1 0LJ     -0.077000
      8 C02         5.3310   -1.2020    4.7740 c1        1 0LJ     -0.128000
      9 C03         5.1570    0.0110    4.1030 c1        1 0LJ      0.114000
     10 C04         4.4400    0.0480    2.9290 c1        1 0LJ     -0.187000
     11 C05         3.8920   -1.1130    2.4150 c1        1 0LJ      0.114000
     12 C06         4.0670   -2.3270    3.0850 c1        1 0LJ     -0.187000
     13 CL7         6.1840   -1.2440    6.3090 cl        1 0LJ      0.013000
     14 F08         5.8160    1.1100    4.5180 f         1 0LJ     -0.086000
     15 N09         3.1200   -1.0680    1.2130 n2        1 0LJ     -0.297000
     16 O11         1.3560    0.0230    2.2490 o         1 0LJ     -0.336000
     17 C12         0.9560   -0.3790   -0.1270 c1        1 0LJ      0.292000
     18 N13        -0.3070    0.2060   -0.1230 n2        1 0LJ     -0.333000
     19 O14         1.4080   -0.8190   -1.1490 o         1 0LJ     -0.361000
     20 C16        -2.3380   -0.3730   -1.1420 c3        1 0LJ     -0.024000
     21 C18        -2.7170    2.0100   -1.6450 c2        1 0LJ     -0.068000
     22 C19        -1.3190    1.7880   -1.7000 c2        1 0LJ     -0.112000
     23 N20        -2.5010   -1.4380   -2.1470 n3        1 0LJ     -0.323000
     24 C23        -0.9850    4.1440   -2.2170 c1        1 0LJ     -0.124500
     25 C25        -3.4700   -2.4030   -1.9800 c1        1 0LJ      0.156000
     26 N26        -3.5650   -3.0590   -0.8160 n1        1 0LJ     -0.343000
     27 N27        -4.3980   -2.7140   -3.0810 n2        1 0LJ     -0.320000
     28 H1         -0.5420   -0.1800   -2.0720 h1        1 0LJ      0.140000
     29 H2         -3.9290    0.7320   -0.5040 hc        1 0LJ      0.109000
     30 H3         -3.9620    0.3900   -2.0960 hc        1 0LJ      0.109000
     31 H4         -4.1800    3.4440   -1.8410 ha        1 0LJ      0.140000
     32 H5         -2.7360    5.2640   -2.3240 ha        1 0LJ      0.136500
     33 H6          0.5020    2.7040   -2.0220 ha        1 0LJ      0.141000
     34 H7          4.9080   -3.2820    4.7520 ha        1 0LJ      0.154000
     35 H8          4.3240    0.8530    2.4820 ha        1 0LJ      0.167500
     36 H9          3.6910   -3.1200    2.7310 ha        1 0LJ      0.167500
     37 H10         3.4650   -1.3660    0.4560 hn        1 0LJ      0.262000
     38 H11        -0.6700    0.5340    0.6740 hn        1 0LJ      0.254000
     39 H12        -2.3950   -0.7690   -0.1970 h1        1 0LJ      0.109000
     40 H13        -1.9660   -1.4270   -2.9480 hn        1 0LJ      0.203000
     41 H14        -0.3740    4.9020   -2.4250 ha        1 0LJ      0.136500
     42 H15        -2.9510   -2.8540   -0.0920 DU        1 0LJ      0.148000
     43 H16        -4.3410   -2.2640   -3.8550 hn        1 0LJ      0.189500
     44 H17        -5.0330   -3.3700   -2.9770 hn        1 0LJ      0.189500
@<TRIPOS>BOND
     1    1   15 1   
     2    1   16 1   
     3    2   18 1   
     4    2   20 1   
     5    2   22 1   
     6    2   28 1   
     7    3   20 1   
     8    3   21 1   
     9    3   29 1   
    10    3   30 1   
    11    4   21 1   
    12    4   31 1   
    13    5   24 1   
    14    5   32 1   
    15    6   22 1   
    16    6   33 1   
    17    7    8 1   
    18    7   34 1   
    19    8   13 1   
    20    9   10 1   
    21   10   35 1   
    22   11   12 1   
    23   12   36 1   
    24   15   37 1   
    25   17   19 1   
    26   18   38 1   
    27   20   23 1   
    28   20   39 1   
    29   21   22 1   
    30   23   25 1   
    31   23   40 1   
    32   24   41 1   
    33   25   26 1   
    34   27   43 1   
    35   27   44 1   
@<TRIPOS>SUBSTRUCTURE
     1 0LJ         1 TEMP              0 ****  ****    0 ROOT
