@<TRIPOS>MOLECULE
0LJ
   44    42     1     0     0
SMALL
bcc


@<TRIPOS>ATOM
      1 C10        -0.7090   -0.4270    1.2280 c2        1 0LJ      0.240000
      2 C15        -3.4190    0.2550   -4.4000 c1        1 0LJ     -0.036000
      3 C17        -4.8020    0.4970   -1.5500 c3        1 0LJ     -0.042000
      4 C21        -4.8760    2.8110   -2.4660 c2        1 0LJ     -0.055000
      5 C22        -4.4380    3.8770   -3.3460 c2        1 0LJ     -0.426000
      6 C24        -2.0550    1.9140   -3.4100 c2        1 0LJ      0.007000
      7 C01         5.4690    1.4040    2.5110 c1        1 0LJ     -0.138000
      8 C02         4.7190    0.4310    3.1860 c2        1 0LJ     -0.037000
      9 C03         3.4290    0.1190    2.8480 c2        1 0LJ      0.125000
     10 C04         2.7510    0.7920    1.7520 c2        1 0LJ     -0.242000
     11 C05         1.4950    0.5980    1.2900 c2        1 0LJ      0.022000
     12 C06         6.1350    2.2290    1.9530 c1        1 0LJ     -0.160000
     13 F08         2.7440   -0.8320    3.5320 f         1 0LJ     -0.103000
     14 N09         0.5570   -0.3050    1.7710 n         1 0LJ     -0.302000
     15 O11        -1.0950    0.2680    0.2670 o         1 0LJ     -0.355000
     16 C12        -1.6560   -1.4560    1.8410 c2        1 0LJ      0.173000
     17 N13        -3.8610    0.0220   -0.5690 n3        1 0LJ     -0.340000
     18 O14        -1.3360   -2.1620    2.7900 o         1 0LJ     -0.236000
     19 C16        -4.2900   -0.8400   -4.5360 c2        1 0LJ     -0.018000
     20 C18        -4.3140    1.5850   -2.4700 c2        1 0LJ     -0.165000
     21 C19        -3.2410    1.2380   -3.4110 c2        1 0LJ     -0.116000
     22 N20        -5.4210   -0.8470   -5.1720 n2        1 0LJ     -0.243000
     23 C23        -3.2430    3.9070   -3.9100 c1        1 0LJ      0.160000
     24 C25        -6.0880   -2.1030   -5.4440 c2        1 0LJ      0.111000
     25 N26        -6.6100   -2.4030   -6.6020 n2        1 0LJ     -0.299000
     26 N27        -6.1780   -3.0390   -4.3550 n3        1 0LJ     -0.337000
     27 H1         -3.5860    0.7580    0.0540 hn        1 0LJ      0.147500
     28 H2         -5.1120   -0.3830   -2.1890 h1        1 0LJ      0.100000
     29 H3         -5.7190    0.8570   -1.0020 h1        1 0LJ      0.100000
     30 H4         -5.7040    3.0580   -1.7820 ha        1 0LJ      0.140000
     31 H5         -5.1670    4.6890   -3.5300 ha        1 0LJ      0.193000
     32 H6         -1.7810    2.6290   -2.6170 ha        1 0LJ      0.146500
     33 H7          6.7250    2.9600    1.4600 ha        1 0LJ      0.231000
     34 H8          3.3640    1.5580    1.2430 ha        1 0LJ      0.166000
     35 H9          1.1280    1.2050    0.4330 h4        1 0LJ      0.171000
     36 H10         0.7990   -0.8950    2.5420 hn        1 0LJ      0.265000
     37 H11        -2.6460   -1.4860    1.3370 h4        1 0LJ      0.162000
     38 H12        -3.0310   -0.3350   -1.0040 hn        1 0LJ      0.147500
     39 H13        -3.7770   -1.7660   -4.1500 h4        1 0LJ      0.152000
     40 H14        -1.2840    1.7100   -4.1700 ha        1 0LJ      0.146500
     41 H15        -6.4290   -1.7570   -7.3400 hn        1 0LJ      0.162000
     42 H16        -6.7060   -3.8560   -4.5880 hn        1 0LJ      0.180500
     43 H17        -6.5320   -2.6100   -3.5250 hn        1 0LJ      0.180500
     44 CL7         5.5350   -0.3410    4.4650 cl        1 0LJ      0.021000
@<TRIPOS>BOND
     1    1   14 1   
     2    1   15 1   
     3    1   16 1   
     4    2   19 1   
     5    2   21 1   
     6    3   17 1   
     7    3   20 1   
     8    3   28 1   
     9    3   29 1   
    10    4    5 1   
    11    4   20 1   
    12    4   30 1   
    13    5   23 1   
    14    5   31 1   
    15    6   21 1   
    16    6   32 1   
    17    6   40 1   
    18    7    8 1   
    19    7   12 1   
    20    8    9 1   
    21    8   44 1   
    22    9   10 1   
    23    9   13 1   
    24   10   11 1   
    25   10   34 1   
    26   11   14 1   
    27   11   35 1   
    28   12   33 1   
    29   14   36 1   
    30   16   18 1   
    31   16   37 1   
    32   17   27 1   
    33   17   38 1   
    34   19   22 1   
    35   19   39 1   
    36   20   21 1   
    37   22   24 1   
    38   24   25 1   
    39   24   26 1   
    40   25   41 1   
    41   26   42 1   
    42   26   43 1   
@<TRIPOS>SUBSTRUCTURE
     1 0LJ         1 TEMP              0 ****  ****    0 ROOT
