@<TRIPOS>MOLECULE
0LJ
   44    46     1     0     0
SMALL
bcc


@<TRIPOS>ATOM
      1 C10        -0.9510   -0.0820   -0.1760 c         1 0LJ      0.599100
      2 C15         2.8170   -0.7710   -0.0610 c3        1 0LJ      0.149000
      3 C17         5.0580   -0.0440    0.7530 c3        1 0LJ     -0.072100
      4 C21         5.6400   -2.3510    1.7650 ca        1 0LJ     -0.117000
      5 C22         5.1920   -3.6570    2.0020 ca        1 0LJ     -0.117000
      6 C24         3.0760   -3.1730    0.9130 ca        1 0LJ     -0.097000
      7 C01        -5.4600    0.5530   -2.0360 ca        1 0LJ     -0.077000
      8 C02        -6.0700    0.6820   -0.7840 ca        1 0LJ     -0.049600
      9 C03        -5.2760    0.5830    0.3770 ca        1 0LJ      0.162900
     10 C04        -3.8910    0.3550    0.2760 ca        1 0LJ     -0.191000
     11 C05        -3.2870    0.2260   -0.9870 ca        1 0LJ      0.092600
     12 C06        -4.0970    0.3290   -2.1470 ca        1 0LJ     -0.183000
     13 F08        -5.8200    0.7010    1.6100 f         1 0LJ     -0.120900
     14 N09        -1.9140   -0.0110   -1.1580 n         1 0LJ     -0.443100
     15 O11        -1.1650    0.0360    1.0430 o         1 0LJ     -0.575100
     16 C12         0.4860   -0.3320   -0.7000 c         1 0LJ      0.598100
     17 N13         1.4200   -0.6330    0.2560 n         1 0LJ     -0.523900
     18 O14         0.7370   -0.2900   -1.9200 o         1 0LJ     -0.600100
     19 C16         3.6760    0.5140    0.3090 c3        1 0LJ      0.173500
     20 C18         4.8000   -1.4660    1.1060 ca        1 0LJ     -0.075300
     21 C19         3.5200   -1.8810    0.6790 ca        1 0LJ     -0.119300
     22 N20         3.6640    1.4790   -0.7600 nh        1 0LJ     -0.838200
     23 C23         3.9270   -4.0620    1.5830 ca        1 0LJ     -0.132000
     24 C25         4.4490    2.6760   -0.5970 c2        1 0LJ      0.748100
     25 N26         4.8090    3.2230    0.5370 n2        1 0LJ     -0.875100
     26 N27         4.8340    3.3060   -1.8300 nh        1 0LJ     -0.881800
     27 H1          2.9000   -0.9800   -1.1720 h1        1 0LJ      0.100700
     28 H2          5.8140    0.0250   -0.0710 hc        1 0LJ      0.069700
     29 H3          5.4520    0.5310    1.6280 hc        1 0LJ      0.069700
     30 H4          6.6380   -2.0350    2.1000 ha        1 0LJ      0.140000
     31 H5          5.8490   -4.3670    2.5250 ha        1 0LJ      0.136000
     32 H6          2.0800   -3.4990    0.5830 ha        1 0LJ      0.141000
     33 H7         -6.0720    0.6300   -2.9490 ha        1 0LJ      0.154000
     34 H8         -3.3050    0.2850    1.2080 ha        1 0LJ      0.191000
     35 H9         -3.6520    0.2330   -3.1500 ha        1 0LJ      0.144000
     36 H10        -1.5950   -0.0870   -2.1040 hn        1 0LJ      0.348500
     37 H11         1.1620   -0.5730    1.2160 hn        1 0LJ      0.340500
     38 H12         3.2050    1.0060    1.2120 h1        1 0LJ      0.069700
     39 H13         3.7490    1.0560   -1.6640 hn        1 0LJ      0.407800
     40 H14         3.5880   -5.0910    1.7780 ha        1 0LJ      0.137000
     41 H15         4.6160    2.6980    1.3600 hn        1 0LJ      0.392400
     42 H16         4.0720    3.3880   -2.4710 hn        1 0LJ      0.394300
     43 H17         5.2780    4.1910   -1.6810 hn        1 0LJ      0.394300
     44 CL7        -7.7410    0.9550   -0.7010 cl        1 0LJ     -0.065400
@<TRIPOS>BOND
     1    1   14 1   
     2    1   15 2   
     3    1   16 1   
     4    2   17 1   
     5    2   19 1   
     6    2   21 1   
     7    2   27 1   
     8    3   19 1   
     9    3   20 1   
    10    3   28 1   
    11    3   29 1   
    12    4    5 ar  
    13    4   20 ar  
    14    4   30 1   
    15    5   23 ar  
    16    5   31 1   
    17    6   21 ar  
    18    6   23 ar  
    19    6   32 1   
    20    7    8 ar  
    21    7   12 ar  
    22    7   33 1   
    23    8    9 ar  
    24    8   44 1   
    25    9   10 ar  
    26    9   13 1   
    27   10   11 ar  
    28   10   34 1   
    29   11   12 ar  
    30   11   14 1   
    31   12   35 1   
    32   14   36 1   
    33   16   17 1   
    34   16   18 2   
    35   17   37 1   
    36   19   22 1   
    37   19   38 1   
    38   20   21 ar  
    39   22   24 1   
    40   22   39 1   
    41   23   40 1   
    42   24   25 2   
    43   24   26 1   
    44   25   41 1   
    45   26   42 1   
    46   26   43 1   
@<TRIPOS>SUBSTRUCTURE
     1 0LJ         1 TEMP              0 ****  ****    0 ROOT
