@<TRIPOS>MOLECULE
0LK
   47    49     1     0     0
SMALL
bcc


@<TRIPOS>ATOM
      1 C13         0.4180   -0.4120    0.1830 c         1 0LK      0.629100
      2 C15        -1.8150    0.5650    0.4760 ca        1 0LK     -0.029400
      3 C20        -3.9970    2.2460   -0.1130 ca        1 0LK      0.015400
      4 C21        -3.7100    1.8900    1.2320 ca        1 0LK      0.185900
      5 C22        -2.6210    1.0480    1.5240 ca        1 0LK     -0.148000
      6 C01         6.8870   -2.4880    0.0780 ca        1 0LK     -0.086000
      7 C02         5.6000   -2.0140    0.3740 ca        1 0LK     -0.062000
      8 C03         4.8650   -1.4230   -0.6460 ca        1 0LK     -0.233300
      9 C04         5.4030   -1.2890   -1.9470 ca        1 0LK     -0.110300
     10 C05         6.6710   -1.7610   -2.2370 ca        1 0LK     -0.074000
     11 C06         7.4130   -2.3690   -1.2070 ca        1 0LK     -0.039000
     12 C07         3.4880   -0.8480   -0.5570 c3        1 0LK      0.217800
     13 C08         3.2570   -0.1720   -1.9780 c3        1 0LK      0.123500
     14 C09         4.4480   -0.6140   -2.8680 c3        1 0LK     -0.051100
     15 N10         3.1680    1.3330   -1.8260 ny        1 0LK     -0.777000
     16 N11         2.4720   -1.9260   -0.2490 ny        1 0LK     -0.671800
     17 C12         1.3910   -1.4850    0.7090 c         1 0LK      0.433100
     18 N14        -0.7650   -0.3420    0.8060 ns        1 0LK     -0.304100
     19 O16         0.8330    0.2910   -0.7850 o         1 0LK     -0.784100
     20 O17         1.3860   -2.0010    1.8100 o         1 0LK     -0.317100
     21 C18        -2.0910    0.9260   -0.8550 ca        1 0LK     -0.139000
     22 C19        -3.1760    1.7500   -1.1330 ca        1 0LK     -0.095000
     23 Cl         -5.2960    3.2330   -0.5010 cl        1 0LK      0.049600
     24 F24        -4.4640    2.3420    2.2510 f         1 0LK     -0.068900
     25 C25         2.3900    1.9850   -2.9490 c2        1 0LK      0.606100
     26 N26         3.2270    2.6980   -3.9730 nz        1 0LK     -0.817600
     27 N27         1.1260    2.0110   -3.0950 n2        1 0LK     -0.577100
     28 H1         -2.4390    0.7810    2.5800 ha        1 0LK      0.184000
     29 H4          7.1020   -1.6750   -3.2490 ha        1 0LK      0.181000
     30 H5          8.4270   -2.7560   -1.4270 ha        1 0LK      0.201000
     31 H6          3.4130   -0.1020    0.2900 hx        1 0LK      0.117700
     32 H7          2.2760   -0.5040   -2.4290 hx        1 0LK      0.131700
     33 H8          4.9390    0.2380   -3.4050 hc        1 0LK      0.095700
     34 H9          4.0750   -1.3340   -3.6490 hc        1 0LK      0.095700
     35 H10         4.1150    1.7220   -1.7190 hn        1 0LK      0.493800
     36 H11         2.0280   -2.2650   -1.1110 hn        1 0LK      0.486300
     37 H12        -0.9420   -0.9300    1.6080 hn        1 0LK      0.384500
     38 H13        -1.4820    0.5340   -1.6820 ha        1 0LK      0.123000
     39 H14        -3.4090    2.0050   -2.1820 ha        1 0LK      0.180000
     40 H15         2.6100    3.0460   -4.7420 hn        1 0LK      0.514467
     41 H16         3.6930    3.5190   -3.5500 hn        1 0LK      0.514467
     42 H17         0.4620    1.5830   -2.4610 hn        1 0LK      0.560400
     43 H2          7.4870   -2.9630    0.8780 ha        1 0LK      0.200000
     44 H102        2.6310    1.5300   -0.9520 hn        1 0LK      0.493800
     45 H112        2.9860   -2.7250    0.1780 hn        1 0LK      0.486300
     46 H263        3.9270    2.0640   -4.3850 hn        1 0LK      0.514467
     47 H3          5.2050   -2.1070    1.3980 ha        1 0LK      0.165000
@<TRIPOS>BOND
     1    1   17 1   
     2    1   18 1   
     3    1   19 2   
     4    2    5 ar  
     5    2   18 1   
     6    2   21 ar  
     7    3    4 ar  
     8    3   22 ar  
     9    3   23 1   
    10    4    5 ar  
    11    4   24 1   
    12    5   28 1   
    13    6    7 ar  
    14    6   11 ar  
    15    6   43 1   
    16    7    8 ar  
    17    7   47 1   
    18    8    9 ar  
    19    8   12 1   
    20    9   10 ar  
    21    9   14 1   
    22   10   11 ar  
    23   10   29 1   
    24   11   30 1   
    25   12   13 1   
    26   12   16 1   
    27   12   31 1   
    28   13   14 1   
    29   13   15 1   
    30   13   32 1   
    31   14   33 1   
    32   14   34 1   
    33   15   25 1   
    34   15   35 1   
    35   15   44 1   
    36   16   17 1   
    37   16   36 1   
    38   16   45 1   
    39   17   20 2   
    40   18   37 1   
    41   21   22 ar  
    42   21   38 1   
    43   22   39 1   
    44   25   26 1   
    45   25   27 2   
    46   26   40 1   
    47   26   41 1   
    48   26   46 1   
    49   27   42 1   
@<TRIPOS>SUBSTRUCTURE
     1 0LK         1 TEMP              0 ****  ****    0 ROOT
