@<TRIPOS>MOLECULE
0LK
   47    49     1     0     0
SMALL
bcc


@<TRIPOS>ATOM
      1 C13         0.4340   -0.4040    0.2070 c         1 0LK      0.629100
      2 C15        -1.8050    0.5570    0.5050 ca        1 0LK     -0.029400
      3 C20        -4.0090    2.2060   -0.0940 ca        1 0LK      0.015400
      4 C21        -3.7060    1.8780    1.2540 ca        1 0LK      0.185900
      5 C22        -2.6060    1.0520    1.5510 ca        1 0LK     -0.148000
      6 C01         6.9210   -2.4230    0.0760 ca        1 0LK     -0.086000
      7 C02         5.6330   -1.9540    0.3760 ca        1 0LK     -0.062000
      8 C03         4.8830   -1.3890   -0.6480 ca        1 0LK     -0.233300
      9 C04         5.4060   -1.2750   -1.9560 ca        1 0LK     -0.110300
     10 C05         6.6750   -1.7410   -2.2500 ca        1 0LK     -0.074000
     11 C06         7.4330   -2.3230   -1.2170 ca        1 0LK     -0.039000
     12 C07         3.5010   -0.8250   -0.5550 c3        1 0LK      0.217800
     13 C08         3.2500   -0.1780   -1.9860 c3        1 0LK      0.123500
     14 C09         4.4360   -0.6250   -2.8790 c3        1 0LK     -0.051100
     15 N10         3.1480    1.3290   -1.8610 n4        1 0LK     -0.777000
     16 N11         2.4980   -1.9060   -0.2170 n4        1 0LK     -0.671800
     17 C12         1.4220   -1.4570    0.7440 c         1 0LK      0.433100
     18 N14        -0.7430   -0.3330    0.8410 n         1 0LK     -0.304100
     19 O16         0.8330    0.2850   -0.7780 o         1 0LK     -0.784100
     20 O17         1.4330   -1.9520    1.8550 o         1 0LK     -0.317100
     21 C18        -2.0970    0.8910   -0.8310 ca        1 0LK     -0.139000
     22 C19        -3.1920    1.6990   -1.1130 ca        1 0LK     -0.095000
     23 CL         -5.3210    3.1730   -0.4880 cl        1 0LK      0.049600
     24 F24        -4.4540    2.3410    2.2720 f         1 0LK     -0.068900
     25 C25         2.3530    1.9530   -2.9880 c2        1 0LK      0.606100
     26 N26         3.1730    2.6540   -4.0330 n4        1 0LK     -0.817600
     27 N27         1.0870    1.9640   -3.1220 n2        1 0LK     -0.577100
     28 H1         -2.4120    0.8060    2.6100 ha        1 0LK      0.184000
     29 H4          7.0950   -1.6700   -3.2680 ha        1 0LK      0.181000
     30 H5          8.4480   -2.7050   -1.4400 ha        1 0LK      0.201000
     31 H6          3.4270   -0.0650    0.2790 hx        1 0LK      0.117700
     32 H7          2.2670   -0.5270   -2.4210 hx        1 0LK      0.131700
     33 H8          4.0610   -1.3640   -3.6430 hc        1 0LK      0.095700
     34 H9          4.9130    0.2210   -3.4370 hc        1 0LK      0.095700
     35 H10         4.0930    1.7280   -1.7700 hn        1 0LK      0.493800
     36 H11         2.0490   -2.2650   -1.0680 hn        1 0LK      0.486300
     37 H12        -0.9060   -0.9080    1.6550 hn        1 0LK      0.384500
     38 H13        -1.4920    0.4900   -1.6560 ha        1 0LK      0.123000
     39 H14        -3.4380    1.9330   -2.1650 ha        1 0LK      0.180000
     40 H15         3.6360    3.4860   -3.6310 hn        1 0LK      0.514467
     41 H16         3.8750    2.0190   -4.4410 hn        1 0LK      0.514467
     42 H17         0.4340    1.5420   -2.4730 hn        1 0LK      0.560400
     43 H2          7.5340   -2.8770    0.8780 ha        1 0LK      0.200000
     44 H102        2.6180    1.5370   -0.9850 hn        1 0LK      0.493800
     45 H112        3.0240   -2.6920    0.2200 hn        1 0LK      0.486300
     46 H263        2.5450    2.9820   -4.8030 hn        1 0LK      0.514467
     47 H3          5.2490   -2.0320    1.4060 ha        1 0LK      0.165000
@<TRIPOS>BOND
     1    1   17 1   
     2    1   18 1   
     3    1   19 2   
     4    2    5 ar  
     5    2   18 1   
     6    2   21 ar  
     7    3    4 ar  
     8    3   22 ar  
     9    3   23 1   
    10    4    5 ar  
    11    4   24 1   
    12    5   28 1   
    13    6    7 ar  
    14    6   11 ar  
    15    6   43 1   
    16    7    8 ar  
    17    7   47 1   
    18    8    9 ar  
    19    8   12 1   
    20    9   10 ar  
    21    9   14 1   
    22   10   11 ar  
    23   10   29 1   
    24   11   30 1   
    25   12   13 1   
    26   12   16 1   
    27   12   31 1   
    28   13   14 1   
    29   13   15 1   
    30   13   32 1   
    31   14   33 1   
    32   14   34 1   
    33   15   25 1   
    34   15   35 1   
    35   15   44 1   
    36   16   17 1   
    37   16   36 1   
    38   16   45 1   
    39   17   20 2   
    40   18   37 1   
    41   21   22 ar  
    42   21   38 1   
    43   22   39 1   
    44   25   26 1   
    45   25   27 2   
    46   26   40 1   
    47   26   41 1   
    48   26   46 1   
    49   27   42 1   
@<TRIPOS>SUBSTRUCTURE
     1 0LK         1 TEMP              0 ****  ****    0 ROOT
