@<TRIPOS>MOLECULE
0LK
   44    46     1     0     0
SMALL
bcc


@<TRIPOS>ATOM
      1 C13        -0.8760   -0.0690   -0.1370 c         1 0LK      0.598100
      2 C15        -3.3260    0.0910    0.2940 ca        1 0LK      0.093600
      3 C20        -6.0700    0.2290   -0.3730 ca        1 0LK     -0.047600
      4 C21        -5.6600    0.3440    0.9730 ca        1 0LK      0.161900
      5 C22        -4.2970    0.2760    1.3030 ca        1 0LK     -0.214000
      6 C01         4.2920   -4.0070   -0.0900 ca        1 0LK     -0.136000
      7 C02         3.3460   -3.0140    0.1960 ca        1 0LK     -0.097000
      8 C03         3.7200   -1.6850    0.0720 ca        1 0LK     -0.119300
      9 C04         5.0260   -1.3360   -0.3340 ca        1 0LK     -0.074300
     10 C05         5.9600   -2.3230   -0.6140 ca        1 0LK     -0.119000
     11 C06         5.5820   -3.6660   -0.4890 ca        1 0LK     -0.119000
     12 C07         2.9030   -0.4530    0.3700 c3        1 0LK      0.142000
     13 C08         3.7690    0.7220   -0.2600 c3        1 0LK      0.183500
     14 C09         5.2020    0.1400   -0.4030 c3        1 0LK     -0.061100
     15 N10         3.6200    1.9320    0.5160 nh        1 0LK     -0.792200
     16 N11         1.5560   -0.4970   -0.1370 n         1 0LK     -0.519900
     17 C12         0.4820   -0.0980    0.6100 c         1 0LK      0.597100
     18 N14        -1.9800    0.0180    0.6850 n         1 0LK     -0.444100
     19 O16        -0.9150   -0.1250   -1.3780 o         1 0LK     -0.578100
     20 O17         0.5460    0.1940    1.8210 o         1 0LK     -0.602100
     21 C18        -3.7500   -0.0220   -1.0470 ca        1 0LK     -0.163000
     22 C19        -5.1010    0.0480   -1.3620 ca        1 0LK     -0.079000
     23 CL         -7.7060    0.3070   -0.8120 cl        1 0LK     -0.065400
     24 F24        -6.5590    0.5210    1.9690 f         1 0LK     -0.124900
     25 C25         4.2030    3.1460    0.0000 c2        1 0LK      0.749100
     26 N26         4.0460    4.2860    0.8570 nh        1 0LK     -0.932800
     27 N27         4.8320    3.1530   -1.1490 n2        1 0LK     -0.876100
     28 H1         -4.0130    0.3690    2.3630 ha        1 0LK      0.156000
     29 H3          2.3300   -3.2880    0.5130 ha        1 0LK      0.139000
     30 H4          6.9780   -2.0580   -0.9330 ha        1 0LK      0.139000
     31 H5          6.3140   -4.4570   -0.7100 ha        1 0LK      0.134000
     32 H6          2.8450   -0.3320    1.4960 h1        1 0LK      0.099700
     33 H7          3.3860    0.9390   -1.3010 h1        1 0LK      0.088700
     34 H8          5.8750    0.4920    0.4200 hc        1 0LK      0.073200
     35 H9          5.6550    0.4620   -1.3740 hc        1 0LK      0.073200
     36 H10         3.8580    1.7900    1.4810 hn        1 0LK      0.396800
     37 H11         1.4350   -0.6320   -1.1180 hn        1 0LK      0.339500
     38 H12        -1.7990    0.1040    1.6670 hn        1 0LK      0.348500
     39 H13        -3.0190   -0.1650   -1.8610 ha        1 0LK      0.180000
     40 H14        -5.4110   -0.0420   -2.4160 ha        1 0LK      0.156000
     41 H15         3.3450    4.1990    1.5600 hn        1 0LK      0.393300
     42 H16         3.9680    5.1460    0.3580 hn        1 0LK      0.393300
     43 H17         5.1230    4.0480   -1.4750 hn        1 0LK      0.393400
     44 H2          4.0080   -5.0660    0.0030 ha        1 0LK      0.134000
@<TRIPOS>BOND
     1    1   17 1   
     2    1   18 1   
     3    1   19 2   
     4    2    5 ar  
     5    2   18 1   
     6    2   21 ar  
     7    3    4 ar  
     8    3   22 ar  
     9    3   23 1   
    10    4    5 ar  
    11    4   24 1   
    12    5   28 1   
    13    6    7 ar  
    14    6   11 ar  
    15    6   44 1   
    16    7    8 ar  
    17    7   29 1   
    18    8    9 ar  
    19    8   12 1   
    20    9   10 ar  
    21    9   14 1   
    22   10   11 ar  
    23   10   30 1   
    24   11   31 1   
    25   12   13 1   
    26   12   16 1   
    27   12   32 1   
    28   13   14 1   
    29   13   15 1   
    30   13   33 1   
    31   14   34 1   
    32   14   35 1   
    33   15   25 1   
    34   15   36 1   
    35   16   17 1   
    36   16   37 1   
    37   17   20 2   
    38   18   38 1   
    39   21   22 ar  
    40   21   39 1   
    41   22   40 1   
    42   25   26 1   
    43   25   27 2   
    44   26   41 1   
    45   26   42 1   
    46   27   43 1   
@<TRIPOS>SUBSTRUCTURE
     1 0LK         1 TEMP              0 ****  ****    0 ROOT
