@<TRIPOS>MOLECULE
0LK
   48    50     1     0     0
SMALL
bcc


@<TRIPOS>ATOM
      1 C13        -0.1280   -1.3320    0.0990 c         1 0LK      0.462100
      2 C15        -2.2720   -0.7150    1.1290 ca        1 0LK     -0.119400
      3 C20        -4.8020    0.5050    1.0100 ca        1 0LK      0.065400
      4 C21        -3.6720    1.2260    1.5080 ca        1 0LK      0.175900
      5 C22        -2.4110    0.6150    1.5690 ca        1 0LK     -0.165000
      6 C01         5.1700   -2.5610    0.0970 ca        1 0LK     -0.095000
      7 C02         4.3130   -1.4540    0.1890 ca        1 0LK     -0.050000
      8 C03         3.9990   -0.7600   -0.9730 ca        1 0LK     -0.280300
      9 C04         4.5620   -1.1470   -2.2210 ca        1 0LK     -0.130300
     10 C05         5.3930   -2.2470   -2.3120 ca        1 0LK     -0.065000
     11 C06         5.6890   -2.9640   -1.1330 ca        1 0LK     -0.017000
     12 C07         3.0960    0.4140   -1.1480 c3        1 0LK      0.206800
     13 C08         3.6120    1.0340   -2.5330 c3        1 0LK      0.108500
     14 C09         4.1500   -0.2060   -3.3030 c3        1 0LK     -0.071100
     15 N10         4.7310    2.0170   -2.2420 n4        1 0LK     -0.791000
     16 N11         1.6460   -0.0540   -1.2690 n4        1 0LK     -0.677800
     17 C12         0.9310   -0.2140    0.0520 c         1 0LK      0.463100
     18 N14        -0.9840   -1.3940    1.3160 n4        1 0LK     -0.478200
     19 O16        -0.2480   -2.1200   -0.8250 o         1 0LK     -0.324100
     20 O17         1.2190    0.5140    0.9830 o         1 0LK     -0.329100
     21 C18        -3.3690   -1.4310    0.6120 ca        1 0LK     -0.068000
     22 C19        -4.6150   -0.8140    0.5680 ca        1 0LK     -0.088000
     23 CL         -6.3170    1.1930    0.9570 cl        1 0LK      0.121600
     24 F24        -3.7890    2.4970    1.9330 f         1 0LK     -0.061900
     25 C25         5.2420    2.7700   -3.4670 c2        1 0LK      0.625100
     26 N26         6.4350    3.6470   -3.1880 n4        1 0LK     -0.820600
     27 N27         4.8030    2.7570   -4.6550 n2        1 0LK     -0.572100
     28 H1         -1.5770    1.1860    2.0090 ha        1 0LK      0.167000
     29 H4          5.8230   -2.5740   -3.2760 ha        1 0LK      0.201000
     30 H5          6.3500   -3.8540   -1.1920 ha        1 0LK      0.219000
     31 H6          3.1200    1.1550   -0.2970 hx        1 0LK      0.137700
     32 H7          2.8030    1.5850   -3.0850 hx        1 0LK      0.122700
     33 H8          3.3200   -0.6370   -3.9290 hc        1 0LK      0.120700
     34 H9          4.9950    0.0220   -4.0020 hc        1 0LK      0.120700
     35 H10         5.5060    1.4660   -1.8260 hn        1 0LK      0.489300
     36 H11         1.6450   -0.9740   -1.7520 hn        1 0LK      0.489300
     37 H12        -0.4940   -0.9700    2.1230 hn        1 0LK      0.510300
     38 H13        -3.2790   -2.4750    0.2610 ha        1 0LK      0.183000
     39 H14        -5.4860   -1.3890    0.1860 ha        1 0LK      0.222000
     40 H15         6.7200    4.1340   -4.0760 hn        1 0LK      0.525800
     41 H16         7.2440    3.0870   -2.8690 hn        1 0LK      0.525800
     42 H17         4.0330    2.2350   -5.0270 hn        1 0LK      0.549400
     43 H2          5.4380   -3.1210    1.0150 ha        1 0LK      0.212000
     44 H102        4.4000    2.7030   -1.5460 hn        1 0LK      0.489300
     45 H112        1.0990    0.6110   -1.8340 hn        1 0LK      0.489300
     46 H142       -1.1790   -2.3980    1.5210 hn        1 0LK      0.510300
     47 H263        6.2090    4.3790   -2.4940 hn        1 0LK      0.525800
     48 H3          3.9240   -1.1450    1.1730 ha        1 0LK      0.163000
@<TRIPOS>BOND
     1    1   17 1   
     2    1   18 1   
     3    1   19 2   
     4    2    5 ar  
     5    2   18 1   
     6    2   21 ar  
     7    3    4 ar  
     8    3   22 ar  
     9    3   23 1   
    10    4    5 ar  
    11    4   24 1   
    12    5   28 1   
    13    6    7 ar  
    14    6   11 ar  
    15    6   43 1   
    16    7    8 ar  
    17    7   48 1   
    18    8    9 ar  
    19    8   12 1   
    20    9   10 ar  
    21    9   14 1   
    22   10   11 ar  
    23   10   29 1   
    24   11   30 1   
    25   12   13 1   
    26   12   16 1   
    27   12   31 1   
    28   13   14 1   
    29   13   15 1   
    30   13   32 1   
    31   14   33 1   
    32   14   34 1   
    33   15   25 1   
    34   15   35 1   
    35   15   44 1   
    36   16   17 1   
    37   16   36 1   
    38   16   45 1   
    39   17   20 2   
    40   18   37 1   
    41   18   46 1   
    42   21   22 ar  
    43   21   38 1   
    44   22   39 1   
    45   25   26 1   
    46   25   27 2   
    47   26   40 1   
    48   26   41 1   
    49   26   47 1   
    50   27   42 1   
@<TRIPOS>SUBSTRUCTURE
     1 0LK         1 TEMP              0 ****  ****    0 ROOT
