@<TRIPOS>MOLECULE
0LK
   44    38     1     0     0
SMALL
bcc


@<TRIPOS>ATOM
      1 C13        -1.9200    0.6200    0.6960 c1        1 0LK      0.294000
      2 C15        -4.1100    1.6110    1.4520 c1        1 0LK      0.100000
      3 C20        -6.8880    1.6580    1.4160 c1        1 0LK     -0.125000
      4 C21        -6.1630    2.3240    0.4300 c1        1 0LK      0.127000
      5 C22        -4.7670    2.2970    0.4530 c1        1 0LK     -0.212000
      6 C01         3.2140   -2.8350    2.5170 c1        1 0LK     -0.126000
      7 C02         2.5000   -1.7140    2.0530 c1        1 0LK     -0.097000
      8 C03         2.4700   -1.4160    0.6870 c1        1 0LK     -0.113000
      9 C04         3.1680   -2.2560   -0.2420 c1        1 0LK     -0.069000
     10 C05         3.8830   -3.3800    0.2280 c1        1 0LK     -0.118000
     11 C06         3.9070   -3.6690    1.6000 c1        1 0LK     -0.126000
     12 C07         1.7860   -0.2740   -0.1140 c3        1 0LK      0.059000
     13 C08         2.1630   -0.4200   -1.5100 c3        1 0LK     -0.011000
     14 C09         3.0410   -1.6340   -1.6260 c3        1 0LK     -0.149000
     15 N10         2.8960    0.7620   -1.9460 n3        1 0LK     -0.326000
     16 N11         0.3630   -0.3750    0.0230 n3        1 0LK     -0.333000
     17 C12        -0.3690    0.6760    0.6570 c1        1 0LK      0.291000
     18 N14        -2.6720    1.6020    1.4940 n2        1 0LK     -0.296000
     19 O16        -2.5370   -0.2090   -0.0220 o         1 0LK     -0.341000
     20 O17         0.2190    1.6580    1.0810 o         1 0LK     -0.359000
     21 C18        -4.8390    0.9480    2.4350 c2        1 0LK     -0.162000
     22 C19        -6.2320    0.9770    2.4090 c1        1 0LK     -0.079000
     23 CL         -8.6590    1.6490    1.3610 cl        1 0LK      0.014000
     24 F24        -6.8060    3.0670   -0.4870 f         1 0LK     -0.089000
     25 C25         2.6550    1.3110   -3.2300 c2        1 0LK      0.158000
     26 N26         3.5220    0.9810   -4.3210 n3        1 0LK     -0.318000
     27 N27         1.6080    2.1410   -3.4250 n1        1 0LK     -0.344000
     28 H1         -4.2450    2.7730   -0.2550 ha        1 0LK      0.156000
     29 H2          3.2320   -3.0350    3.4490 ha        1 0LK      0.135500
     30 H3          2.0260   -1.1450    2.6860 ha        1 0LK      0.141000
     31 H4          4.3860   -3.9820   -0.4310 ha        1 0LK      0.140000
     32 H5          4.4030   -4.4500    1.9280 ha        1 0LK      0.135500
     33 H6          2.0950    0.6040    0.2260 h1        1 0LK      0.138000
     34 H7          1.3450   -0.5380   -2.0700 h1        1 0LK      0.104000
     35 H8          3.9280   -1.3710   -1.9530 hc        1 0LK      0.111000
     36 H9          2.6380   -2.2760   -2.2400 hc        1 0LK      0.111000
     37 H10         3.5100    1.1730   -1.3670 hn        1 0LK      0.198000
     38 H11        -0.0790   -1.1720   -0.2250 hn        1 0LK      0.253000
     39 H12        -2.2380    2.1930    1.9950 hn        1 0LK      0.262000
     40 H13        -4.3890    0.4750    3.1230 ha        1 0LK      0.180000
     41 H14        -6.7370    0.5150    3.0930 ha        1 0LK      0.156000
     42 H15         3.5460    1.5170   -5.0620 hn        1 0LK      0.188500
     43 H16         4.1010    0.2640   -4.2510 hn        1 0LK      0.188500
     44 H17         1.0450    2.3540   -2.7160 DU        1 0LK      0.150000
@<TRIPOS>BOND
     1    1   18 1   
     2    1   19 1   
     3    2    5 1   
     4    2   21 1   
     5    3    4 1   
     6    3   23 1   
     7    4   24 1   
     8    5   28 1   
     9    6   11 1   
    10    6   29 1   
    11    7    8 1   
    12    7   30 1   
    13    8   12 1   
    14    9   10 1   
    15    9   14 1   
    16   10   31 1   
    17   11   32 1   
    18   12   13 1   
    19   12   16 1   
    20   12   33 1   
    21   13   14 1   
    22   13   15 1   
    23   13   34 1   
    24   14   35 1   
    25   14   36 1   
    26   15   25 1   
    27   15   37 1   
    28   16   17 1   
    29   16   38 1   
    30   17   20 1   
    31   18   39 1   
    32   21   22 1   
    33   21   40 1   
    34   22   41 1   
    35   25   26 1   
    36   25   27 1   
    37   26   42 1   
    38   26   43 1   
@<TRIPOS>SUBSTRUCTURE
     1 0LK         1 TEMP              0 ****  ****    0 ROOT
