@<TRIPOS>MOLECULE
0LL
   42    44     1     0     0
SMALL
bcc


@<TRIPOS>ATOM
      1 C13        -0.0070   -1.2760    0.1580 c         1 0LL      0.461100
      2 C15        -2.0350   -0.3390    1.1700 ca        1 0LL     -0.109400
      3 C20        -4.3590    1.2200    0.9620 ca        1 0LL      0.051400
      4 C21        -4.2210    0.0280    0.1920 ca        1 0LL      0.180900
      5 C22        -3.0590   -0.7540    0.3010 ca        1 0LL     -0.148000
      6 C01         4.9680   -3.3750   -0.2350 ca        1 0LL     -0.104000
      7 C02         4.2760   -2.1780   -0.0130 ca        1 0LL     -0.061000
      8 C03         4.0710   -1.3210   -1.0890 ca        1 0LL     -0.267300
      9 C04         4.5830   -1.6390   -2.3760 ca        1 0LL     -0.096300
     10 C05         5.2570   -2.8270   -2.5930 ca        1 0LL     -0.075000
     11 C06         5.4410   -3.7030   -1.5070 ca        1 0LL     -0.022000
     12 C07         3.3890    0.0040   -1.1070 c3        1 0LL      0.198800
     13 C08         3.9470    0.6760   -2.4350 c3        1 0LL      0.107500
     14 C09         4.3380   -0.5290   -3.3400 c3        1 0LL     -0.068100
     15 N10         5.1460    1.5200   -2.1310 n4        1 0LL     -0.838600
     16 N11         1.8710   -0.1930   -1.2120 n4        1 0LL     -0.670800
     17 C12         1.1780   -0.2990    0.1100 c         1 0LL      0.466100
     18 N14        -0.8700   -1.2180    1.3680 n4        1 0LL     -0.490200
     19 O16        -0.2290   -2.0630   -0.7470 o         1 0LL     -0.326100
     20 O17         1.5630    0.3530    1.0640 o         1 0LL     -0.331100
     21 C18        -2.1480    0.8430    1.9250 ca        1 0LL     -0.094000
     22 C19        -3.3090    1.6010    1.8130 ca        1 0LL     -0.087000
     23 CL         -5.7370    2.1580    0.8770 cl        1 0LL      0.098600
     24 F24        -5.1910   -0.3780   -0.6450 f         1 0LL     -0.058900
     25 H1         -2.9980   -1.6870   -0.2860 ha        1 0LL      0.187000
     26 H4          5.6560   -3.0890   -3.5900 ha        1 0LL      0.196000
     27 H5          5.9820   -4.6570   -1.6660 ha        1 0LL      0.205000
     28 H6          3.5670    0.6300   -0.1860 hx        1 0LL      0.136700
     29 H7          3.1960    1.3460   -2.9430 hx        1 0LL      0.126700
     30 H8          5.2320   -0.3260   -3.9880 hc        1 0LL      0.124700
     31 H9          3.4880   -0.7630   -4.0360 hc        1 0LL      0.124700
     32 H10         4.9090    2.3000   -1.5080 hn        1 0LL      0.487800
     33 H11         5.8810    0.9460   -1.6900 hn        1 0LL      0.487800
     34 H13         1.7010   -1.0630   -1.7530 hn        1 0LL      0.489800
     35 H14        -0.3300   -0.8880    2.1860 hn        1 0LL      0.506300
     36 H15        -1.3630    1.1720    2.6260 ha        1 0LL      0.170000
     37 H16        -3.4130    2.5190    2.4260 ha        1 0LL      0.211000
     38 H2          5.1500   -4.0640    0.6110 ha        1 0LL      0.197000
     39 H103        5.5220    1.9020   -3.0140 hn        1 0LL      0.487800
     40 H112        1.4480    0.5970   -1.7230 hn        1 0LL      0.489800
     41 H142       -1.2280   -2.1780    1.5580 hn        1 0LL      0.506300
     42 H3          3.9330   -1.9230    1.0010 ha        1 0LL      0.150000
@<TRIPOS>BOND
     1    1   17 1   
     2    1   18 1   
     3    1   19 2   
     4    2    5 ar  
     5    2   18 1   
     6    2   21 ar  
     7    3    4 ar  
     8    3   22 ar  
     9    3   23 1   
    10    4    5 ar  
    11    4   24 1   
    12    5   25 1   
    13    6    7 ar  
    14    6   11 ar  
    15    6   38 1   
    16    7    8 ar  
    17    7   42 1   
    18    8    9 ar  
    19    8   12 1   
    20    9   10 ar  
    21    9   14 1   
    22   10   11 ar  
    23   10   26 1   
    24   11   27 1   
    25   12   13 1   
    26   12   16 1   
    27   12   28 1   
    28   13   14 1   
    29   13   15 1   
    30   13   29 1   
    31   14   30 1   
    32   14   31 1   
    33   15   32 1   
    34   15   33 1   
    35   15   39 1   
    36   16   17 1   
    37   16   34 1   
    38   16   40 1   
    39   17   20 2   
    40   18   35 1   
    41   18   41 1   
    42   21   22 ar  
    43   21   36 1   
    44   22   37 1   
@<TRIPOS>SUBSTRUCTURE
     1 0LL         1 TEMP              0 ****  ****    0 ROOT
