@<TRIPOS>MOLECULE
0LL
   41    43     1     0     0
SMALL
bcc


@<TRIPOS>ATOM
      1 C13        -0.1740   -0.2280   -0.0220 c         1 0LL      0.622100
      2 C15        -2.3130    0.6860    0.7780 ca        1 0LL      0.007600
      3 C20        -4.9570    0.5840    1.7490 ca        1 0LL     -0.000600
      4 C21        -4.3260   -0.5850    1.2640 ca        1 0LL      0.167900
      5 C22        -3.0050   -0.5330    0.7790 ca        1 0LL     -0.162000
      6 C01         4.9320   -4.3140   -1.2980 ca        1 0LL     -0.097000
      7 C02         4.1380   -3.2750   -0.7940 ca        1 0LL     -0.074000
      8 C03         4.2650   -2.0140   -1.3640 ca        1 0LL     -0.216300
      9 C04         5.1810   -1.7760   -2.4110 ca        1 0LL     -0.083300
     10 C05         5.9650   -2.8050   -2.9060 ca        1 0LL     -0.082000
     11 C06         5.8300   -4.0830   -2.3410 ca        1 0LL     -0.052000
     12 C07         3.5460   -0.7620   -0.9700 c3        1 0LL      0.190800
     13 C08         4.1270    0.3480   -1.9320 c3        1 0LL      0.111500
     14 C09         5.1770   -0.3510   -2.8390 c3        1 0LL     -0.053100
     15 N10         4.7070    1.4930   -1.1630 n4        1 0LL     -0.841600
     16 N11         2.0570   -0.9270   -1.1040 n4        1 0LL     -0.682800
     17 C12         1.2560    0.1950   -0.5000 c         1 0LL      0.461100
     18 N14        -0.9830    0.8090    0.2850 n         1 0LL     -0.365100
     19 O16        -0.3800   -1.4510    0.0010 o         1 0LL     -0.540100
     20 O17         1.8020    1.2860   -0.4140 o         1 0LL     -0.479100
     21 C18        -2.9420    1.8560    1.2640 ca        1 0LL     -0.142000
     22 C19        -4.2450    1.7910    1.7380 ca        1 0LL     -0.075000
     23 CL         -6.5340    0.5590    2.3360 cl        1 0LL      0.011600
     24 F24        -4.9640   -1.7740    1.2510 f         1 0LL     -0.093900
     25 H1         -2.5540   -1.4710    0.4130 ha        1 0LL      0.182000
     26 H4          6.6840   -2.6320   -3.7240 ha        1 0LL      0.179000
     27 H5          6.4480   -4.9140   -2.7270 ha        1 0LL      0.187000
     28 H6          3.7330   -0.5190    0.1190 hx        1 0LL      0.119700
     29 H7          3.3140    0.7930   -2.5810 hx        1 0LL      0.119700
     30 H8          4.8660   -0.2510   -3.9150 hc        1 0LL      0.111200
     31 H9          6.2030    0.0950   -2.7460 hc        1 0LL      0.111200
     32 H10         5.0990    2.1800   -1.8220 hn        1 0LL      0.479800
     33 H11         3.9760    1.9480   -0.5980 hn        1 0LL      0.479800
     34 H13         1.7800   -1.8120   -0.6290 hn        1 0LL      0.496800
     35 H14        -0.6240    1.7440    0.2380 hn        1 0LL      0.355500
     36 H15        -2.4200    2.8260    1.2740 ha        1 0LL      0.151000
     37 H16        -4.7290    2.7100    2.1140 ha        1 0LL      0.183000
     38 H2          4.8450   -5.3240   -0.8600 ha        1 0LL      0.185000
     39 H103        5.4620    1.1680   -0.5460 hn        1 0LL      0.479800
     40 H112        1.7950   -1.0320   -2.0950 hn        1 0LL      0.496800
     41 H3          3.4460   -3.4690    0.0400 ha        1 0LL      0.153000
@<TRIPOS>BOND
     1    1   17 1   
     2    1   18 1   
     3    1   19 2   
     4    2    5 ar  
     5    2   18 1   
     6    2   21 ar  
     7    3    4 ar  
     8    3   22 ar  
     9    3   23 1   
    10    4    5 ar  
    11    4   24 1   
    12    5   25 1   
    13    6    7 ar  
    14    6   11 ar  
    15    6   38 1   
    16    7    8 ar  
    17    7   41 1   
    18    8    9 ar  
    19    8   12 1   
    20    9   10 ar  
    21    9   14 1   
    22   10   11 ar  
    23   10   26 1   
    24   11   27 1   
    25   12   13 1   
    26   12   16 1   
    27   12   28 1   
    28   13   14 1   
    29   13   15 1   
    30   13   29 1   
    31   14   30 1   
    32   14   31 1   
    33   15   32 1   
    34   15   33 1   
    35   15   39 1   
    36   16   17 1   
    37   16   34 1   
    38   16   40 1   
    39   17   20 2   
    40   18   35 1   
    41   21   22 ar  
    42   21   36 1   
    43   22   37 1   
@<TRIPOS>SUBSTRUCTURE
     1 0LL         1 TEMP              0 ****  ****    0 ROOT
