@<TRIPOS>MOLECULE
0LL
   39    41     1     0     0
SMALL
bcc


@<TRIPOS>ATOM
      1 C13        -0.4640   -0.2860   -0.0360 c         1 0LL      0.598100
      2 C15        -2.8650   -0.6500   -0.5960 ca        1 0LL      0.091600
      3 C20        -5.6590   -0.2450   -0.4430 ca        1 0LL     -0.049600
      4 C21        -4.7770    0.5700    0.2960 ca        1 0LL      0.162900
      5 C22        -3.3860    0.3690    0.2200 ca        1 0LL     -0.191000
      6 C01         5.2210    3.0220   -0.3360 ca        1 0LL     -0.135000
      7 C02         4.1900    2.1110   -0.5960 ca        1 0LL     -0.104000
      8 C03         4.3150    0.8140   -0.1220 ca        1 0LL     -0.116300
      9 C04         5.4550    0.4160    0.6090 ca        1 0LL     -0.065300
     10 C05         6.4750    1.3210    0.8610 ca        1 0LL     -0.122000
     11 C06         6.3490    2.6310    0.3830 ca        1 0LL     -0.117000
     12 C07         3.3640   -0.3400   -0.3080 c3        1 0LL      0.144000
     13 C08         3.9330   -1.4620    0.6570 c3        1 0LL      0.166500
     14 C09         5.3790   -1.0150    1.0100 c3        1 0LL     -0.040100
     15 N10         3.8840   -2.7720    0.0500 n3        1 0LL     -0.926800
     16 N11         1.9870    0.0120   -0.0500 n         1 0LL     -0.528900
     17 C12         0.9500   -0.8070   -0.3930 c         1 0LL      0.591100
     18 N14        -1.4890   -0.8950   -0.7280 n         1 0LL     -0.443100
     19 O16        -0.6070    0.6130    0.8100 o         1 0LL     -0.575100
     20 O17         1.0950   -1.9020   -0.9760 o         1 0LL     -0.613100
     21 C18        -3.7620   -1.4630   -1.3350 ca        1 0LL     -0.183000
     22 C19        -5.1300   -1.2550   -1.2520 ca        1 0LL     -0.077000
     23 CL         -7.3390   -0.0310   -0.3760 cl        1 0LL     -0.064400
     24 F24        -5.2400    1.5600    1.0930 f         1 0LL     -0.121900
     25 H1         -2.7310    1.0260    0.8160 ha        1 0LL      0.191000
     26 H3          3.3040    2.4220   -1.1670 ha        1 0LL      0.138000
     27 H4          7.3670    1.0190    1.4260 ha        1 0LL      0.138000
     28 H5          7.1520    3.3580    0.5780 ha        1 0LL      0.134000
     29 H6          3.4280   -0.7020   -1.3800 h1        1 0LL      0.098700
     30 H7          3.3370   -1.4270    1.6200 h1        1 0LL      0.020700
     31 H8          6.1440   -1.6150    0.4520 hc        1 0LL      0.067700
     32 H9          5.5680   -1.1460    2.1050 hc        1 0LL      0.067700
     33 H10         4.0070   -3.4820    0.7420 hn        1 0LL      0.368800
     34 H11         3.0190   -2.9120   -0.4370 hn        1 0LL      0.368800
     35 H13         1.8050    0.8130    0.5150 hn        1 0LL      0.342500
     36 H14        -1.2320   -1.6460   -1.3390 hn        1 0LL      0.348500
     37 H15        -3.3830   -2.2700   -1.9820 ha        1 0LL      0.145000
     38 H16        -5.8110   -1.8980   -1.8340 ha        1 0LL      0.155000
     39 H2          5.1360    4.0550   -0.7050 ha        1 0LL      0.135000
@<TRIPOS>BOND
     1    1   17 1   
     2    1   18 1   
     3    1   19 2   
     4    2    5 ar  
     5    2   18 1   
     6    2   21 ar  
     7    3    4 ar  
     8    3   22 ar  
     9    3   23 1   
    10    4    5 ar  
    11    4   24 1   
    12    5   25 1   
    13    6    7 ar  
    14    6   11 ar  
    15    6   39 1   
    16    7    8 ar  
    17    7   26 1   
    18    8    9 ar  
    19    8   12 1   
    20    9   10 ar  
    21    9   14 1   
    22   10   11 ar  
    23   10   27 1   
    24   11   28 1   
    25   12   13 1   
    26   12   16 1   
    27   12   29 1   
    28   13   14 1   
    29   13   15 1   
    30   13   30 1   
    31   14   31 1   
    32   14   32 1   
    33   15   33 1   
    34   15   34 1   
    35   16   17 1   
    36   16   35 1   
    37   17   20 2   
    38   18   36 1   
    39   21   22 ar  
    40   21   37 1   
    41   22   38 1   
@<TRIPOS>SUBSTRUCTURE
     1 0LL         1 TEMP              0 ****  ****    0 ROOT
