@<TRIPOS>MOLECULE
0LL
   39    33     1     0     0
SMALL
bcc


@<TRIPOS>ATOM
      1 C13        -1.4700    0.9520    0.1830 c1        1 0LL      0.293000
      2 C15        -3.5230    2.1880    0.7300 c1        1 0LL      0.099000
      3 C20        -6.2550    2.3470    1.1710 c1        1 0LL     -0.125000
      4 C21        -5.3710    2.5570    2.2180 c1        1 0LL      0.127000
      5 C22        -4.0050    2.4770    1.9970 c1        1 0LL     -0.212000
      6 C01         3.4440   -2.9260    1.9960 c1        1 0LL     -0.126000
      7 C02         2.7510   -1.7940    1.5560 c1        1 0LL     -0.105000
      8 C03         2.7020   -1.4920    0.2020 c1        1 0LL     -0.109000
      9 C04         3.3590   -2.3390   -0.7400 c1        1 0LL     -0.058000
     10 C05         4.0460   -3.4630   -0.3010 c1        1 0LL     -0.122000
     11 C06         4.0940   -3.7640    1.0650 c1        1 0LL     -0.126000
     12 C07         2.0780   -0.3080   -0.5730 c3        1 0LL      0.060000
     13 C08         2.3710   -0.4960   -2.0050 c3        1 0LL     -0.031000
     14 C09         3.1570   -1.7350   -2.1490 c2        1 0LL     -0.126000
     15 N10         3.1400    0.6350   -2.5020 n3        1 0LL     -0.359000
     16 N11         0.6790   -0.2870   -0.3690 n3        1 0LL     -0.338000
     17 C12         0.0250    0.9330   -0.0570 c1        1 0LL      0.285000
     18 N14        -2.1240    2.1730    0.4900 n2        1 0LL     -0.296000
     19 O16        -2.1070   -0.0810    0.1250 o         1 0LL     -0.339000
     20 O17         0.6670    1.9600    0.0350 o         1 0LL     -0.372000
     21 C18        -4.4070    1.9780   -0.3160 c2        1 0LL     -0.162000
     22 C19        -5.7740    2.0570   -0.0960 c1        1 0LL     -0.079000
     23 CL         -7.9740    2.4590    1.4460 cl        1 0LL      0.014000
     24 F24        -5.8360    2.8510    3.4390 f         1 0LL     -0.089000
     25 H1         -3.3820    2.6250    2.7340 ha        1 0LL      0.156000
     26 H2          3.4780   -3.1380    2.9490 ha        1 0LL      0.134500
     27 H3          2.3020   -1.2150    2.2010 ha        1 0LL      0.138000
     28 H4          4.4960   -4.0420   -0.9440 ha        1 0LL      0.138000
     29 H5          4.5770   -4.5540    1.3730 ha        1 0LL      0.134500
     30 H6          2.4700    0.5320   -0.2630 h1        1 0LL      0.139000
     31 H7          1.5360   -0.5730   -2.5050 h1        1 0LL      0.059000
     32 H8          4.0260   -1.5310   -2.5490 ha        1 0LL      0.107000
     33 H9          2.6730   -2.3690   -2.7150 ha        1 0LL      0.107000
     34 H10         2.5990    1.3720   -2.5540 hn        1 0LL      0.164000
     35 H11         3.4700    0.4380   -3.3330 hn        1 0LL      0.164000
     36 H13         0.1980   -1.0600   -0.4300 hn        1 0LL      0.255000
     37 H14        -1.6450    2.9480    0.5350 hn        1 0LL      0.262000
     38 H15        -4.0680    1.7740   -1.2090 ha        1 0LL      0.180000
     39 H16        -6.3970    1.9090   -0.8330 ha        1 0LL      0.156000
@<TRIPOS>BOND
     1    1   18 1   
     2    1   19 1   
     3    2    5 1   
     4    2   21 1   
     5    3    4 1   
     6    3   23 1   
     7    4   24 1   
     8    5   25 1   
     9    6   11 1   
    10    6   26 1   
    11    7    8 1   
    12    7   27 1   
    13    8   12 1   
    14    9   10 1   
    15   10   28 1   
    16   11   29 1   
    17   12   13 1   
    18   12   16 1   
    19   12   30 1   
    20   13   14 1   
    21   13   15 1   
    22   13   31 1   
    23   14   32 1   
    24   14   33 1   
    25   15   34 1   
    26   15   35 1   
    27   16   17 1   
    28   16   36 1   
    29   17   20 1   
    30   18   37 1   
    31   21   22 1   
    32   21   38 1   
    33   22   39 1   
@<TRIPOS>SUBSTRUCTURE
     1 0LL         1 TEMP              0 ****  ****    0 ROOT
