@<TRIPOS>MOLECULE
0LL
   41    43     1     0     0
SMALL
bcc


@<TRIPOS>ATOM
      1 C13        -0.1740   -0.2210   -0.0290 c         1 0LL      0.622100
      2 C15        -2.3120    0.7030    0.7680 ca        1 0LL      0.007600
      3 C20        -4.9660    0.6140    1.7110 ca        1 0LL     -0.000600
      4 C21        -4.3380   -0.5580    1.2290 ca        1 0LL      0.167900
      5 C22        -3.0110   -0.5130    0.7570 ca        1 0LL     -0.162000
      6 C01         4.8960   -4.3370   -1.3440 ca        1 0LL     -0.097000
      7 C02         4.1090   -3.3000   -0.8270 ca        1 0LL     -0.074000
      8 C03         4.2550   -2.0290   -1.3690 ca        1 0LL     -0.216300
      9 C04         5.1830   -1.7800   -2.4030 ca        1 0LL     -0.083300
     10 C05         5.9610   -2.8080   -2.9120 ca        1 0LL     -0.082000
     11 C06         5.8060   -4.0960   -2.3730 ca        1 0LL     -0.052000
     12 C07         3.5470   -0.7770   -0.9570 c3        1 0LL      0.190800
     13 C08         4.1490    0.3450   -1.8920 c3        1 0LL      0.111500
     14 C09         5.1990   -0.3480   -2.8030 c3        1 0LL     -0.053100
     15 N10         4.7340    1.4680   -1.0950 nz        1 0LL     -0.841600
     16 N11         2.0570   -0.9230   -1.1070 ny        1 0LL     -0.682800
     17 C12         1.2630    0.1960   -0.4880 c         1 0LL      0.461100
     18 N14        -0.9750    0.8190    0.2890 ns        1 0LL     -0.365100
     19 O16        -0.3930   -1.4420   -0.0290 o         1 0LL     -0.540100
     20 O17         1.8190    1.2800   -0.3770 o         1 0LL     -0.479100
     21 C18        -2.9380    1.8740    1.2510 ca        1 0LL     -0.142000
     22 C19        -4.2460    1.8160    1.7110 ca        1 0LL     -0.075000
     23 Cl         -6.5490    0.5960    2.2820 cl        1 0LL      0.011600
     24 F24        -4.9830   -1.7430    1.2060 f         1 0LL     -0.093900
     25 H1         -2.5620   -1.4520    0.3930 ha        1 0LL      0.182000
     26 H4          6.6890   -2.6280   -3.7200 ha        1 0LL      0.179000
     27 H5          6.4180   -4.9260   -2.7710 ha        1 0LL      0.187000
     28 H6          3.7260   -0.5580    0.1390 hx        1 0LL      0.119700
     29 H7          3.3460    0.8120   -2.5390 hx        1 0LL      0.119700
     30 H8          4.9000   -0.2220   -3.8790 hc        1 0LL      0.111200
     31 H9          6.2290    0.0850   -2.6910 hc        1 0LL      0.111200
     32 H10         4.0030    1.9200   -0.5270 hn        1 0LL      0.479800
     33 H11         5.1400    2.1640   -1.7360 hn        1 0LL      0.479800
     34 H13         1.8030   -1.0050   -2.1030 hn        1 0LL      0.496800
     35 H14        -0.6070    1.7510    0.2600 hn        1 0LL      0.355500
     36 H15        -2.4110    2.8410    1.2700 ha        1 0LL      0.151000
     37 H16        -4.7290    2.7370    2.0860 ha        1 0LL      0.183000
     38 H2          4.7940   -5.3550   -0.9260 ha        1 0LL      0.185000
     39 H103        5.4790    1.1230   -0.4770 hn        1 0LL      0.479800
     40 H112        1.7660   -1.8130   -0.6520 hn        1 0LL      0.496800
     41 H3          3.4070   -3.5030   -0.0030 ha        1 0LL      0.153000
@<TRIPOS>BOND
     1    1   17 1   
     2    1   18 1   
     3    1   19 2   
     4    2    5 ar  
     5    2   18 1   
     6    2   21 ar  
     7    3    4 ar  
     8    3   22 ar  
     9    3   23 1   
    10    4    5 ar  
    11    4   24 1   
    12    5   25 1   
    13    6    7 ar  
    14    6   11 ar  
    15    6   38 1   
    16    7    8 ar  
    17    7   41 1   
    18    8    9 ar  
    19    8   12 1   
    20    9   10 ar  
    21    9   14 1   
    22   10   11 ar  
    23   10   26 1   
    24   11   27 1   
    25   12   13 1   
    26   12   16 1   
    27   12   28 1   
    28   13   14 1   
    29   13   15 1   
    30   13   29 1   
    31   14   30 1   
    32   14   31 1   
    33   15   32 1   
    34   15   33 1   
    35   15   39 1   
    36   16   17 1   
    37   16   34 1   
    38   16   40 1   
    39   17   20 2   
    40   18   35 1   
    41   21   22 ar  
    42   21   36 1   
    43   22   37 1   
@<TRIPOS>SUBSTRUCTURE
     1 0LL         1 TEMP              0 ****  ****    0 ROOT
