@<TRIPOS>MOLECULE
0LM
   51    51     1     0     0
SMALL
bcc


@<TRIPOS>ATOM
      1 C10         0.4540    3.1070    0.8910 c2        1 0LM      0.293000
      2 C13        -1.8960    2.9050    0.5710 c3        1 0LM     -0.025000
      3 C15        -2.7350   -1.2910    1.2550 c3        1 0LM      0.042000
      4 C17        -3.6610    1.1710    1.3780 c3        1 0LM      0.037000
      5 C20        -4.2460    0.9920   -0.0280 c3        1 0LM     -0.235500
      6 C21        -4.1010   -1.9020    1.5950 c3        1 0LM     -0.241667
      7 C22        -2.4820   -1.3990   -0.2570 c3        1 0LM     -0.241667
      8 C01         4.6150   -1.3990    0.0550 c2        1 0LM     -0.104000
      9 C02         3.7180   -2.1000    0.7530 c2        1 0LM     -0.153000
     10 C03         2.4000   -2.4960    0.2260 c2        1 0LM      0.177000
     11 C04         1.3780   -1.6350   -0.0170 c2        1 0LM     -0.200000
     12 C05         1.4780   -0.2070    0.1450 c2        1 0LM     -0.116000
     13 C06         2.7100    0.6140   -0.2260 c1        1 0LM      0.072000
     14 N07         0.5120    0.5980    0.5950 n2        1 0LM     -0.137000
     15 C08         1.0220    1.8990    0.5460 c2        1 0LM     -0.246000
     16 O09         2.3830    1.8630    0.0320 os        1 0LM     -0.081000
     17 N11         1.0310    4.3240    0.7430 n8        1 0LM     -0.332000
     18 O12        -0.8040    3.1120    1.4930 os        1 0LM     -0.264000
     19 C14        -1.6910   -2.1940    1.9460 c3        1 0LM     -0.241667
     20 N16        -2.6210    0.1400    1.7320 n3        1 0LM     -0.049000
     21 C18        -3.1100    2.6220    1.4360 c3        1 0LM     -0.196000
     22 C19        -4.8110    1.1230    2.4030 c3        1 0LM     -0.235500
     23 C23        -1.6430    0.4780    2.5190 c2        1 0LM      0.062000
     24 H1         -2.0330    3.8540   -0.0130 h1        1 0LM      0.112500
     25 H2         -4.9310    1.8530   -0.2340 hc        1 0LM      0.109000
     26 H3         -3.4450    0.9870   -0.8050 hc        1 0LM      0.109000
     27 H4         -4.8540    0.0610   -0.1160 hc        1 0LM      0.109000
     28 H5         -4.9440   -1.4020    1.0650 hc        1 0LM      0.109667
     29 H6         -4.0880   -2.9720    1.2660 hc        1 0LM      0.109667
     30 H7         -4.2900   -1.8750    2.6950 hc        1 0LM      0.109667
     31 H8         -3.4200   -1.2460   -0.8410 hc        1 0LM      0.109667
     32 H9         -2.1120   -2.4320   -0.4830 hc        1 0LM      0.109667
     33 H10        -1.7060   -0.6750   -0.6040 hc        1 0LM      0.109667
     34 H11         4.4190   -1.0660   -0.9760 ha        1 0LM      0.151500
     35 H12         0.4130   -2.0260   -0.3870 ha        1 0LM      0.146000
     36 H13         5.5900   -1.1070    0.4730 ha        1 0LM      0.151500
     37 H14        -1.6560    2.0660   -0.1320 h1        1 0LM      0.112500
     38 H15         1.9870    4.3690    0.4690 hn        1 0LM      0.262000
     39 H16        -1.8740   -3.2490    1.6200 hc        1 0LM      0.109667
     40 H17        -1.7900   -2.1660    3.0580 hc        1 0LM      0.109667
     41 H19        -2.9010    2.9200    2.5000 hc        1 0LM      0.130000
     42 H20        -0.6500   -1.9240    1.6400 hc        1 0LM      0.109667
     43 H21        -4.4330    1.3040    3.4380 hc        1 0LM      0.109000
     44 H22        -3.9480    3.2890    1.0900 hc        1 0LM      0.130000
     45 H23        -5.5440    1.9280    2.1470 hc        1 0LM      0.109000
     46 H24        -1.5230    1.5160    2.9020 h4        1 0LM      0.200500
     47 H25        -5.3480    0.1460    2.3790 hc        1 0LM      0.109000
     48 H26        -0.8510   -0.2310    2.8430 h4        1 0LM      0.200500
     49 Cl          4.0170   -2.6120    2.3520 cl        1 0LM     -0.004000
     50 H112        0.6030    5.1230    1.1470 hn        1 0LM      0.262000
     51 F25         2.2160   -3.8210    0.0170 f         1 0LM     -0.083000
@<TRIPOS>BOND
     1    1   15 1   
     2    1   17 1   
     3    1   18 1   
     4    2   18 1   
     5    2   21 1   
     6    2   24 1   
     7    2   37 1   
     8    3    6 1   
     9    3    7 1   
    10    3   19 1   
    11    3   20 1   
    12    4    5 1   
    13    4   20 1   
    14    4   21 1   
    15    4   22 1   
    16    5   25 1   
    17    5   26 1   
    18    5   27 1   
    19    6   28 1   
    20    6   29 1   
    21    6   30 1   
    22    7   31 1   
    23    7   32 1   
    24    7   33 1   
    25    8    9 1   
    26    8   34 1   
    27    8   36 1   
    28    9   10 1   
    29    9   49 1   
    30   10   11 1   
    31   10   51 1   
    32   11   12 1   
    33   11   35 1   
    34   12   13 1   
    35   12   14 1   
    36   13   16 1   
    37   14   15 1   
    38   15   16 1   
    39   17   38 1   
    40   17   50 1   
    41   19   39 1   
    42   19   40 1   
    43   19   42 1   
    44   20   23 1   
    45   21   41 1   
    46   21   44 1   
    47   22   43 1   
    48   22   45 1   
    49   22   47 1   
    50   23   46 1   
    51   23   48 1   
@<TRIPOS>SUBSTRUCTURE
     1 0LM         1 TEMP              0 ****  ****    0 ROOT
