@<TRIPOS>MOLECULE
0LM
   52    53     1     0     0
SMALL
bcc


@<TRIPOS>ATOM
      1 C10         0.3290   -0.0060    0.2090 c         1 0LM      0.470100
      2 C13        -1.8720   -0.0040    1.4500 c3        1 0LM      0.163500
      3 C15        -3.9720   -0.5170    2.7680 c3        1 0LM      0.258200
      4 C17        -4.0500    1.1900    0.9470 c3        1 0LM      0.258200
      5 C20        -4.4280    0.3540   -0.2930 c3        1 0LM     -0.108100
      6 C21        -4.3670   -0.7600    4.2420 c3        1 0LM     -0.108100
      7 C22        -4.3240   -1.8220    2.0280 c3        1 0LM     -0.108100
      8 C01         5.6490    0.3160   -0.6650 ca        1 0LM     -0.085000
      9 C02         5.7400   -1.0740   -0.8220 ca        1 0LM      0.042400
     10 C03         4.5690   -1.8060   -1.1690 ca        1 0LM      0.173900
     11 C04         3.3470   -1.1380   -1.3550 ca        1 0LM     -0.155000
     12 C05         3.2990    0.2560   -1.1890 ca        1 0LM     -0.089400
     13 C06         4.4450    0.9910   -0.8420 ca        1 0LM     -0.087000
     14 N07         2.0340    0.9610   -1.4530 n4        1 0LM     -0.503200
     15 C08         1.2420    1.1550   -0.2020 c         1 0LM      0.451100
     16 O09         1.3420    2.1920    0.4340 o         1 0LM     -0.337100
     17 N11        -0.3200    0.1100    1.5270 n4        1 0LM     -0.675800
     18 O12         0.1320   -0.9670   -0.5200 o         1 0LM     -0.347100
     19 C14        -2.4060   -0.3920    2.8150 c3        1 0LM     -0.153900
     20 N16        -4.6200    0.6460    2.1730 n3        1 0LM     -0.768600
     21 C18        -2.4820    1.3010    0.9910 c3        1 0LM     -0.153900
     22 C19        -4.5160    2.6300    0.6350 c3        1 0LM     -0.108100
     23 C23        -5.2230    1.5880    3.0820 c3        1 0LM      0.170100
     24 H1         -2.0610   -0.8330    0.7020 hx        1 0LM      0.125700
     25 H2         -3.8150   -0.5710   -0.3840 hc        1 0LM      0.059033
     26 H3         -4.2710    0.9640   -1.2160 hc        1 0LM      0.059033
     27 H4         -5.5060    0.0610   -0.2470 hc        1 0LM      0.059033
     28 H5         -4.1250    0.1190    4.8860 hc        1 0LM      0.059033
     29 H6         -5.4590   -0.9850    4.3160 hc        1 0LM      0.059033
     30 H7         -3.8050   -1.6450    4.6300 hc        1 0LM      0.059033
     31 H8         -3.9850   -2.6960    2.6370 hc        1 0LM      0.059033
     32 H9         -3.8420   -1.8890    1.0270 hc        1 0LM      0.059033
     33 H10        -5.4310   -1.8960    1.8920 hc        1 0LM      0.059033
     34 H11         6.5560    0.8950   -0.4020 ha        1 0LM      0.207000
     35 H12         2.4630   -1.7320   -1.6470 ha        1 0LM      0.180000
     36 H13         4.4220    2.0880   -0.7180 ha        1 0LM      0.177000
     37 H14         1.4810    0.4140   -2.1350 hn        1 0LM      0.498800
     38 H15         0.0130   -0.6610    2.1300 hn        1 0LM      0.482800
     39 H16        -2.1410    0.3820    3.5820 hc        1 0LM      0.070200
     40 H17        -2.0010   -1.3840    3.1440 hc        1 0LM      0.070200
     41 H19        -2.2150    2.1360    1.6910 hc        1 0LM      0.070200
     42 H20        -2.1360    1.5680   -0.0400 hc        1 0LM      0.070200
     43 H21        -4.2690    3.3340    1.4650 hc        1 0LM      0.059033
     44 H22        -4.0050    2.9880   -0.2920 hc        1 0LM      0.059033
     45 H23        -5.6180    2.6460    0.4500 hc        1 0LM      0.059033
     46 H24        -5.8600    1.0440    3.8300 h1        1 0LM      0.053033
     47 H25        -5.9210    2.2670    2.5220 h1        1 0LM      0.053033
     48 H26        -4.4640    2.2110    3.6290 h1        1 0LM      0.053033
     49 CL          7.2130   -1.8380   -0.6060 cl        1 0LM      0.071600
     50 H072        2.2540    1.8900   -1.8570 hn        1 0LM      0.498800
     51 H112       -0.0800    1.0070    1.9730 hn        1 0LM      0.482800
     52 F25         4.6010   -3.1420   -1.3290 f         1 0LM     -0.069900
@<TRIPOS>BOND
     1    1   15 1   
     2    1   17 1   
     3    1   18 2   
     4    2   17 1   
     5    2   19 1   
     6    2   21 1   
     7    2   24 1   
     8    3    6 1   
     9    3    7 1   
    10    3   19 1   
    11    3   20 1   
    12    4    5 1   
    13    4   20 1   
    14    4   21 1   
    15    4   22 1   
    16    5   25 1   
    17    5   26 1   
    18    5   27 1   
    19    6   28 1   
    20    6   29 1   
    21    6   30 1   
    22    7   31 1   
    23    7   32 1   
    24    7   33 1   
    25    8    9 ar  
    26    8   13 ar  
    27    8   34 1   
    28    9   10 ar  
    29    9   49 1   
    30   10   11 ar  
    31   10   52 1   
    32   11   12 ar  
    33   11   35 1   
    34   12   13 ar  
    35   12   14 1   
    36   13   36 1   
    37   14   15 1   
    38   14   37 1   
    39   14   50 1   
    40   15   16 2   
    41   17   38 1   
    42   17   51 1   
    43   19   39 1   
    44   19   40 1   
    45   20   23 1   
    46   21   41 1   
    47   21   42 1   
    48   22   43 1   
    49   22   44 1   
    50   22   45 1   
    51   23   46 1   
    52   23   47 1   
    53   23   48 1   
@<TRIPOS>SUBSTRUCTURE
     1 0LM         1 TEMP              0 ****  ****    0 ROOT
