@<TRIPOS>MOLECULE
0LM
   50    51     1     0     0
SMALL
bcc


@<TRIPOS>ATOM
      1 C10         0.4060   -0.2880   -0.4530 c         1 0LM      0.595100
      2 C13         2.8340   -0.0950   -0.0130 c3        1 0LM      0.101700
      3 C15         5.0370    1.0770   -0.5790 c3        1 0LM      0.213200
      4 C17         5.0870   -1.0900    0.6530 c3        1 0LM      0.213200
      5 C20         5.1840   -2.0930   -0.5140 c3        1 0LM     -0.093350
      6 C21         5.6090    2.5140   -0.5790 c3        1 0LM     -0.093350
      7 C22         5.1360    0.6000   -2.0450 c3        1 0LM     -0.093350
      8 C01        -5.6820   -0.9250   -1.1380 ca        1 0LM     -0.077000
      9 C02        -6.2170   -0.2600   -0.0300 ca        1 0LM     -0.050600
     10 C03        -5.3390    0.3360    0.8980 ca        1 0LM      0.161900
     11 C04        -3.9460    0.2610    0.7120 ca        1 0LM     -0.192000
     12 C05        -3.4180   -0.4100   -0.4040 ca        1 0LM      0.093600
     13 C06        -4.3120   -1.0050   -1.3320 ca        1 0LM     -0.184000
     14 N07        -2.0410   -0.5280   -0.6450 n         1 0LM     -0.443100
     15 C08        -1.0130    0.0160    0.0940 c         1 0LM      0.596100
     16 O09        -1.1610    0.6980    1.1230 o         1 0LM     -0.580100
     17 N11         1.4410    0.0780    0.3580 n         1 0LM     -0.534900
     18 O12         0.5520   -0.8420   -1.5620 o         1 0LM     -0.608100
     19 C14         3.5450    1.2480   -0.2090 c3        1 0LM     -0.117400
     20 N16         5.7820    0.1710    0.3200 n3        1 0LM     -0.733600
     21 C18         3.6000   -0.9060    1.0360 c3        1 0LM     -0.117400
     22 C19         5.7210   -1.8230    1.8570 c3        1 0LM     -0.093350
     23 C23         6.3800    0.8300    1.4580 c3        1 0LM      0.162100
     24 F25        -5.8090    0.9900    1.9850 f         1 0LM     -0.121900
     25 H1          2.8450   -0.6650   -0.9930 h1        1 0LM      0.093700
     26 H2          6.2440   -2.1990   -0.8470 hc        1 0LM      0.041367
     27 H3          4.8140   -3.0900   -0.1710 hc        1 0LM      0.041367
     28 H4          4.5660   -1.7820   -1.3870 hc        1 0LM      0.041367
     29 H5          5.5070    2.9970    0.4220 hc        1 0LM      0.041367
     30 H6          6.6820    2.5100   -0.8850 hc        1 0LM      0.041367
     31 H7          5.0350    3.1310   -1.3120 hc        1 0LM      0.041367
     32 H8          5.0940    1.4800   -2.7320 hc        1 0LM      0.041367
     33 H9          6.0930    0.0570   -2.2290 hc        1 0LM      0.041367
     34 H10         4.2860   -0.0700   -2.3140 hc        1 0LM      0.041367
     35 H11        -6.3610   -1.3940   -1.8700 ha        1 0LM      0.154000
     36 H12        -3.2940    0.7410    1.4610 ha        1 0LM      0.191000
     37 H13        -3.9280   -1.5370   -2.2160 ha        1 0LM      0.145000
     38 H14        -1.7790   -1.0320   -1.4710 hn        1 0LM      0.349500
     39 H15         1.2420    0.5520    1.2100 hn        1 0LM      0.334500
     40 H16         3.0460    1.8270   -1.0290 hc        1 0LM      0.050950
     41 H17         3.4730    1.8530    0.7340 hc        1 0LM      0.050950
     42 H19         3.5430   -0.3900    2.0300 hc        1 0LM      0.050950
     43 H20         3.1370   -1.9200    1.1480 hc        1 0LM      0.050950
     44 H21         5.6090   -1.2350    2.7990 hc        1 0LM      0.041367
     45 H22         5.1980   -2.8000    2.0000 hc        1 0LM      0.041367
     46 H23         6.8020   -2.0270    1.6710 hc        1 0LM      0.041367
     47 H24         7.0590    0.1180    1.9970 h1        1 0LM      0.031367
     48 H25         7.0370    1.6690    1.1080 h1        1 0LM      0.031367
     49 H26         5.6280    1.2360    2.1880 h1        1 0LM      0.031367
     50 CL         -7.9000   -0.1900    0.1610 cl        1 0LM     -0.066400
@<TRIPOS>BOND
     1    1   15 1   
     2    1   17 1   
     3    1   18 2   
     4    2   17 1   
     5    2   19 1   
     6    2   21 1   
     7    2   25 1   
     8    3    6 1   
     9    3    7 1   
    10    3   19 1   
    11    3   20 1   
    12    4    5 1   
    13    4   20 1   
    14    4   21 1   
    15    4   22 1   
    16    5   26 1   
    17    5   27 1   
    18    5   28 1   
    19    6   29 1   
    20    6   30 1   
    21    6   31 1   
    22    7   32 1   
    23    7   33 1   
    24    7   34 1   
    25    8    9 ar  
    26    8   13 ar  
    27    8   35 1   
    28    9   10 ar  
    29    9   50 1   
    30   10   11 ar  
    31   10   24 1   
    32   11   12 ar  
    33   11   36 1   
    34   12   13 ar  
    35   12   14 1   
    36   13   37 1   
    37   14   15 1   
    38   14   38 1   
    39   15   16 2   
    40   17   39 1   
    41   19   40 1   
    42   19   41 1   
    43   20   23 1   
    44   21   42 1   
    45   21   43 1   
    46   22   44 1   
    47   22   45 1   
    48   22   46 1   
    49   23   47 1   
    50   23   48 1   
    51   23   49 1   
@<TRIPOS>SUBSTRUCTURE
     1 0LM         1 TEMP              0 ****  ****    0 ROOT
