@<TRIPOS>MOLECULE
0LM
   50    47     1     0     0
SMALL
bcc


@<TRIPOS>ATOM
      1 C10         1.2360    0.1500   -0.9940 c1        1 0LM      0.289000
      2 C13        -0.9650   -0.1080    0.1700 c3        1 0LM      0.025000
      3 C15        -2.9040   -1.2330    1.2380 c3        1 0LM      0.055500
      4 C17        -3.0390    1.1570    0.7230 c3        1 0LM      0.055500
      5 C20        -3.6750    0.9530   -0.6340 c3        1 0LM     -0.211250
      6 C21        -3.2490   -2.2410    2.3130 c3        1 0LM     -0.211250
      7 C22        -3.5280   -1.6760   -0.0670 c3        1 0LM     -0.211250
      8 C01         6.9670   -1.1780   -1.8220 c1        1 0LM     -0.079000
      9 C02         7.6710   -0.0630   -2.2490 c1        1 0LM     -0.126000
     10 C03         6.9900    1.0870   -2.6150 c1        1 0LM      0.127000
     11 C04         5.6060    1.1220   -2.5550 c1        1 0LM     -0.213000
     12 C05         4.9020    0.0070   -2.1280 c1        1 0LM      0.102000
     13 C06         5.5830   -1.1430   -1.7610 c2        1 0LM     -0.164000
     14 N07         3.4850    0.0100   -2.1610 n2        1 0LM     -0.297000
     15 C08         2.7470    0.1760   -0.9610 c2        1 0LM      0.291000
     16 O09         3.3300    0.3150    0.0950 o         1 0LM     -0.344000
     17 N11         0.5040   -0.0190    0.2090 n2        1 0LM     -0.344000
     18 O12         0.6500    0.2210   -2.0550 o         1 0LM     -0.368000
     19 C14        -1.3990   -1.1910    1.0720 c3        1 0LM     -0.196000
     20 N16        -3.4660    0.0750    1.6150 n3        1 0LM     -0.259000
     21 C18        -1.5370    1.2090    0.5560 c3        1 0LM     -0.196000
     22 C19        -3.5130    2.4760    1.2920 c3        1 0LM     -0.211250
     23 C23        -3.0900    0.3860    2.9530 c3        1 0LM     -0.114000
     24 CL          9.4070   -0.1320   -2.3930 cl        1 0LM      0.012000
     25 F25         7.6680    2.1490   -3.0690 f         1 0LM     -0.089000
     26 H1         -1.2460   -0.3220   -0.7400 h1        1 0LM      0.134000
     27 H2         -4.5020    0.4380   -0.5330 hc        1 0LM      0.080667
     28 H3         -3.8800    1.8240   -1.0340 hc        1 0LM      0.080667
     29 H4         -3.0560    0.4650   -1.2160 hc        1 0LM      0.080667
     30 H5         -4.1590   -2.0760    2.6370 hc        1 0LM      0.080667
     31 H6         -3.1940   -3.1470    1.9410 hc        1 0LM      0.080667
     32 H7         -2.6170   -2.1550    3.0570 hc        1 0LM      0.080667
     33 H8         -2.9500   -1.4110   -0.8120 hc        1 0LM      0.080667
     34 H9         -4.4060   -1.2550   -0.1680 hc        1 0LM      0.080667
     35 H10        -3.6320   -2.6510   -0.0650 hc        1 0LM      0.080667
     36 H11         7.4470   -1.9880   -1.5640 ha        1 0LM      0.156000
     37 H12         5.1270    1.9330   -2.8130 ha        1 0LM      0.156000
     38 H13         5.0880   -1.9280   -1.4610 ha        1 0LM      0.180000
     39 H14         3.0470   -0.0910   -2.9550 hn        1 0LM      0.263000
     40 H15         0.9430   -0.0590    1.0070 hn        1 0LM      0.248000
     41 H16        -1.0970   -2.0470    0.7070 hc        1 0LM      0.090500
     42 H17        -0.9870   -1.0570    1.9490 hc        1 0LM      0.090500
     43 H19        -1.3180    1.8640   -0.1370 hc        1 0LM      0.090500
     44 H20        -1.1340    1.4940    1.4000 hc        1 0LM      0.090500
     45 H21        -3.4920    3.1610    0.5920 hc        1 0LM      0.080667
     46 H22        -4.4290    2.3780    1.6260 hc        1 0LM      0.080667
     47 H23        -2.9240    2.7450    2.0290 hc        1 0LM      0.080667
     48 H24        -3.5970    1.1680    3.2620 h1        1 0LM      0.070667
     49 H25        -2.1300    0.5860    2.9850 h1        1 0LM      0.070667
     50 H26        -3.2840   -0.3800    3.5340 h1        1 0LM      0.070667
@<TRIPOS>BOND
     1    1   15 1   
     2    1   18 1   
     3    2   17 1   
     4    2   19 1   
     5    2   21 1   
     6    2   26 1   
     7    3    6 1   
     8    3    7 1   
     9    3   19 1   
    10    3   20 1   
    11    4    5 1   
    12    4   20 1   
    13    4   21 1   
    14    4   22 1   
    15    5   27 1   
    16    5   28 1   
    17    5   29 1   
    18    6   30 1   
    19    6   31 1   
    20    6   32 1   
    21    7   33 1   
    22    7   34 1   
    23    7   35 1   
    24    8   13 1   
    25    8   36 1   
    26    9   10 1   
    27    9   24 1   
    28   10   25 1   
    29   11   12 1   
    30   11   37 1   
    31   12   13 1   
    32   13   38 1   
    33   14   15 1   
    34   14   39 1   
    35   15   16 1   
    36   17   40 1   
    37   19   41 1   
    38   19   42 1   
    39   20   23 1   
    40   21   43 1   
    41   21   44 1   
    42   22   45 1   
    43   22   46 1   
    44   22   47 1   
    45   23   48 1   
    46   23   49 1   
    47   23   50 1   
@<TRIPOS>SUBSTRUCTURE
     1 0LM         1 TEMP              0 ****  ****    0 ROOT
