@<TRIPOS>MOLECULE
0LM
   51    50     1     0     0
SMALL
bcc


@<TRIPOS>ATOM
      1 C10         1.1880   -0.4370    3.7960 c2        1 0LM      0.299000
      2 C13        -2.9460   -0.5300   -2.6890 c2        1 0LM     -0.172000
      3 C15        -3.8070    0.3740    2.6430 c3        1 0LM      0.047000
      4 C17        -2.7450    1.0370    0.4720 c2        1 0LM      0.183000
      5 C20        -2.8190    1.3000   -1.0190 c3        1 0LM     -0.150000
      6 C21        -5.2700    0.3110    3.1240 c3        1 0LM     -0.238000
      7 C22        -3.1110   -0.9210    3.0830 c3        1 0LM     -0.238000
      8 C01         1.6250    0.4750   -2.2630 c3        1 0LM     -0.174000
      9 C02         3.0710    0.2760   -2.5200 c2        1 0LM     -0.119000
     10 C03         3.9010   -0.1260   -1.5020 c2        1 0LM      0.062000
     11 C04         3.3820   -0.3730   -0.1740 c2        1 0LM     -0.032000
     12 C05         2.0360   -0.2060    0.0890 c2        1 0LM     -0.043000
     13 C06         1.1330    0.2350   -0.9240 c1        1 0LM     -0.170000
     14 N07         1.4630   -0.4700    1.3490 n         1 0LM     -0.283000
     15 C08         2.1170   -0.4110    2.5610 c2        1 0LM      0.280000
     16 O09         3.3510   -0.3620    2.6920 o         1 0LM     -0.325000
     17 N11         1.7480   -0.8010    4.9740 n         1 0LM     -0.373000
     18 O12        -0.0220   -0.1300    3.6850 o         1 0LM     -0.428000
     19 C14        -3.1560    1.5680    3.3610 c3        1 0LM     -0.238000
     20 N16        -3.7520    0.5050    1.1440 n3        1 0LM     -0.093000
     21 C18        -2.2580    0.1480   -1.7730 c2        1 0LM     -0.218000
     22 C19        -1.4280    1.4260    1.0470 c3        1 0LM     -0.286000
     23 C23        -4.9020   -0.0450    0.4410 c3        1 0LM     -0.145000
     24 H1         -2.4950   -1.3560   -3.2580 ha        1 0LM      0.130000
     25 H2         -2.1890    2.2130   -1.2300 hc        1 0LM      0.132500
     26 H3         -3.9910   -0.3090   -2.9480 ha        1 0LM      0.130000
     27 H4         -3.8640    1.5490   -1.3490 hc        1 0LM      0.132500
     28 H5         -5.8460    1.2080    2.7930 hc        1 0LM      0.107889
     29 H6         -5.7890   -0.6150    2.7790 hc        1 0LM      0.107889
     30 H7         -5.2650    0.2880    4.2430 hc        1 0LM      0.107889
     31 H8         -3.1870   -0.9940    4.1960 hc        1 0LM      0.107889
     32 H9         -3.6040   -1.8160    2.6320 hc        1 0LM      0.107889
     33 H10        -2.0270   -0.9190    2.8120 hc        1 0LM      0.107889
     34 H11         1.0200   -0.1880   -2.9580 hc        1 0LM      0.185000
     35 H12         4.1120   -0.6840    0.5990 ha        1 0LM      0.199000
     36 H13         1.3360    1.5380   -2.5390 hc        1 0LM      0.185000
     37 H14         0.4630   -0.4470    1.3660 hn        1 0LM      0.252000
     38 H15         2.7230   -0.9810    5.0330 hn        1 0LM      0.254500
     39 H16        -2.0850    1.3540    3.6070 hc        1 0LM      0.107889
     40 H17        -3.6840    1.7450    4.3320 hc        1 0LM      0.107889
     41 H19        -1.1960   -0.0760   -1.5460 ha        1 0LM      0.172000
     42 H20        -3.2220    2.5090    2.7660 hc        1 0LM      0.107889
     43 H21        -1.4300    2.5200    1.2930 hc        1 0LM      0.157000
     44 H22        -1.1540    0.8510    1.9700 hc        1 0LM      0.157000
     45 H23        -0.6280    1.2350    0.2670 hc        1 0LM      0.157000
     46 H24        -5.7720    0.6590    0.5300 h1        1 0LM      0.131333
     47 H25        -5.1650   -1.0380    0.8990 h1        1 0LM      0.131333
     48 H26        -4.6730   -0.2280   -0.6440 h1        1 0LM      0.131333
     49 CL          3.6130    0.5650   -4.0870 cl        1 0LM      0.060000
     50 H112        1.2050   -0.7960    5.8050 hn        1 0LM      0.254500
     51 F25         5.2290   -0.3170   -1.6760 f         1 0LM     -0.070000
@<TRIPOS>BOND
     1    1   15 1   
     2    1   17 1   
     3    1   18 1   
     4    2   21 1   
     5    2   24 1   
     6    2   26 1   
     7    3    6 1   
     8    3    7 1   
     9    3   19 1   
    10    3   20 1   
    11    4    5 1   
    12    4   20 1   
    13    4   22 1   
    14    5   21 1   
    15    5   25 1   
    16    5   27 1   
    17    6   28 1   
    18    6   29 1   
    19    6   30 1   
    20    7   31 1   
    21    7   32 1   
    22    7   33 1   
    23    8    9 1   
    24    8   13 1   
    25    8   34 1   
    26    8   36 1   
    27    9   10 1   
    28    9   49 1   
    29   10   11 1   
    30   10   51 1   
    31   11   12 1   
    32   11   35 1   
    33   12   13 1   
    34   12   14 1   
    35   14   15 1   
    36   14   37 1   
    37   15   16 1   
    38   17   38 1   
    39   17   50 1   
    40   19   39 1   
    41   19   40 1   
    42   19   42 1   
    43   20   23 1   
    44   21   41 1   
    45   22   43 1   
    46   22   44 1   
    47   22   45 1   
    48   23   46 1   
    49   23   47 1   
    50   23   48 1   
@<TRIPOS>SUBSTRUCTURE
     1 0LM         1 TEMP              0 ****  ****    0 ROOT
