@<TRIPOS>MOLECULE
0LN
   83    86     1     0     0
SMALL
bcc


@<TRIPOS>ATOM
      1 O36         4.6240   -2.7110   -0.1650 o         1 0LN     -0.451300
      2 C34         3.8640   -1.7740   -0.3620 c2        1 0LN      0.583300
      3 N35         2.8500   -1.5010    0.7600 n4        1 0LN     -0.597200
      4 C38         1.6770   -2.3940    0.5630 c3        1 0LN      0.081100
      5 C37         3.4810   -1.6940    2.1060 c3        1 0LN      0.106800
      6 C39         2.6180   -1.2270    3.2740 c3        1 0LN     -0.100400
      7 C40         3.3820   -1.4170    4.5720 c3        1 0LN     -0.104400
      8 C41         2.5100   -0.9980    5.7580 c3        1 0LN      0.127800
      9 N31         3.1420   -1.0970    7.0760 n3        1 0LN     -0.921200
     10 C42         3.1940   -2.4580    7.5890 c3        1 0LN      0.097100
     11 S30         2.1190    0.4530    8.5910 s4        1 0LN      1.687700
     12 O32         3.2560    1.2000    8.6100 o         1 0LN     -0.413400
     13 O33         1.0660    0.6790    7.7590 o         1 0LN     -0.413400
     14 N29         1.9040   -0.5110    9.7380 n3        1 0LN     -1.013500
     15 C27         8.1990   -4.9550   -4.3530 c1        1 0LN      0.743600
     16 O28         8.5220   -6.0710   -4.3200 o         1 0LN     -0.160500
     17 C1          7.8300   -3.6260   -4.4020 cc        1 0LN     -0.256100
     18 C19         3.7550   -0.9420   -1.5600 ce        1 0LN     -0.271200
     19 C20         3.9670   -1.6880   -2.8580 c3        1 0LN      0.103500
     20 N9          5.0710   -1.1890   -3.6250 na        1 0LN     -0.092100
     21 C5          6.2430   -1.8810   -3.9780 cd        1 0LN     -0.058300
     22 C6          6.5790   -3.2200   -3.8720 cc        1 0LN     -0.003000
     23 C18         3.5200    0.3910   -1.5300 ce        1 0LN      0.066000
     24 C17         3.3870    1.2560   -2.6840 ca        1 0LN     -0.067000
     25 C24         2.4460    2.2900   -2.5720 ca        1 0LN     -0.137000
     26 C23         2.1940    3.1420   -3.6650 ca        1 0LN      0.176100
     27 O25         1.2380    4.0930   -3.4410 os        1 0LN     -0.307900
     28 C26         0.9530    4.9940   -4.5170 c3        1 0LN      0.102700
     29 C22         2.9000    2.9710   -4.8670 ca        1 0LN     -0.155000
     30 C21         3.8640    1.9750   -4.9550 ca        1 0LN     -0.052000
     31 C16         4.1360    1.1190   -3.8740 ca        1 0LN     -0.064000
     32 C8          5.2130    0.1530   -4.0210 cc        1 0LN      0.072700
     33 C7          6.4850    0.3530   -4.6110 cc        1 0LN     -0.110300
     34 C4          7.1450   -0.9190   -4.6160 cd        1 0LN      0.036200
     35 C3          8.3800   -1.3630   -5.1180 cd        1 0LN     -0.078200
     36 C2          8.7220   -2.6920   -5.0160 cc        1 0LN     -0.042000
     37 C10         7.0380    1.6400   -5.0930 c3        1 0LN     -0.016400
     38 C15         8.3330    1.9960   -4.3660 c3        1 0LN     -0.068400
     39 C14         8.8770    3.3210   -4.8590 c3        1 0LN     -0.080900
     40 C13         9.0840    3.3140   -6.3590 c3        1 0LN     -0.083400
     41 C12         7.8110    2.9430   -7.0880 c3        1 0LN     -0.080900
     42 C11         7.2580    1.6180   -6.6040 c3        1 0LN     -0.068400
     43 H1          0.8940   -2.1660    1.3350 hx        1 0LN      0.111700
     44 H2          1.2470   -2.2230   -0.4610 hx        1 0LN      0.111700
     45 H3          2.0030   -3.4650    0.6620 hx        1 0LN      0.111700
     46 H4          4.4550   -1.1220    2.1000 hx        1 0LN      0.113200
     47 H5          3.7210   -2.7930    2.2140 hx        1 0LN      0.113200
     48 H6          1.6630   -1.8160    3.3160 hc        1 0LN      0.072700
     49 H7          2.3470   -0.1440    3.1540 hc        1 0LN      0.072700
     50 H8          3.6820   -2.4940    4.6800 hc        1 0LN      0.070700
     51 H9          4.3220   -0.8040    4.5510 hc        1 0LN      0.070700
     52 H10         1.5700   -1.6210    5.7630 h1        1 0LN      0.084700
     53 H11         2.2050    0.0810    5.6190 h1        1 0LN      0.084700
     54 H12         3.7600   -2.4690    8.5590 h1        1 0LN      0.075367
     55 H13         3.7090   -3.1640    6.8820 h1        1 0LN      0.075367
     56 H14         2.1520   -2.8370    7.7600 h1        1 0LN      0.075367
     57 H15         2.5570   -0.6910   10.4840 hn        1 0LN      0.522800
     58 H16         4.1300   -2.7860   -2.6600 h1        1 0LN      0.094200
     59 H17         3.0260   -1.5670   -3.4790 h1        1 0LN      0.094200
     60 H18         5.9050   -3.9570   -3.4080 ha        1 0LN      0.158000
     61 H19         3.3780    0.9180   -0.5640 ha        1 0LN      0.133000
     62 H20         1.8780    2.4470   -1.6430 ha        1 0LN      0.158000
     63 H21         0.5570    4.4340   -5.3980 h1        1 0LN      0.071033
     64 H22         1.8650    5.5800   -4.7860 h1        1 0LN      0.071033
     65 H23         0.1650    5.6600   -4.0790 h1        1 0LN      0.071033
     66 H24         2.7020    3.6220   -5.7350 ha        1 0LN      0.180000
     67 H25         4.4240    1.8480   -5.9000 ha        1 0LN      0.173000
     68 H26         9.0660   -0.6450   -5.6040 ha        1 0LN      0.195000
     69 H27         9.6880   -3.0470   -5.4160 ha        1 0LN      0.178000
     70 H28         6.2940    2.4590   -4.8630 hc        1 0LN      0.066700
     71 H29         8.1380    2.0540   -3.2640 hc        1 0LN      0.039450
     72 H30         9.0960    1.1920   -4.5330 hc        1 0LN      0.039450
     73 H31         9.8520    3.5320   -4.3450 hc        1 0LN      0.055700
     74 H32         8.1680    4.1450   -4.5820 hc        1 0LN      0.055700
     75 H33         9.8950    2.5850   -6.6230 hc        1 0LN      0.058200
     76 H34         9.4260    4.3280   -6.6940 hc        1 0LN      0.058200
     77 H35         8.0130    2.8780   -8.1900 hc        1 0LN      0.055700
     78 H36         7.0430    3.7480   -6.9360 hc        1 0LN      0.055700
     79 H37         6.2890    1.4010   -7.1240 hc        1 0LN      0.039450
     80 H38         7.9730    0.7950   -6.8670 hc        1 0LN      0.039450
     81 H351        2.5300   -0.5280    0.6860 hn        1 0LN      0.448800
     82 H311        4.0850   -0.7310    7.0140 hn        1 0LN      0.406800
     83 H292        1.0690   -1.0500    9.9050 hn        1 0LN      0.522800
@<TRIPOS>BOND
     1    1    2 1   
     2    2    3 1   
     3    2   18 2   
     4    3    4 1   
     5    3    5 1   
     6    3   81 1   
     7    4   43 1   
     8    4   44 1   
     9    4   45 1   
    10    5    6 1   
    11    5   46 1   
    12    5   47 1   
    13    6    7 1   
    14    6   48 1   
    15    6   49 1   
    16    7    8 1   
    17    7   50 1   
    18    7   51 1   
    19    8    9 1   
    20    8   52 1   
    21    8   53 1   
    22    9   10 1   
    23    9   82 1   
    24   10   54 1   
    25   10   55 1   
    26   10   56 1   
    27   11   12 1   
    28   11   13 1   
    29   11   14 1   
    30   14   57 1   
    31   14   83 1   
    32   15   16 2   
    33   15   17 2   
    34   17   22 1   
    35   17   36 1   
    36   18   19 1   
    37   18   23 1   
    38   19   20 1   
    39   19   58 1   
    40   19   59 1   
    41   20   21 1   
    42   20   32 1   
    43   21   22 2   
    44   21   34 1   
    45   22   60 1   
    46   23   24 2   
    47   23   61 1   
    48   24   25 ar  
    49   24   31 ar  
    50   25   26 ar  
    51   25   62 1   
    52   26   27 1   
    53   26   29 ar  
    54   27   28 1   
    55   28   63 1   
    56   28   64 1   
    57   28   65 1   
    58   29   30 ar  
    59   29   66 1   
    60   30   31 ar  
    61   30   67 1   
    62   31   32 2   
    63   32   33 1   
    64   33   34 2   
    65   33   37 1   
    66   34   35 1   
    67   35   36 2   
    68   35   68 1   
    69   36   69 1   
    70   37   38 1   
    71   37   42 1   
    72   37   70 1   
    73   38   39 1   
    74   38   71 1   
    75   38   72 1   
    76   39   40 1   
    77   39   73 1   
    78   39   74 1   
    79   40   41 1   
    80   40   75 1   
    81   40   76 1   
    82   41   42 1   
    83   41   77 1   
    84   41   78 1   
    85   42   79 1   
    86   42   80 1   
@<TRIPOS>SUBSTRUCTURE
     1 0LN         1 TEMP              0 ****  ****    0 ROOT
