@<TRIPOS>MOLECULE
0LN
   83    86     1     0     0
SMALL
bcc


@<TRIPOS>ATOM
      1 O36         4.7930   -2.6720   -0.1620 o         1 0LN     -0.451300
      2 C34         3.9790   -1.7790   -0.3510 c2        1 0LN      0.583300
      3 N35         2.9600   -1.5650    0.7790 nx        1 0LN     -0.597200
      4 C38         1.8310   -2.5120    0.5790 c3        1 0LN      0.081100
      5 C37         3.6070   -1.7410    2.1200 c3        1 0LN      0.106800
      6 C39         2.7270   -1.3260    3.2960 c3        1 0LN     -0.100400
      7 C40         3.4970   -1.5070    4.5920 c3        1 0LN     -0.101400
      8 C41         2.5950   -1.1730    5.7820 c3        1 0LN      0.116800
      9 N31         3.2040   -1.2950    7.1080 n7        1 0LN     -0.917200
     10 C42         3.4310   -2.6730    7.5210 c3        1 0LN      0.085100
     11 S30         1.6960   -0.2840    8.6530 s4        1 0LN      1.687700
     12 O32         1.6480    0.8670    7.9260 o         1 0LN     -0.414400
     13 O33         0.7930   -1.2960    8.5480 o         1 0LN     -0.414400
     14 N29         2.6430   -0.3140    9.8350 n8        1 0LN     -1.014500
     15 C27         8.4050   -4.7390   -4.4180 c1        1 0LN      0.743600
     16 O28         8.7830   -5.8370   -4.3940 o         1 0LN     -0.160500
     17 C1          7.9710   -3.4290   -4.4580 cc        1 0LN     -0.256100
     18 C19         3.8120   -0.9530   -1.5470 ce        1 0LN     -0.271200
     19 C20         4.0430   -1.6860   -2.8490 c3        1 0LN      0.103500
     20 N9          5.1090   -1.1320   -3.6310 na        1 0LN     -0.092100
     21 C5          6.3080   -1.7650   -4.0040 cd        1 0LN     -0.058300
     22 C6          6.7100   -3.0860   -3.9070 cc        1 0LN     -0.003000
     23 C18         3.5130    0.3660   -1.5090 ce        1 0LN      0.066000
     24 C17         3.3210    1.2260   -2.6590 ca        1 0LN     -0.067000
     25 C24         2.3320    2.2120   -2.5310 ca        1 0LN     -0.137000
     26 C23         2.0220    3.0530   -3.6180 ca        1 0LN      0.176100
     27 O25         1.0240    3.9550   -3.3780 os        1 0LN     -0.307900
     28 C26         0.6790    4.8430   -4.4480 c3        1 0LN      0.102700
     29 C22         2.7170    2.9190   -4.8310 ca        1 0LN     -0.155000
     30 C21         3.7270    1.9710   -4.9360 ca        1 0LN     -0.052000
     31 C16         4.0580    1.1280   -3.8600 ca        1 0LN     -0.064000
     32 C8          5.1780    0.2160   -4.0260 cc        1 0LN      0.072700
     33 C7          6.4300    0.4790   -4.6350 cc        1 0LN     -0.110300
     34 C4          7.1520   -0.7580   -4.6540 cd        1 0LN      0.036200
     35 C3          8.3980   -1.1410   -5.1750 cd        1 0LN     -0.079200
     36 C2          8.8060   -2.4510   -5.0820 cc        1 0LN     -0.042000
     37 C10         6.9110    1.7920   -5.1230 c3        1 0LN     -0.016400
     38 C15         8.1980    2.2100   -4.4140 c3        1 0LN     -0.068400
     39 C14         8.6690    3.5620   -4.9120 c3        1 0LN     -0.080900
     40 C13         8.8530    3.5670   -6.4150 c3        1 0LN     -0.083400
     41 C12         7.5880    3.1360   -7.1260 c3        1 0LN     -0.080900
     42 C11         7.1090    1.7840   -6.6370 c3        1 0LN     -0.068400
     43 H1          2.2060   -3.5670    0.6710 hx        1 0LN      0.112033
     44 H2          1.3910   -2.3550   -0.4430 hx        1 0LN      0.112033
     45 H3          1.0390   -2.3260    1.3540 hx        1 0LN      0.112033
     46 H4          3.8990   -2.8270    2.2170 hx        1 0LN      0.113200
     47 H5          4.5510   -1.1230    2.1170 hx        1 0LN      0.113200
     48 H6          2.4130   -0.2530    3.1920 hc        1 0LN      0.072700
     49 H7          1.7960   -1.9540    3.3280 hc        1 0LN      0.072700
     50 H8          3.8590   -2.5670    4.6710 hc        1 0LN      0.070200
     51 H9          4.3990   -0.8390    4.5950 hc        1 0LN      0.070200
     52 H10         2.2480   -0.1020    5.6790 h1        1 0LN      0.088200
     53 H11         1.6880   -1.8450    5.7530 h1        1 0LN      0.088200
     54 H12         3.9830   -2.6790    8.4990 h1        1 0LN      0.081033
     55 H13         4.0410   -3.2530    6.7770 h1        1 0LN      0.081033
     56 H14         2.4400   -3.1910    7.6450 h1        1 0LN      0.081033
     57 H15         2.7100   -1.0560   10.5140 hn        1 0LN      0.522300
     58 H16         3.0880   -1.6120   -3.4550 h1        1 0LN      0.094200
     59 H17         4.2640   -2.7750   -2.6540 h1        1 0LN      0.094200
     60 H18         6.0800   -3.8560   -3.4340 ha        1 0LN      0.158000
     61 H19         3.3580    0.8840   -0.5400 ha        1 0LN      0.133000
     62 H20         1.7710    2.3400   -1.5930 ha        1 0LN      0.158000
     63 H21        -0.1340    5.4700   -3.9960 h1        1 0LN      0.071033
     64 H22         1.5580    5.4730   -4.7290 h1        1 0LN      0.071033
     65 H23         0.2980    4.2660   -5.3230 h1        1 0LN      0.071033
     66 H24         2.4740    3.5600   -5.6940 ha        1 0LN      0.180000
     67 H25         4.2790    1.8730   -5.8890 ha        1 0LN      0.173000
     68 H26         9.0410   -0.3890   -5.6700 ha        1 0LN      0.195000
     69 H27         9.7820   -2.7580   -5.4990 ha        1 0LN      0.178000
     70 H28         6.1310    2.5740   -4.8790 hc        1 0LN      0.066700
     71 H29         8.0180    2.2570   -3.3090 hc        1 0LN      0.039450
     72 H30         8.9970    1.4450   -4.5950 hc        1 0LN      0.039450
     73 H31         7.9240    4.3490   -4.6220 hc        1 0LN      0.055700
     74 H32         9.6400    3.8200   -4.4130 hc        1 0LN      0.055700
     75 H33         9.1390    4.5980   -6.7530 hc        1 0LN      0.058200
     76 H34         9.6940    2.8800   -6.6930 hc        1 0LN      0.058200
     77 H35         7.7770    3.0820   -8.2300 hc        1 0LN      0.055700
     78 H36         6.7850    3.9010   -6.9590 hc        1 0LN      0.055700
     79 H37         6.1440    1.5200   -7.1420 hc        1 0LN      0.039450
     80 H38         7.8590    0.9980   -6.9120 hc        1 0LN      0.039450
     81 H351        2.5940   -0.6090    0.7160 hn        1 0LN      0.448800
     82 H311        4.0810   -0.7940    7.1120 hn        1 0LN      0.401800
     83 H292        3.2760    0.4230   10.1000 hn        1 0LN      0.522300
@<TRIPOS>BOND
     1    1    2 1   
     2    2    3 1   
     3    2   18 2   
     4    3    4 1   
     5    3    5 1   
     6    3   81 1   
     7    4   43 1   
     8    4   44 1   
     9    4   45 1   
    10    5    6 1   
    11    5   46 1   
    12    5   47 1   
    13    6    7 1   
    14    6   48 1   
    15    6   49 1   
    16    7    8 1   
    17    7   50 1   
    18    7   51 1   
    19    8    9 1   
    20    8   52 1   
    21    8   53 1   
    22    9   10 1   
    23    9   82 1   
    24   10   54 1   
    25   10   55 1   
    26   10   56 1   
    27   11   12 1   
    28   11   13 1   
    29   11   14 1   
    30   14   57 1   
    31   14   83 1   
    32   15   16 2   
    33   15   17 2   
    34   17   22 1   
    35   17   36 1   
    36   18   19 1   
    37   18   23 1   
    38   19   20 1   
    39   19   58 1   
    40   19   59 1   
    41   20   21 1   
    42   20   32 1   
    43   21   22 2   
    44   21   34 1   
    45   22   60 1   
    46   23   24 2   
    47   23   61 1   
    48   24   25 ar  
    49   24   31 ar  
    50   25   26 ar  
    51   25   62 1   
    52   26   27 1   
    53   26   29 ar  
    54   27   28 1   
    55   28   63 1   
    56   28   64 1   
    57   28   65 1   
    58   29   30 ar  
    59   29   66 1   
    60   30   31 ar  
    61   30   67 1   
    62   31   32 2   
    63   32   33 1   
    64   33   34 2   
    65   33   37 1   
    66   34   35 1   
    67   35   36 2   
    68   35   68 1   
    69   36   69 1   
    70   37   38 1   
    71   37   42 1   
    72   37   70 1   
    73   38   39 1   
    74   38   71 1   
    75   38   72 1   
    76   39   40 1   
    77   39   73 1   
    78   39   74 1   
    79   40   41 1   
    80   40   75 1   
    81   40   76 1   
    82   41   42 1   
    83   41   77 1   
    84   41   78 1   
    85   42   79 1   
    86   42   80 1   
@<TRIPOS>SUBSTRUCTURE
     1 0LN         1 TEMP              0 ****  ****    0 ROOT
