@<TRIPOS>MOLECULE
0LN
   83    86     1     0     0
SMALL
bcc


@<TRIPOS>ATOM
      1 O36         6.5050   -2.6520    0.1030 o         1 0LN     -0.472300
      2 C34         5.7630   -1.6730    0.1220 c2        1 0LN      0.580300
      3 N35         5.6670   -1.0750    1.5280 n4        1 0LN     -0.597200
      4 C38         6.2450    0.2890    1.5900 c3        1 0LN      0.080100
      5 C37         4.2860   -1.1500    2.1070 c3        1 0LN      0.110800
      6 C39         4.2890   -1.4550    3.6060 c3        1 0LN     -0.106400
      7 C40         2.8650   -1.5340    4.1240 c3        1 0LN     -0.100400
      8 C41         2.8820   -1.8280    5.6260 c3        1 0LN      0.116800
      9 N31         1.5770   -1.9730    6.2740 n3        1 0LN     -0.917200
     10 C42         0.8540   -0.7180    6.4150 c3        1 0LN      0.085100
     11 S30         1.9900   -2.8550    8.4590 s4        1 0LN      1.688700
     12 O32         2.7500   -3.8660    7.9550 o         1 0LN     -0.412900
     13 O33         2.4870   -1.6750    8.9170 o         1 0LN     -0.412900
     14 N29         0.5430   -3.1720    8.7730 n3        1 0LN     -1.014500
     15 C27        10.1260   -3.3130   -4.6220 c1        1 0LN      0.746600
     16 O28        10.8850   -4.1930   -4.6360 o         1 0LN     -0.154500
     17 C1          9.2350   -2.2580   -4.6190 cc        1 0LN     -0.254100
     18 C19         5.0510   -1.1130   -1.0180 ce        1 0LN     -0.256200
     19 C20         5.2830   -1.8730   -2.3110 c3        1 0LN      0.093500
     20 N9          5.9100   -1.0750   -3.3230 na        1 0LN     -0.091100
     21 C5          7.1750   -1.2660   -3.9030 cd        1 0LN     -0.059300
     22 C6          8.0530   -2.3360   -3.8390 cc        1 0LN     -0.005000
     23 C18         4.2200   -0.0430   -0.9950 ce        1 0LN      0.072000
     24 C17         3.5210    0.5190   -2.1310 ca        1 0LN     -0.071000
     25 C24         2.2460    1.0440   -1.8700 ca        1 0LN     -0.135000
     26 C23         1.4660    1.5750   -2.9140 ca        1 0LN      0.172100
     27 O25         0.2350    2.0330   -2.5350 os        1 0LN     -0.310900
     28 C26        -0.5910    2.5990   -3.5600 c3        1 0LN      0.102700
     29 C22         1.9700    1.5990   -4.2250 ca        1 0LN     -0.149000
     30 C21         3.2480    1.1150   -4.4710 ca        1 0LN     -0.055000
     31 C16         4.0460    0.5860   -3.4420 ca        1 0LN     -0.055000
     32 C8          5.3920    0.1500   -3.7820 cc        1 0LN      0.061700
     33 C7          6.3270    0.7810   -4.6380 cc        1 0LN     -0.107300
     34 C4          7.4510   -0.1030   -4.7490 cd        1 0LN      0.032200
     35 C3          8.6400   -0.0630   -5.4940 cd        1 0LN     -0.077200
     36 C2          9.5210   -1.1200   -5.4350 cc        1 0LN     -0.044000
     37 C10         6.1830    2.1140   -5.2670 c3        1 0LN     -0.017400
     38 C15         7.3140    3.0510   -4.8470 c3        1 0LN     -0.067900
     39 C14         7.1450    4.4150   -5.4850 c3        1 0LN     -0.080900
     40 C13         7.0570    4.3160   -6.9930 c3        1 0LN     -0.083400
     41 C12         5.9510    3.3740   -7.4200 c3        1 0LN     -0.080900
     42 C11         6.1130    2.0060   -6.7890 c3        1 0LN     -0.067900
     43 H1          6.1980    0.6650    2.6480 hx        1 0LN      0.110367
     44 H2          7.3200    0.2470    1.2580 hx        1 0LN      0.110367
     45 H3          5.6810    0.9910    0.9220 hx        1 0LN      0.110367
     46 H4          3.7260   -1.9630    1.5610 hx        1 0LN      0.104200
     47 H5          3.7640   -0.1680    1.9260 hx        1 0LN      0.104200
     48 H6          4.8100   -2.4310    3.8030 hc        1 0LN      0.077200
     49 H7          4.8450   -0.6520    4.1620 hc        1 0LN      0.077200
     50 H8          2.3340   -0.5650    3.9290 hc        1 0LN      0.068700
     51 H9          2.3080   -2.3430    3.5810 hc        1 0LN      0.068700
     52 H10         3.4420   -1.0010    6.1520 h1        1 0LN      0.089700
     53 H11         3.4390   -2.7990    5.7940 h1        1 0LN      0.089700
     54 H12        -0.1700   -0.9250    6.8270 h1        1 0LN      0.080700
     55 H13         1.4130   -0.0440    7.1210 h1        1 0LN      0.080700
     56 H14         0.7290   -0.1780    5.4380 h1        1 0LN      0.080700
     57 H15         0.0820   -4.0500    8.5970 hn        1 0LN      0.522800
     58 H16         4.2690   -2.1980   -2.6980 h1        1 0LN      0.101700
     59 H17         5.9070   -2.7950   -2.1320 h1        1 0LN      0.101700
     60 H18         7.8480   -3.2250   -3.2220 ha        1 0LN      0.162000
     61 H19         3.9710    0.4570   -0.0380 ha        1 0LN      0.128000
     62 H20         1.8260    1.0360   -0.8530 ha        1 0LN      0.155000
     63 H21        -0.0920    3.4890   -4.0130 h1        1 0LN      0.070700
     64 H22        -1.5120    2.9000   -2.9970 h1        1 0LN      0.070700
     65 H23        -0.8300    1.8300   -4.3340 h1        1 0LN      0.070700
     66 H24         1.3650    2.0010   -5.0550 ha        1 0LN      0.181000
     67 H25         3.6440    1.1390   -5.5040 ha        1 0LN      0.174000
     68 H26         8.8580    0.8090   -6.1370 ha        1 0LN      0.195000
     69 H27        10.4530   -1.0970   -6.0260 ha        1 0LN      0.179000
     70 H28         5.2180    2.5790   -4.9070 hc        1 0LN      0.065700
     71 H29         8.3010    2.6150   -5.1510 hc        1 0LN      0.039200
     72 H30         7.3190    3.1550   -3.7310 hc        1 0LN      0.039200
     73 H31         6.2170    4.9040   -5.0860 hc        1 0LN      0.055700
     74 H32         8.0150    5.0650   -5.2000 hc        1 0LN      0.055700
     75 H33         8.0370    3.9570   -7.4040 hc        1 0LN      0.058200
     76 H34         6.8680    5.3350   -7.4240 hc        1 0LN      0.058200
     77 H35         4.9580    3.8070   -7.1300 hc        1 0LN      0.055700
     78 H36         5.9580    3.2680   -8.5370 hc        1 0LN      0.055700
     79 H37         5.2510    1.3510   -7.0810 hc        1 0LN      0.039200
     80 H38         7.0480    1.5230   -7.1740 hc        1 0LN      0.039200
     81 H351        6.2720   -1.6810    2.1180 hn        1 0LN      0.465800
     82 H311        1.0190   -2.6260    5.7420 hn        1 0LN      0.400800
     83 H292       -0.1050   -2.5540    9.2360 hn        1 0LN      0.522800
@<TRIPOS>BOND
     1    1    2 1   
     2    2    3 1   
     3    2   18 2   
     4    3    4 1   
     5    3    5 1   
     6    3   81 1   
     7    4   43 1   
     8    4   44 1   
     9    4   45 1   
    10    5    6 1   
    11    5   46 1   
    12    5   47 1   
    13    6    7 1   
    14    6   48 1   
    15    6   49 1   
    16    7    8 1   
    17    7   50 1   
    18    7   51 1   
    19    8    9 1   
    20    8   52 1   
    21    8   53 1   
    22    9   10 1   
    23    9   82 1   
    24   10   54 1   
    25   10   55 1   
    26   10   56 1   
    27   11   12 1   
    28   11   13 1   
    29   11   14 1   
    30   14   57 1   
    31   14   83 1   
    32   15   16 2   
    33   15   17 2   
    34   17   22 1   
    35   17   36 1   
    36   18   19 1   
    37   18   23 1   
    38   19   20 1   
    39   19   58 1   
    40   19   59 1   
    41   20   21 1   
    42   20   32 1   
    43   21   22 2   
    44   21   34 1   
    45   22   60 1   
    46   23   24 2   
    47   23   61 1   
    48   24   25 ar  
    49   24   31 ar  
    50   25   26 ar  
    51   25   62 1   
    52   26   27 1   
    53   26   29 ar  
    54   27   28 1   
    55   28   63 1   
    56   28   64 1   
    57   28   65 1   
    58   29   30 ar  
    59   29   66 1   
    60   30   31 ar  
    61   30   67 1   
    62   31   32 2   
    63   32   33 1   
    64   33   34 2   
    65   33   37 1   
    66   34   35 1   
    67   35   36 2   
    68   35   68 1   
    69   36   69 1   
    70   37   38 1   
    71   37   42 1   
    72   37   70 1   
    73   38   39 1   
    74   38   71 1   
    75   38   72 1   
    76   39   40 1   
    77   39   73 1   
    78   39   74 1   
    79   40   41 1   
    80   40   75 1   
    81   40   76 1   
    82   41   42 1   
    83   41   77 1   
    84   41   78 1   
    85   42   79 1   
    86   42   80 1   
@<TRIPOS>SUBSTRUCTURE
     1 0LN         1 TEMP              0 ****  ****    0 ROOT
