@<TRIPOS>MOLECULE
0LO
   23    24     1     0     0
SMALL
bcc


@<TRIPOS>ATOM
      1 CAF        -0.0180   -0.3810    0.0680 ca        1 0LO     -0.128500
      2 CAD         1.3740   -0.4320    0.0590 ca        1 0LO     -0.135500
      3 CAC         2.0980   -0.0620    1.1910 ca        1 0LO     -0.151000
      4 CAE         1.4220    0.3590    2.3360 ca        1 0LO     -0.135500
      5 CAG         0.0300    0.4130    2.3500 ca        1 0LO     -0.128500
      6 CAN        -0.7080    0.0450    1.2130 cp        1 0LO      0.007000
      7 CAO        -2.1630    0.1060    1.2280 cp        1 0LO     -0.203300
      8 CAJ        -2.9000   -0.1830    2.3890 ca        1 0LO     -0.062000
      9 CAI        -2.8850    0.4680    0.0680 ca        1 0LO      0.379200
     10 NAK        -4.2270    0.5470    0.0140 nb        1 0LO     -0.707000
     11 CAH        -4.9090    0.2640    1.1410 ca        1 0LO      0.413200
     12 CAM        -4.2930   -0.1040    2.3560 ca        1 0LO     -0.235900
     13 CAL        -5.1280   -0.4000    3.5910 c         1 0LO      0.913200
     14 OAB        -6.3840   -0.3440    3.4770 o         1 0LO     -0.825300
     15 OAA        -4.5150   -0.6830    4.6580 o         1 0LO     -0.825300
     16 H1         -0.5840   -0.6850   -0.8250 ha        1 0LO      0.139500
     17 H2          1.9020   -0.7690   -0.8440 ha        1 0LO      0.119000
     18 H3          3.1960   -0.1040    1.1830 ha        1 0LO      0.116000
     19 H4          1.9880    0.6490    3.2330 ha        1 0LO      0.119000
     20 H5         -0.5010    0.7460    3.2550 ha        1 0LO      0.139500
     21 H6         -2.4090   -0.4790    3.3290 ha        1 0LO      0.159000
     22 H7         -2.3520    0.7170   -0.8660 h4        1 0LO     -0.005900
     23 H8         -6.0130    0.3280    1.0970 h4        1 0LO      0.040100
@<TRIPOS>BOND
     1    1    2 ar  
     2    1    6 ar  
     3    1   16 1   
     4    2    3 ar  
     5    2   17 1   
     6    3    4 ar  
     7    3   18 1   
     8    4    5 ar  
     9    4   19 1   
    10    5    6 ar  
    11    5   20 1   
    12    6    7 1   
    13    7    8 ar  
    14    7    9 ar  
    15    8   12 ar  
    16    8   21 1   
    17    9   10 ar  
    18    9   22 1   
    19   10   11 ar  
    20   11   12 ar  
    21   11   23 1   
    22   12   13 1   
    23   13   14 1   
    24   13   15 1   
@<TRIPOS>SUBSTRUCTURE
     1 0LO         1 TEMP              0 ****  ****    0 ROOT
