@<TRIPOS>MOLECULE
0LO
   23    19     1     0     0
SMALL
bcc


@<TRIPOS>ATOM
      1 CAF         1.6570   -0.0830    1.3000 c1        1 0LO     -0.134000
      2 CAD         3.0430   -0.0690    1.2940 c1        1 0LO     -0.136250
      3 CAC         3.7270    0.3370    0.1590 c1        1 0LO     -0.136250
      4 CAE         3.0250    0.7280   -0.9700 c1        1 0LO     -0.136250
      5 CAG         1.6390    0.7130   -0.9640 c1        1 0LO     -0.136250
      6 CAN         0.9550    0.3070    0.1710 c1        1 0LO      0.007000
      7 CAO        -0.5570    0.3120    0.1850 c2        1 0LO     -0.138000
      8 CAJ        -1.2480   -0.7640   -0.2920 c1        1 0LO     -0.062000
      9 CAI        -1.2430    1.4330    0.6280 c2        1 0LO     -0.086000
     10 NAK        -2.6040    1.4600    0.5870 n1        1 0LO     -0.181000
     11 CAH        -3.2940    0.3860    0.1110 c1        1 0LO     -0.052000
     12 CAM        -2.6110   -0.7360   -0.3320 c1        1 0LO     -0.150000
     13 CAL        -3.3760   -1.9120   -0.8980 c2        1 0LO      0.362000
     14 OAB        -3.7190   -2.8600   -0.1460 o         1 0LO     -0.560000
     15 OAA        -3.6750   -1.9380   -2.1210 o         1 0LO     -0.560000
     16 H1          1.1760   -0.3690    2.1000 ha        1 0LO      0.132000
     17 H2          3.5380   -0.3440    2.0890 ha        1 0LO      0.125250
     18 H3          4.7030    0.3480    0.1550 ha        1 0LO      0.125250
     19 H4          3.5060    1.0140   -1.7700 ha        1 0LO      0.125250
     20 H5          1.1440    0.9900   -1.7590 ha        1 0LO      0.125250
     21 H6         -0.7680   -1.5670   -0.5700 ha        1 0LO      0.159000
     22 H7         -0.7490    2.2050    0.9660 h4        1 0LO      0.131000
     23 H8         -4.2690    0.4080    0.0780 ha        1 0LO      0.177000
@<TRIPOS>BOND
     1    1    6 1   
     2    1   16 1   
     3    2    3 1   
     4    2   17 1   
     5    3   18 1   
     6    4    5 1   
     7    4   19 1   
     8    5   20 1   
     9    6    7 1   
    10    7    8 1   
    11    7    9 1   
    12    8   21 1   
    13    9   10 1   
    14    9   22 1   
    15   11   12 1   
    16   11   23 1   
    17   12   13 1   
    18   13   14 1   
    19   13   15 1   
@<TRIPOS>SUBSTRUCTURE
     1 0LO         1 TEMP              0 ****  ****    0 ROOT
