@<TRIPOS>MOLECULE
0LO
   23    24     1     0     0
SMALL
bcc


@<TRIPOS>ATOM
      1 CAF        -0.0170   -0.3860    0.0700 ca        1 0LO     -0.128500
      2 CAD         1.3750   -0.4290    0.0610 ca        1 0LO     -0.135500
      3 CAC         2.0980   -0.0450    1.1890 ca        1 0LO     -0.151000
      4 CAE         1.4200    0.3830    2.3300 ca        1 0LO     -0.135500
      5 CAG         0.0290    0.4290    2.3450 ca        1 0LO     -0.128500
      6 CAN        -0.7090    0.0470    1.2120 cp        1 0LO      0.007000
      7 CAO        -2.1640    0.1010    1.2270 cp        1 0LO     -0.203300
      8 CAJ        -2.8980   -0.1810    2.3910 ca        1 0LO     -0.062000
      9 CAI        -2.8880    0.4470    0.0640 ca        1 0LO      0.379200
     10 NAK        -4.2310    0.5190    0.0110 nb        1 0LO     -0.707000
     11 CAH        -4.9100    0.2420    1.1410 ca        1 0LO      0.413200
     12 CAM        -4.2920   -0.1110    2.3590 ca        1 0LO     -0.235900
     13 CAL        -5.1240   -0.4000    3.5980 c         1 0LO      0.913200
     14 OAB        -6.3810   -0.3530    3.4840 o         1 0LO     -0.825300
     15 OAA        -4.5090   -0.6680    4.6670 o         1 0LO     -0.825300
     16 H1         -0.5820   -0.7010   -0.8200 ha        1 0LO      0.139500
     17 H2          1.9050   -0.7720   -0.8400 ha        1 0LO      0.119000
     18 H3          3.1960   -0.0810    1.1800 ha        1 0LO      0.116000
     19 H4          1.9850    0.6840    3.2240 ha        1 0LO      0.119000
     20 H5         -0.5040    0.7670    3.2480 ha        1 0LO      0.139500
     21 H6         -2.4050   -0.4660    3.3340 ha        1 0LO      0.159000
     22 H7         -2.3580    0.6910   -0.8720 h4        1 0LO     -0.005900
     23 H8         -6.0150    0.2990    1.0970 h4        1 0LO      0.040100
@<TRIPOS>BOND
     1    1    2 ar  
     2    1    6 ar  
     3    1   16 1   
     4    2    3 ar  
     5    2   17 1   
     6    3    4 ar  
     7    3   18 1   
     8    4    5 ar  
     9    4   19 1   
    10    5    6 ar  
    11    5   20 1   
    12    6    7 1   
    13    7    8 ar  
    14    7    9 ar  
    15    8   12 ar  
    16    8   21 1   
    17    9   10 ar  
    18    9   22 1   
    19   10   11 ar  
    20   11   12 ar  
    21   11   23 1   
    22   12   13 1   
    23   13   14 1   
    24   13   15 1   
@<TRIPOS>SUBSTRUCTURE
     1 0LO         1 TEMP              0 ****  ****    0 ROOT
