@<TRIPOS>MOLECULE
0LO
   23    24     1     0     0
SMALL
bcc


@<TRIPOS>ATOM
      1 CAF         2.7330    0.9430   -0.3880 ca        1 0LO     -0.128500
      2 CAD         4.0590    0.5200   -0.4350 ca        1 0LO     -0.135500
      3 CAC         4.3970   -0.7780   -0.0530 ca        1 0LO     -0.151000
      4 CAE         3.3980   -1.6530    0.3750 ca        1 0LO     -0.135500
      5 CAG         2.0710   -1.2340    0.4250 ca        1 0LO     -0.128500
      6 CAN         1.7210    0.0720    0.0450 cp        1 0LO      0.007000
      7 CAO         0.3330    0.5090    0.1020 cp        1 0LO     -0.203300
      8 CAJ        -0.7270   -0.3690   -0.1800 ca        1 0LO     -0.062000
      9 CAI         0.0070    1.8390    0.4520 ca        1 0LO      0.379200
     10 NAK        -1.2520    2.3070    0.5260 nb        1 0LO     -0.707000
     11 CAH        -2.2500    1.4430    0.2500 ca        1 0LO      0.413200
     12 CAM        -2.0410    0.0950   -0.1060 ca        1 0LO     -0.235900
     13 CAL        -3.2170   -0.8240   -0.3950 c         1 0LO      0.913200
     14 OAB        -4.3760   -0.3260   -0.3430 o         1 0LO     -0.825300
     15 OAA        -2.9650   -2.0310   -0.6660 o         1 0LO     -0.825300
     16 H1          2.4720    1.9650   -0.7010 ha        1 0LO      0.139500
     17 H2          4.8410    1.2120   -0.7780 ha        1 0LO      0.119000
     18 H3          5.4430   -1.1110   -0.0920 ha        1 0LO      0.116000
     19 H4          3.6590   -2.6790    0.6740 ha        1 0LO      0.119000
     20 H5          1.2850   -1.9280    0.7630 ha        1 0LO      0.139500
     21 H6         -0.5510   -1.4180   -0.4670 ha        1 0LO      0.159000
     22 H7          0.8020    2.5640    0.6950 h4        1 0LO     -0.005900
     23 H8         -3.2860    1.8290    0.3100 h4        1 0LO      0.040100
@<TRIPOS>BOND
     1    1    2 ar  
     2    1    6 ar  
     3    1   16 1   
     4    2    3 ar  
     5    2   17 1   
     6    3    4 ar  
     7    3   18 1   
     8    4    5 ar  
     9    4   19 1   
    10    5    6 ar  
    11    5   20 1   
    12    6    7 1   
    13    7    8 ar  
    14    7    9 ar  
    15    8   12 ar  
    16    8   21 1   
    17    9   10 ar  
    18    9   22 1   
    19   10   11 ar  
    20   11   12 ar  
    21   11   23 1   
    22   12   13 1   
    23   13   14 1   
    24   13   15 1   
@<TRIPOS>SUBSTRUCTURE
     1 0LO         1 TEMP              0 ****  ****    0 ROOT
