@<TRIPOS>MOLECULE
0LP
   54    55     1     0     0
SMALL
bcc


@<TRIPOS>ATOM
      1 CAA         0.8200    1.8420    0.1170 c3        1 0LP     -0.187100
      2 CAT         1.3350    0.4450    0.0490 c         1 0LP      0.577100
      3 OAB         1.3450   -0.3950    0.9370 o         1 0LP     -0.434100
      4 NAR         1.8990    0.0070   -1.2820 n4        1 0LP     -0.669800
      5 CBB         3.3950   -0.1100   -1.2570 c3        1 0LP      0.056500
      6 CAZ         4.0670    1.2830   -1.0560 c3        1 0LP      0.204300
      7 OAG         3.7510    1.6970    0.2630 oh        1 0LP     -0.644800
      8 CBC         3.9700   -0.7390   -2.5420 c3        1 0LP      0.089100
      9 CBA         3.4070   -2.1240   -2.9210 c3        1 0LP      0.146100
     10 OAH         2.0090   -2.0360   -3.1400 oh        1 0LP     -0.659800
     11 CAY         4.1650   -2.6470   -4.1550 c3        1 0LP      0.069100
     12 OAF         3.5170   -2.0800   -5.2870 oh        1 0LP     -0.631800
     13 CAP         4.1290   -4.1770   -4.2120 c3        1 0LP      0.094400
     14 OAD         4.6270   -4.6170   -5.4580 oh        1 0LP     -0.600800
     15 OAS         5.3590   -0.9730   -2.3040 os        1 0LP     -0.291900
     16 CAW         6.0950    0.1310   -1.9340 ce        1 0LP      0.079900
     17 CAU         7.5990   -0.0870   -2.3150 c         1 0LP      0.941800
     18 OAE         8.4280    0.1850   -1.4210 o         1 0LP     -0.759300
     19 OAC         7.7870   -0.5030   -3.4780 o         1 0LP     -0.759300
     20 CAV         5.5310    1.2060   -1.3390 c2        1 0LP     -0.332400
     21 CAQ         6.3280    2.4100   -0.9760 c3        1 0LP      0.003000
     22 CAI         6.1250    3.5160   -1.9450 c2        1 0LP     -0.132200
     23 CAJ         5.8020    4.7650   -1.5830 ce        1 0LP     -0.151200
     24 CAX         5.6210    5.8770   -2.5020 ca        1 0LP     -0.045800
     25 CAN         6.1630    5.8670   -3.7960 ca        1 0LP     -0.127000
     26 CAL         5.9680    6.9500   -4.6510 ca        1 0LP     -0.130500
     27 CAK         5.2330    8.0570   -4.2280 ca        1 0LP     -0.135000
     28 CAM         4.6970    8.0800   -2.9400 ca        1 0LP     -0.130500
     29 CAO         4.8910    7.0010   -2.0820 ca        1 0LP     -0.127000
     30 H1          0.1430    2.0780   -0.7390 hc        1 0LP      0.109700
     31 H2          1.6910    2.5540    0.1150 hc        1 0LP      0.109700
     32 H3          0.2580    1.9690    1.0780 hc        1 0LP      0.109700
     33 H4          1.5140   -0.9220   -1.5250 hn        1 0LP      0.461300
     34 H5          3.6530   -0.7680   -0.3730 hx        1 0LP      0.127700
     35 H6          3.5840    2.0520   -1.7290 h1        1 0LP      0.064700
     36 H7          4.5230    1.5430    0.8260 ho        1 0LP      0.447000
     37 H8          3.8480   -0.0290   -3.4060 h1        1 0LP      0.081700
     38 H9          3.5360   -2.8370   -2.0590 h1        1 0LP      0.088700
     39 H10         1.8460   -1.9050   -4.0860 ho        1 0LP      0.451000
     40 H11         5.2360   -2.2850   -4.1300 h1        1 0LP      0.119700
     41 H12         3.7600   -2.6200   -6.0530 ho        1 0LP      0.442000
     42 H13         3.0700   -4.5490   -4.1780 h1        1 0LP      0.062700
     43 H14         4.7160   -4.6080   -3.3610 h1        1 0LP      0.062700
     44 H15         5.5800   -4.4560   -5.4630 ho        1 0LP      0.418000
     45 H17         7.4260    2.1290   -0.9720 hc        1 0LP      0.080700
     46 H18         6.0680    2.7430    0.0660 hc        1 0LP      0.080700
     47 H19         6.2840    3.2390   -3.0010 ha        1 0LP      0.134000
     48 H20         5.6480    5.0140   -0.5180 ha        1 0LP      0.120000
     49 H21         6.7570    5.0050   -4.1350 ha        1 0LP      0.133500
     50 H22         6.4010    6.9310   -5.6620 ha        1 0LP      0.129500
     51 H23         5.0820    8.9110   -4.9040 ha        1 0LP      0.129000
     52 H24         4.1230    8.9540   -2.6000 ha        1 0LP      0.129500
     53 H25         4.4730    7.0280   -1.0650 ha        1 0LP      0.133500
     54 HAR2        1.6340    0.6720   -2.0110 hn        1 0LP      0.461300
@<TRIPOS>BOND
     1    1    2 1   
     2    1   30 1   
     3    1   31 1   
     4    1   32 1   
     5    2    3 2   
     6    2    4 1   
     7    4    5 1   
     8    4   33 1   
     9    4   54 1   
    10    5    6 1   
    11    5    8 1   
    12    5   34 1   
    13    6    7 1   
    14    6   20 1   
    15    6   35 1   
    16    7   36 1   
    17    8    9 1   
    18    8   15 1   
    19    8   37 1   
    20    9   10 1   
    21    9   11 1   
    22    9   38 1   
    23   10   39 1   
    24   11   12 1   
    25   11   13 1   
    26   11   40 1   
    27   12   41 1   
    28   13   14 1   
    29   13   42 1   
    30   13   43 1   
    31   14   44 1   
    32   15   16 1   
    33   16   17 1   
    34   16   20 2   
    35   17   18 1   
    36   17   19 1   
    37   20   21 1   
    38   21   22 1   
    39   21   45 1   
    40   21   46 1   
    41   22   23 2   
    42   22   47 1   
    43   23   24 1   
    44   23   48 1   
    45   24   25 ar  
    46   24   29 ar  
    47   25   26 ar  
    48   25   49 1   
    49   26   27 ar  
    50   26   50 1   
    51   27   28 ar  
    52   27   51 1   
    53   28   29 ar  
    54   28   52 1   
    55   29   53 1   
@<TRIPOS>SUBSTRUCTURE
     1 0LP         1 TEMP              0 ****  ****    0 ROOT
