@<TRIPOS>MOLECULE
0LP
   53    51     1     0     0
SMALL
bcc


@<TRIPOS>ATOM
      1 CAA         2.7070    4.5960    0.8910 c3        1 0LP     -0.240000
      2 CAT         2.2500    3.5040   -0.0410 c2        1 0LP      0.307000
      3 OAB         2.0870    3.7410   -1.2190 o         1 0LP     -0.390000
      4 NAR         2.0210    2.2640    0.4350 n         1 0LP     -0.362000
      5 CBB         1.5760    1.2020   -0.4710 c3        1 0LP     -0.039000
      6 CAZ         0.0530    1.2610   -0.6270 c3        1 0LP      0.083000
      7 OAG        -0.3010    2.3850   -1.4350 oh        1 0LP     -0.328000
      8 CBC         1.9470   -0.1670    0.1140 c3        1 0LP     -0.014000
      9 CBA         3.4580   -0.2370    0.3460 c3        1 0LP      0.043000
     10 OAH         3.8470    0.7900    1.2600 oh        1 0LP     -0.344000
     11 CAY         3.8220   -1.6030    0.9290 c3        1 0LP     -0.040000
     12 OAF         3.0530   -1.8370    2.1110 oh        1 0LP     -0.347000
     13 CAP         5.3120   -1.6290    1.2770 c3        1 0LP     -0.059000
     14 OAD         5.6770   -2.9400    1.7130 oh        1 0LP     -0.342000
     15 OAS         1.5560   -1.1770   -0.8210 os        1 0LP     -0.201000
     16 CAW         0.3070   -1.1000   -1.3400 c2        1 0LP      0.044000
     17 CAU        -0.2550   -2.2940   -1.9970 c2        1 0LP      0.385000
     18 OAE        -0.1260   -2.4540   -3.3290 o         1 0LP     -0.533000
     19 OAC        -0.8350   -3.1340   -1.3380 o         1 0LP     -0.533000
     20 CAV        -0.4330   -0.0030   -1.2850 c2        1 0LP     -0.308000
     21 CAQ        -1.8080   -0.0200   -1.9010 c3        1 0LP     -0.073000
     22 CAI        -2.8290   -0.3440   -0.8420 c2        1 0LP     -0.092000
     23 CAJ        -3.8540    0.4710   -0.6370 c1        1 0LP     -0.206000
     24 CAX        -4.8560    0.1530    0.4020 c1        1 0LP     -0.001000
     25 CAN        -4.7230   -1.0030    1.1730 c2        1 0LP     -0.126000
     26 CAL        -5.6620   -1.2940    2.1410 c1        1 0LP     -0.131000
     27 CAK        -6.7330   -0.4440    2.3480 c1        1 0LP     -0.148000
     28 CAM        -6.8710    0.7030    1.5870 c1        1 0LP     -0.148000
     29 CAO        -5.9350    1.0090    0.6200 c1        1 0LP     -0.143000
     30 H1          2.8390    5.5210    0.3300 hc        1 0LP      0.097667
     31 H2          1.9600    4.7460    1.6700 hc        1 0LP      0.097667
     32 H3          3.6550    4.3100    1.3480 hc        1 0LP      0.097667
     33 H4          2.1510    2.0740    1.3770 hn        1 0LP      0.233000
     34 H5          2.0500    1.3270   -1.4450 h1        1 0LP      0.127000
     35 H6         -0.4090    1.3600    0.3550 h1        1 0LP      0.104000
     36 H7         -1.2520    2.4840   -1.5760 ho        1 0LP      0.213000
     37 H8          1.4230   -0.3170    1.0580 h1        1 0LP      0.096000
     38 H9          3.9780   -0.0960   -0.6020 h1        1 0LP      0.122000
     39 H10         3.4220    0.7280    2.1260 ho        1 0LP      0.221000
     40 H11         3.6070   -2.3800    0.1960 h1        1 0LP      0.138000
     41 H12         3.1940   -1.1830    2.8080 ho        1 0LP      0.219000
     42 H13         5.8950   -1.3630    0.3960 h1        1 0LP      0.098500
     43 H14         5.5110   -0.9130    2.0750 h1        1 0LP      0.098500
     44 H15         6.6100   -3.0300    1.9510 ho        1 0LP      0.207000
     45 H17        -2.0260    0.9590   -2.3290 hc        1 0LP      0.096500
     46 H18        -1.8450   -0.7760   -2.6860 hc        1 0LP      0.096500
     47 H19        -2.7270   -1.2420   -0.2500 ha        1 0LP      0.180000
     48 H20        -3.9570    1.3690   -1.2290 ha        1 0LP      0.111000
     49 H21        -3.8870   -1.6680    1.0110 ha        1 0LP      0.162000
     50 H22        -5.5600   -2.1880    2.7380 ha        1 0LP      0.123000
     51 H23        -7.4650   -0.6770    3.1070 ha        1 0LP      0.113500
     52 H24        -7.7100    1.3620    1.7530 ha        1 0LP      0.113500
     53 H25        -6.0410    1.9080    0.0300 ha        1 0LP      0.122000
@<TRIPOS>BOND
     1    1    2 1   
     2    1   30 1   
     3    1   31 1   
     4    1   32 1   
     5    2    3 1   
     6    2    4 1   
     7    4    5 1   
     8    4   33 1   
     9    5    6 1   
    10    5    8 1   
    11    5   34 1   
    12    6    7 1   
    13    6   20 1   
    14    6   35 1   
    15    7   36 1   
    16    8    9 1   
    17    8   15 1   
    18    8   37 1   
    19    9   10 1   
    20    9   11 1   
    21    9   38 1   
    22   10   39 1   
    23   11   12 1   
    24   11   13 1   
    25   11   40 1   
    26   12   41 1   
    27   13   14 1   
    28   13   42 1   
    29   13   43 1   
    30   14   44 1   
    31   15   16 1   
    32   16   17 1   
    33   16   20 1   
    34   17   18 1   
    35   17   19 1   
    36   20   21 1   
    37   21   22 1   
    38   21   45 1   
    39   21   46 1   
    40   22   23 1   
    41   22   47 1   
    42   23   48 1   
    43   24   25 1   
    44   24   29 1   
    45   25   26 1   
    46   25   49 1   
    47   26   50 1   
    48   27   28 1   
    49   27   51 1   
    50   28   52 1   
    51   29   53 1   
@<TRIPOS>SUBSTRUCTURE
     1 0LP         1 TEMP              0 ****  ****    0 ROOT
