@<TRIPOS>MOLECULE
0LP
   53    51     1     0     0
SMALL
bcc


@<TRIPOS>ATOM
      1 CAA        -3.3540    0.3730    3.1880 c3        1 0LP     -0.243000
      2 CAT        -1.8420    0.3760    3.1680 c2        1 0LP      0.304000
      3 OAB        -1.2240    0.8790    4.0850 o         1 0LP     -0.393000
      4 NAR        -1.1460   -0.2180    2.0850 n         1 0LP     -0.363000
      5 CBB         0.3850   -0.2250    2.0710 c3        1 0LP     -0.014000
      6 CAZ         0.8840    0.7520    0.8330 c3        1 0LP      0.070000
      7 OAG         2.2960    1.0670    0.9750 oh        1 0LP     -0.362000
      8 CBC         0.7700   -1.4450    2.0310 c3        1 0LP     -0.027000
      9 CBA         2.2540   -1.5200    2.1160 c3        1 0LP      0.028000
     10 OAH         2.7450   -0.3900    2.8170 oh        1 0LP     -0.331000
     11 CAY         2.6550   -2.7850    2.8530 c3        1 0LP      0.037000
     12 OAF         1.9220   -2.8840    4.0480 oh        1 0LP     -0.320000
     13 CAP         4.1300   -2.7370    3.1690 c3        1 0LP     -0.059000
     14 OAD         4.4710   -3.8330    3.9890 oh        1 0LP     -0.344000
     15 OAS         0.2440   -2.0330    0.5570 os        1 0LP     -0.189000
     16 CAW         0.5620   -1.3390   -0.5720 c2        1 0LP      0.061000
     17 CAU         1.2920   -2.0290   -1.7040 c2        1 0LP      0.385000
     18 OAE         2.5380   -1.8960   -1.8230 o         1 0LP     -0.531000
     19 OAC         0.6580   -2.7640   -2.5060 o         1 0LP     -0.531000
     20 CAV         0.5920    0.2040   -0.4600 c2        1 0LP     -0.357000
     21 CAQ         0.7810    1.0500   -1.7010 c3        1 0LP     -0.070000
     22 CAI        -0.5350    1.1620   -2.4420 c2        1 0LP     -0.097000
     23 CAJ        -0.7620    2.2100   -3.2600 c1        1 0LP     -0.201000
     24 CAX        -2.0780    2.3220   -4.0000 c1        1 0LP     -0.006000
     25 CAN        -2.3770    1.4300   -5.0180 c2        1 0LP     -0.125000
     26 CAL        -3.5480    1.5770   -5.7460 c1        1 0LP     -0.131000
     27 CAK        -4.4190    2.6150   -5.4550 c1        1 0LP     -0.146000
     28 CAM        -4.1200    3.5070   -4.4370 c1        1 0LP     -0.146000
     29 CAO        -2.9490    3.3600   -3.7100 c1        1 0LP     -0.141000
     30 H1         -3.6780   -0.5510    3.2310 hc        1 0LP      0.100667
     31 H2         -3.6930    0.8000    2.3740 hc        1 0LP      0.100667
     32 H3         -3.6720    0.8670    3.9730 hc        1 0LP      0.100667
     33 H4         -1.6100   -0.6160    1.4080 hn        1 0LP      0.242000
     34 H5          0.7000    0.1650    2.9100 h1        1 0LP      0.142000
     35 H6          0.4880    1.6440    0.9150 h1        1 0LP      0.101000
     36 H7          2.4040    1.9500    0.9830 ho        1 0LP      0.211000
     37 H8          0.3630   -1.9510    2.7620 h1        1 0LP      0.145000
     38 H9          2.6320   -1.5340    1.2150 h1        1 0LP      0.088000
     39 H10         3.6180   -0.3060    2.6710 ho        1 0LP      0.221000
     40 H11         2.4680   -3.5630    2.2910 h1        1 0LP      0.118000
     41 H12         1.8250   -3.7400    4.2660 ho        1 0LP      0.208000
     42 H13         4.6450   -2.7800    2.3370 h1        1 0LP      0.080500
     43 H14         4.3370   -1.9020    3.6380 h1        1 0LP      0.080500
     44 H15         5.3330   -3.7860    4.2040 ho        1 0LP      0.196000
     45 H17         1.0870    1.9420   -1.4440 hc        1 0LP      0.089000
     46 H18         1.4470    0.6310   -2.2820 hc        1 0LP      0.089000
     47 H19        -1.2110    0.4640   -2.3440 ha        1 0LP      0.179000
     48 H20        -0.0730    2.8900   -3.3840 ha        1 0LP      0.110000
     49 H21        -1.7640    0.6990   -5.2230 ha        1 0LP      0.160000
     50 H22        -3.7540    0.9550   -6.4690 ha        1 0LP      0.124000
     51 H23        -5.2440    2.7180   -5.9680 ha        1 0LP      0.115500
     52 H24        -4.7380    4.2320   -4.2260 ha        1 0LP      0.115500
     53 H25        -2.7380    3.9880   -2.9930 ha        1 0LP      0.123000
@<TRIPOS>BOND
     1    1    2 1   
     2    1   30 1   
     3    1   31 1   
     4    1   32 1   
     5    2    3 1   
     6    2    4 1   
     7    4    5 1   
     8    4   33 1   
     9    5    6 1   
    10    5    8 1   
    11    5   34 1   
    12    6    7 1   
    13    6   20 1   
    14    6   35 1   
    15    7   36 1   
    16    8    9 1   
    17    8   15 1   
    18    8   37 1   
    19    9   10 1   
    20    9   11 1   
    21    9   38 1   
    22   10   39 1   
    23   11   12 1   
    24   11   13 1   
    25   11   40 1   
    26   12   41 1   
    27   13   14 1   
    28   13   42 1   
    29   13   43 1   
    30   14   44 1   
    31   15   16 1   
    32   16   17 1   
    33   16   20 1   
    34   17   18 1   
    35   17   19 1   
    36   20   21 1   
    37   21   22 1   
    38   21   45 1   
    39   21   46 1   
    40   22   23 1   
    41   22   47 1   
    42   23   48 1   
    43   24   25 1   
    44   24   29 1   
    45   25   26 1   
    46   25   49 1   
    47   26   50 1   
    48   27   28 1   
    49   27   51 1   
    50   28   52 1   
    51   29   53 1   
@<TRIPOS>SUBSTRUCTURE
     1 0LP         1 TEMP              0 ****  ****    0 ROOT
