@<TRIPOS>MOLECULE
0LP
   53    54     1     0     0
SMALL
bcc


@<TRIPOS>ATOM
      1 CAA         3.4240    4.8840   -0.0030 c3        1 0LP     -0.172100
      2 CAT         2.6970    3.7190   -0.6360 c         1 0LP      0.663100
      3 OAB         2.4540    3.7010   -1.8620 o         1 0LP     -0.629100
      4 NAR         2.3020    2.6990    0.2000 n         1 0LP     -0.552900
      5 CBB         1.6550    1.5130   -0.3010 c3        1 0LP      0.037700
      6 CAZ         0.1070    1.6530   -0.4190 c3        1 0LP      0.198300
      7 OAG        -0.2340    2.7550   -1.2400 oh        1 0LP     -0.600800
      8 CBC         1.9130    0.2580    0.5640 c3        1 0LP      0.097100
      9 CBA         3.4080    0.0230    0.8600 c3        1 0LP      0.154100
     10 OAH         3.8660    0.9500    1.8310 oh        1 0LP     -0.616800
     11 CAY         3.6770   -1.4250    1.3080 c3        1 0LP      0.071100
     12 OAF         3.5460   -1.4500    2.7250 oh        1 0LP     -0.619800
     13 CAP         5.0830   -1.8680    0.8930 c3        1 0LP      0.091400
     14 OAD         5.3450   -3.1740    1.3730 oh        1 0LP     -0.614800
     15 OAS         1.4590   -0.9000   -0.1450 os        1 0LP     -0.316900
     16 CAW         0.2250   -0.8090   -0.7500 ce        1 0LP      0.068900
     17 CAU        -0.2290   -2.2110   -1.2200 c         1 0LP      0.934800
     18 OAE         0.2570   -2.6350   -2.2950 o         1 0LP     -0.798300
     19 OAC        -1.0570   -2.8060   -0.4820 o         1 0LP     -0.798300
     20 CAV        -0.4470    0.3520   -0.9130 c2        1 0LP     -0.316400
     21 CAQ        -1.7860    0.3890   -1.5600 c3        1 0LP      0.014000
     22 CAI        -2.8350   -0.2110   -0.6950 c2        1 0LP     -0.096200
     23 CAJ        -4.0100    0.3840   -0.4410 ce        1 0LP     -0.194200
     24 CAX        -5.0710   -0.1830    0.3710 ca        1 0LP     -0.012800
     25 CAN        -5.0300   -1.5060    0.8410 ca        1 0LP     -0.134500
     26 CAL        -6.0710   -2.0120    1.6170 ca        1 0LP     -0.135000
     27 CAK        -7.1680   -1.2130    1.9350 ca        1 0LP     -0.157000
     28 CAM        -7.2210    0.1010    1.4720 ca        1 0LP     -0.135000
     29 CAO        -6.1840    0.6120    0.6960 ca        1 0LP     -0.134500
     30 H1          3.7220    5.5990   -0.8070 hc        1 0LP      0.058367
     31 H2          2.7540    5.4080    0.7200 hc        1 0LP      0.058367
     32 H3          4.3390    4.5360    0.5330 hc        1 0LP      0.058367
     33 H4          2.6200    2.6840    1.1400 hn        1 0LP      0.319500
     34 H5          2.0490    1.3110   -1.3450 h1        1 0LP      0.087700
     35 H6         -0.3470    1.9150    0.5810 h1        1 0LP      0.064700
     36 H7          0.2520    2.6600   -2.0700 ho        1 0LP      0.414000
     37 H8          1.3470    0.3300    1.5340 h1        1 0LP      0.056700
     38 H9          4.0120    0.2510   -0.0630 h1        1 0LP      0.082700
     39 H10         3.5000    0.6840    2.6850 ho        1 0LP      0.422000
     40 H11         2.9150   -2.1270    0.8620 h1        1 0LP      0.098700
     41 H12         3.9260   -2.2880    3.0200 ho        1 0LP      0.420000
     42 H13         5.1880   -1.8270   -0.2220 h1        1 0LP      0.059200
     43 H14         5.8610   -1.2220    1.3800 h1        1 0LP      0.059200
     44 H15         4.7300   -3.7700    0.9270 ho        1 0LP      0.408000
     45 H17        -2.0440    1.4480   -1.8360 hc        1 0LP      0.057200
     46 H18        -1.7480   -0.2130   -2.5130 hc        1 0LP      0.057200
     47 H19        -2.5620   -1.2080   -0.2910 ha        1 0LP      0.180000
     48 H20        -4.2260    1.3840   -0.8560 ha        1 0LP      0.111000
     49 H21        -4.1690   -2.1490    0.5950 ha        1 0LP      0.142000
     50 H22        -6.0230   -3.0490    1.9790 ha        1 0LP      0.118000
     51 H23        -7.9870   -1.6160    2.5470 ha        1 0LP      0.114000
     52 H24        -8.0840    0.7360    1.7190 ha        1 0LP      0.118000
     53 H25        -6.2310    1.6490    0.3350 ha        1 0LP      0.142000
@<TRIPOS>BOND
     1    1    2 1   
     2    1   30 1   
     3    1   31 1   
     4    1   32 1   
     5    2    3 2   
     6    2    4 1   
     7    4    5 1   
     8    4   33 1   
     9    5    6 1   
    10    5    8 1   
    11    5   34 1   
    12    6    7 1   
    13    6   20 1   
    14    6   35 1   
    15    7   36 1   
    16    8    9 1   
    17    8   15 1   
    18    8   37 1   
    19    9   10 1   
    20    9   11 1   
    21    9   38 1   
    22   10   39 1   
    23   11   12 1   
    24   11   13 1   
    25   11   40 1   
    26   12   41 1   
    27   13   14 1   
    28   13   42 1   
    29   13   43 1   
    30   14   44 1   
    31   15   16 1   
    32   16   17 1   
    33   16   20 2   
    34   17   18 1   
    35   17   19 1   
    36   20   21 1   
    37   21   22 1   
    38   21   45 1   
    39   21   46 1   
    40   22   23 2   
    41   22   47 1   
    42   23   24 1   
    43   23   48 1   
    44   24   25 ar  
    45   24   29 ar  
    46   25   26 ar  
    47   25   49 1   
    48   26   27 ar  
    49   26   50 1   
    50   27   28 ar  
    51   27   51 1   
    52   28   29 ar  
    53   28   52 1   
    54   29   53 1   
@<TRIPOS>SUBSTRUCTURE
     1 0LP         1 TEMP              0 ****  ****    0 ROOT
