@<TRIPOS>MOLECULE
0LP
   54    55     1     0     0
SMALL
bcc


@<TRIPOS>ATOM
      1 CAA         0.7930    1.8670    0.0690 c3        1 0LP     -0.187100
      2 CAT         1.3060    0.4680    0.0170 c         1 0LP      0.577100
      3 OAB         1.3030   -0.3650    0.9110 o         1 0LP     -0.434100
      4 NAR         1.8870    0.0200   -1.3030 n4        1 0LP     -0.669800
      5 CBB         3.3830   -0.0990   -1.2570 c3        1 0LP      0.056500
      6 CAZ         4.0540    1.2940   -1.0570 c3        1 0LP      0.204300
      7 OAG         3.7220    1.7170    0.2550 oh        1 0LP     -0.644800
      8 CBC         3.9730   -0.7380   -2.5300 c3        1 0LP      0.089100
      9 CBA         3.4140   -2.1240   -2.9080 c3        1 0LP      0.146100
     10 OAH         2.0190   -2.0360   -3.1460 oh        1 0LP     -0.659800
     11 CAY         4.1870   -2.6560   -4.1280 c3        1 0LP      0.069100
     12 OAF         3.5540   -2.0960   -5.2730 oh        1 0LP     -0.631800
     13 CAP         4.1490   -4.1870   -4.1750 c3        1 0LP      0.094400
     14 OAD         4.6630   -4.6370   -5.4110 oh        1 0LP     -0.600800
     15 OAS         5.3590   -0.9720   -2.2730 os        1 0LP     -0.291900
     16 CAW         6.0920    0.1330   -1.9010 ce        1 0LP      0.079900
     17 CAU         7.6000   -0.0900   -2.2620 c         1 0LP      0.941800
     18 OAE         8.4190    0.1890   -1.3600 o         1 0LP     -0.759300
     19 OAC         7.8020   -0.5140   -3.4200 o         1 0LP     -0.759300
     20 CAV         5.5210    1.2130   -1.3210 c2        1 0LP     -0.332400
     21 CAQ         6.3160    2.4190   -0.9560 c3        1 0LP      0.002000
     22 CAI         6.1240    3.5200   -1.9340 c2        1 0LP     -0.132200
     23 CAJ         5.7970    4.7710   -1.5830 ce        1 0LP     -0.151200
     24 CAX         5.6270    5.8770   -2.5100 ca        1 0LP     -0.045800
     25 CAN         6.1840    5.8600   -3.7980 ca        1 0LP     -0.127000
     26 CAL         5.9980    6.9380   -4.6610 ca        1 0LP     -0.130500
     27 CAK         5.2580    8.0470   -4.2530 ca        1 0LP     -0.135000
     28 CAM         4.7070    8.0770   -2.9720 ca        1 0LP     -0.130500
     29 CAO         4.8910    7.0030   -2.1050 ca        1 0LP     -0.127000
     30 H1          0.2190    2.0020    1.0210 hc        1 0LP      0.109700
     31 H2          1.6660    2.5770    0.0730 hc        1 0LP      0.109700
     32 H3          0.1290    2.0990   -0.7980 hc        1 0LP      0.109700
     33 H4          1.5040   -0.9100   -1.5450 hn        1 0LP      0.461300
     34 H5          3.6280   -0.7520   -0.3660 hx        1 0LP      0.127700
     35 H6          3.5810    2.0590   -1.7420 h1        1 0LP      0.064700
     36 H7          4.4870    1.5660    0.8290 ho        1 0LP      0.447000
     37 H8          3.8640   -0.0330   -3.4010 h1        1 0LP      0.081700
     38 H9          3.5300   -2.8310   -2.0400 h1        1 0LP      0.088700
     39 H10         1.8680   -1.9120   -4.0950 ho        1 0LP      0.451000
     40 H11         5.2580   -2.2960   -4.0920 h1        1 0LP      0.119700
     41 H12         3.8070   -2.6420   -6.0320 ho        1 0LP      0.442000
     42 H13         3.0890   -4.5570   -4.1530 h1        1 0LP      0.062700
     43 H14         4.7250   -4.6130   -3.3130 h1        1 0LP      0.062700
     44 H15         5.6170   -4.4760   -5.4040 ho        1 0LP      0.418000
     45 H17         6.0450    2.7580    0.0810 hc        1 0LP      0.080700
     46 H18         7.4130    2.1370   -0.9390 hc        1 0LP      0.080700
     47 H19         6.2950    3.2360   -2.9870 ha        1 0LP      0.134000
     48 H20         5.6310    5.0260   -0.5210 ha        1 0LP      0.120000
     49 H21         6.7820    4.9960   -4.1250 ha        1 0LP      0.133500
     50 H22         6.4430    6.9140   -5.6670 ha        1 0LP      0.129500
     51 H23         5.1150    8.8970   -4.9350 ha        1 0LP      0.129000
     52 H24         4.1300    8.9530   -2.6430 ha        1 0LP      0.129500
     53 H25         4.4610    7.0360   -1.0930 ha        1 0LP      0.133500
     54 HAR2        1.6330    0.6810   -2.0410 hn        1 0LP      0.461300
@<TRIPOS>BOND
     1    1    2 1   
     2    1   30 1   
     3    1   31 1   
     4    1   32 1   
     5    2    3 2   
     6    2    4 1   
     7    4    5 1   
     8    4   33 1   
     9    4   54 1   
    10    5    6 1   
    11    5    8 1   
    12    5   34 1   
    13    6    7 1   
    14    6   20 1   
    15    6   35 1   
    16    7   36 1   
    17    8    9 1   
    18    8   15 1   
    19    8   37 1   
    20    9   10 1   
    21    9   11 1   
    22    9   38 1   
    23   10   39 1   
    24   11   12 1   
    25   11   13 1   
    26   11   40 1   
    27   12   41 1   
    28   13   14 1   
    29   13   42 1   
    30   13   43 1   
    31   14   44 1   
    32   15   16 1   
    33   16   17 1   
    34   16   20 2   
    35   17   18 1   
    36   17   19 1   
    37   20   21 1   
    38   21   22 1   
    39   21   45 1   
    40   21   46 1   
    41   22   23 2   
    42   22   47 1   
    43   23   24 1   
    44   23   48 1   
    45   24   25 ar  
    46   24   29 ar  
    47   25   26 ar  
    48   25   49 1   
    49   26   27 ar  
    50   26   50 1   
    51   27   28 ar  
    52   27   51 1   
    53   28   29 ar  
    54   28   52 1   
    55   29   53 1   
@<TRIPOS>SUBSTRUCTURE
     1 0LP         1 TEMP              0 ****  ****    0 ROOT
