@<TRIPOS>MOLECULE
0LP
   54    55     1     0     0
SMALL
bcc


@<TRIPOS>ATOM
      1 CAA         0.8010    1.8610    0.0840 c3        1 0LP     -0.187100
      2 CAT         1.3200    0.4640    0.0350 c         1 0LP      0.577100
      3 OAB         1.3240   -0.3660    0.9320 o         1 0LP     -0.434100
      4 NAR         1.8960    0.0130   -1.2860 ny        1 0LP     -0.669800
      5 CBB         3.3920   -0.1000   -1.2470 c3        1 0LP      0.056500
      6 CAZ         4.0590    1.2960   -1.0560 c3        1 0LP      0.204300
      7 OAG         3.7320    1.7240    0.2560 oh        1 0LP     -0.644800
      8 CBC         3.9790   -0.7410   -2.5210 c3        1 0LP      0.089100
      9 CBA         3.4240   -2.1310   -2.8900 c3        1 0LP      0.146100
     10 OAH         2.0270   -2.0500   -3.1220 oh        1 0LP     -0.659800
     11 CAY         4.1930   -2.6660   -4.1110 c3        1 0LP      0.069100
     12 OAF         3.5530   -2.1120   -5.2550 oh        1 0LP     -0.631800
     13 CAP         4.1610   -4.1960   -4.1520 c3        1 0LP      0.094400
     14 OAD         4.6710   -4.6490   -5.3890 oh        1 0LP     -0.600800
     15 OAS         5.3680   -0.9690   -2.2680 os        1 0LP     -0.291900
     16 CAW         6.0980    0.1410   -1.9050 ce        1 0LP      0.079900
     17 CAU         7.6050   -0.0780   -2.2720 c         1 0LP      0.941800
     18 OAE         8.4270    0.2080   -1.3760 o         1 0LP     -0.759300
     19 OAC         7.8030   -0.5070   -3.4290 o         1 0LP     -0.759300
     20 CAV         5.5260    1.2210   -1.3270 c2        1 0LP     -0.332400
     21 CAQ         6.3170    2.4310   -0.9710 c3        1 0LP      0.002000
     22 CAI         6.1170    3.5260   -1.9540 c2        1 0LP     -0.132200
     23 CAJ         5.7850    4.7770   -1.6080 ce        1 0LP     -0.151200
     24 CAX         5.6070    5.8780   -2.5410 ca        1 0LP     -0.045800
     25 CAN         6.1600    5.8570   -3.8300 ca        1 0LP     -0.127000
     26 CAL         5.9680    6.9300   -4.6990 ca        1 0LP     -0.130500
     27 CAK         5.2240    8.0370   -4.2940 ca        1 0LP     -0.135000
     28 CAM         4.6760    8.0710   -3.0110 ca        1 0LP     -0.130500
     29 CAO         4.8670    7.0030   -2.1400 ca        1 0LP     -0.127000
     30 H1          0.1320    2.0870   -0.7810 hc        1 0LP      0.109700
     31 H2          1.6710    2.5750    0.0810 hc        1 0LP      0.109700
     32 H3          0.2310    1.9970    1.0390 hc        1 0LP      0.109700
     33 H4          1.5160   -0.9190   -1.5230 hn        1 0LP      0.461300
     34 H5          3.6450   -0.7480   -0.3540 hx        1 0LP      0.127700
     35 H6          3.5800    2.0570   -1.7410 h1        1 0LP      0.064700
     36 H7          4.5000    1.5780    0.8270 ho        1 0LP      0.447000
     37 H8          3.8640   -0.0410   -3.3940 h1        1 0LP      0.081700
     38 H9          3.5470   -2.8350   -2.0190 h1        1 0LP      0.088700
     39 H10         1.8710   -1.9300   -4.0700 ho        1 0LP      0.451000
     40 H11         5.2630   -2.3010   -4.0820 h1        1 0LP      0.119700
     41 H12         3.8040   -2.6600   -6.0130 ho        1 0LP      0.442000
     42 H13         3.1020   -4.5710   -4.1230 h1        1 0LP      0.062700
     43 H14         4.7420   -4.6170   -3.2920 h1        1 0LP      0.062700
     44 H15         5.6240   -4.4850   -5.3880 ho        1 0LP      0.418000
     45 H17         7.4150    2.1540   -0.9560 hc        1 0LP      0.080700
     46 H18         6.0480    2.7750    0.0650 hc        1 0LP      0.080700
     47 H19         6.2850    3.2380   -3.0060 ha        1 0LP      0.134000
     48 H20         5.6210    5.0370   -0.5470 ha        1 0LP      0.120000
     49 H21         6.7620    4.9940   -4.1540 ha        1 0LP      0.133500
     50 H22         6.4100    6.9020   -5.7050 ha        1 0LP      0.129500
     51 H23         5.0740    8.8830   -4.9800 ha        1 0LP      0.129000
     52 H24         4.0950    8.9470   -2.6860 ha        1 0LP      0.129500
     53 H25         4.4400    7.0390   -1.1270 ha        1 0LP      0.133500
     54 HAR2        1.6360    0.6700   -2.0250 hn        1 0LP      0.461300
@<TRIPOS>BOND
     1    1    2 1   
     2    1   30 1   
     3    1   31 1   
     4    1   32 1   
     5    2    3 2   
     6    2    4 1   
     7    4    5 1   
     8    4   33 1   
     9    4   54 1   
    10    5    6 1   
    11    5    8 1   
    12    5   34 1   
    13    6    7 1   
    14    6   20 1   
    15    6   35 1   
    16    7   36 1   
    17    8    9 1   
    18    8   15 1   
    19    8   37 1   
    20    9   10 1   
    21    9   11 1   
    22    9   38 1   
    23   10   39 1   
    24   11   12 1   
    25   11   13 1   
    26   11   40 1   
    27   12   41 1   
    28   13   14 1   
    29   13   42 1   
    30   13   43 1   
    31   14   44 1   
    32   15   16 1   
    33   16   17 1   
    34   16   20 2   
    35   17   18 1   
    36   17   19 1   
    37   20   21 1   
    38   21   22 1   
    39   21   45 1   
    40   21   46 1   
    41   22   23 2   
    42   22   47 1   
    43   23   24 1   
    44   23   48 1   
    45   24   25 ar  
    46   24   29 ar  
    47   25   26 ar  
    48   25   49 1   
    49   26   27 ar  
    50   26   50 1   
    51   27   28 ar  
    52   27   51 1   
    53   28   29 ar  
    54   28   52 1   
    55   29   53 1   
@<TRIPOS>SUBSTRUCTURE
     1 0LP         1 TEMP              0 ****  ****    0 ROOT
