@<TRIPOS>MOLECULE
0LQ
   66    60     1     0     0
SMALL
bcc


@<TRIPOS>ATOM
      1 C1         -0.7140    0.2680   -1.2370 c3        1 0LQ     -0.019000
      2 N1          0.8680    0.2590   -1.2250 n         1 0LQ     -0.310000
      3 C2          1.5050    0.2460    0.0720 c2        1 0LQ      0.289000
      4 O1          2.7110    0.3530    0.1600 o         1 0LQ     -0.303000
      5 C3          0.6020   -0.4500    1.3550 c1        1 0LQ      0.300000
      6 O2          1.0300   -0.4300    2.4520 o         1 0LQ     -0.304000
      7 N2         -0.9500   -0.5900    1.1180 n2        1 0LQ     -0.317000
      8 C4         -1.9280   -0.0620    2.1410 c3        1 0LQ      0.130000
      9 C5         -2.8320   -1.1930    2.6110 c2        1 0LQ     -0.098000
     10 C6         -2.3140   -2.4220    2.8360 c1        1 0LQ     -0.116000
     11 C7         -3.1280   -3.4420    3.3500 c1        1 0LQ     -0.123750
     12 C8         -4.4670   -3.1880    3.6280 c1        1 0LQ     -0.123750
     13 C9         -4.9820   -1.9680    3.4050 c1        1 0LQ     -0.132000
     14 C10        -4.1720   -0.9450    2.8910 c2        1 0LQ     -0.122000
     15 C11        -1.1420    0.5130    3.3640 c1        1 0LQ     -0.095000
     16 C12        -0.5840   -0.3620    4.3110 c1        1 0LQ     -0.123750
     17 C13         0.0360    0.1550    5.4720 c1        1 0LQ     -0.123750
     18 C14         0.0930    1.4980    5.6700 c1        1 0LQ     -0.123750
     19 C15        -0.4670    2.3770    4.7190 c1        1 0LQ     -0.123750
     20 C16        -1.0820    1.8700    3.5690 c1        1 0LQ     -0.121000
     21 C17        -1.4300   -0.8550   -0.3690 c3        1 0LQ     -0.006000
     22 C18        -2.6910   -0.7920   -0.6240 c3        1 0LQ     -0.093000
     23 N3         -2.7400   -0.2670   -2.0880 n3        1 0LQ     -0.272000
     24 C19        -1.2450    0.2450   -2.3760 c3        1 0LQ     -0.095000
     25 C20         1.5840   -0.1790   -2.3760 c3        1 0LQ      0.108000
     26 C21         1.2970    0.8150   -3.5870 c2        1 0LQ     -0.090000
     27 C22         0.9510    0.2930   -4.8670 c2        1 0LQ     -0.116000
     28 C23         0.8570    1.1450   -5.9670 c1        1 0LQ     -0.132000
     29 C24         1.1070    2.5380   -5.8160 c1        1 0LQ     -0.123750
     30 C25         1.4450    3.0550   -4.5710 c1        1 0LQ     -0.123750
     31 C26         1.5430    2.1830   -3.4380 c1        1 0LQ     -0.119000
     32 C27         3.1190   -0.1900   -2.0590 c1        1 0LQ     -0.099000
     33 C28         3.7060    0.9180   -1.5030 c1        1 0LQ     -0.123750
     34 C29         5.0790    0.9260   -1.2360 c1        1 0LQ     -0.123750
     35 C30         5.8520   -0.1900   -1.5350 c1        1 0LQ     -0.123750
     36 C31         5.2590   -1.3100   -2.0970 c1        1 0LQ     -0.123750
     37 C32         3.8920   -1.3150   -2.3610 c1        1 0LQ     -0.106000
     38 H1         -0.9830    1.1570   -0.8270 h1        1 0LQ      0.093000
     39 H2         -2.4930    0.6730    1.7230 h1        1 0LQ      0.101000
     40 H3         -1.4050   -2.5940    2.6480 ha        1 0LQ      0.156000
     41 H4         -2.7640   -4.3120    3.5090 ha        1 0LQ      0.134667
     42 H5         -4.9780   -3.8270    3.9500 ha        1 0LQ      0.134667
     43 H6         -6.0120   -1.7770    3.6210 ha        1 0LQ      0.132000
     44 H7         -4.5510   -0.0590    2.7280 ha        1 0LQ      0.128000
     45 H8         -0.6320   -1.3680    4.1650 ha        1 0LQ      0.134667
     46 H9          0.4260   -0.4530    6.1330 ha        1 0LQ      0.134667
     47 H10         0.5290    1.8610    6.4880 ha        1 0LQ      0.134667
     48 H11        -0.4240    3.3730    4.8660 ha        1 0LQ      0.134667
     49 H12        -1.4710    2.4860    2.9120 ha        1 0LQ      0.121000
     50 H13        -1.0780   -1.7910   -0.6730 h1        1 0LQ      0.111000
     51 H14        -3.1300   -0.1710   -0.0240 h1        1 0LQ      0.095000
     52 H15        -3.1240   -1.7360   -0.5600 h1        1 0LQ      0.095000
     53 H16        -3.3340    0.4510   -2.1470 hn        1 0LQ      0.152000
     54 H18        -1.2610    1.1190   -2.7490 h1        1 0LQ      0.110500
     55 H19        -0.8130   -0.3240   -2.9210 h1        1 0LQ      0.110500
     56 H20         1.2820   -1.1150   -2.6280 h1        1 0LQ      0.140000
     57 H21         0.7810   -0.6560   -4.9750 ha        1 0LQ      0.142000
     58 H22         0.6140    0.7790   -6.8630 ha        1 0LQ      0.135000
     59 H23         1.0420    3.1120   -6.5630 ha        1 0LQ      0.134667
     60 H24         1.6280    4.0780   -4.4640 ha        1 0LQ      0.134667
     61 H25         1.7700    2.5270   -2.6020 ha        1 0LQ      0.143000
     62 H26         3.1540    1.7150   -1.2860 ha        1 0LQ      0.134667
     63 H27         5.4870    1.7060   -0.8480 ha        1 0LQ      0.134667
     64 H28         6.7780   -0.1870   -1.3550 ha        1 0LQ      0.134667
     65 H29         5.8050   -2.1010   -2.3080 ha        1 0LQ      0.134667
     66 H30         3.4890   -2.0730   -2.7430 ha        1 0LQ      0.142000
@<TRIPOS>BOND
     1    1    2 1   
     2    1   21 1   
     3    1   24 1   
     4    1   38 1   
     5    2    3 1   
     6    2   25 1   
     7    3    4 1   
     8    3    5 1   
     9    5    6 1   
    10    7    8 1   
    11    7   21 1   
    12    8    9 1   
    13    8   15 1   
    14    8   39 1   
    15    9   10 1   
    16    9   14 1   
    17   10   40 1   
    18   11   12 1   
    19   11   41 1   
    20   12   42 1   
    21   13   14 1   
    22   13   43 1   
    23   14   44 1   
    24   15   20 1   
    25   16   17 1   
    26   16   45 1   
    27   17   46 1   
    28   18   19 1   
    29   18   47 1   
    30   19   48 1   
    31   20   49 1   
    32   21   22 1   
    33   21   50 1   
    34   22   23 1   
    35   22   51 1   
    36   22   52 1   
    37   23   24 1   
    38   23   53 1   
    39   24   54 1   
    40   24   55 1   
    41   25   26 1   
    42   25   32 1   
    43   25   56 1   
    44   26   27 1   
    45   26   31 1   
    46   27   28 1   
    47   27   57 1   
    48   28   58 1   
    49   29   30 1   
    50   29   59 1   
    51   30   60 1   
    52   31   61 1   
    53   32   37 1   
    54   33   34 1   
    55   33   62 1   
    56   34   63 1   
    57   35   36 1   
    58   35   64 1   
    59   36   65 1   
    60   37   66 1   
@<TRIPOS>SUBSTRUCTURE
     1 0LQ         1 TEMP              0 ****  ****    0 ROOT
