@<TRIPOS>MOLECULE
0LQ
   66    71     1     0     0
SMALL
bcc


@<TRIPOS>ATOM
      1 C1          0.1040   -0.6830   -0.0720 c3        1 0LQ      0.064200
      2 N1          0.9320    0.4960   -0.1440 n         1 0LQ     -0.455800
      3 C2          0.8230    1.3580    0.9390 c         1 0LQ      0.636500
      4 O1          1.4720    2.4070    1.0640 o         1 0LQ     -0.578000
      5 C3         -0.1760    1.0010    2.0680 c         1 0LQ      0.636500
      6 O2         -0.6750    1.9270    2.7240 o         1 0LQ     -0.578000
      7 N2         -0.5020   -0.3390    2.2990 n         1 0LQ     -0.455800
      8 C4         -1.0280   -0.7080    3.6100 c3        1 0LQ      0.209300
      9 C5         -2.1400   -1.7310    3.5470 ca        1 0LQ     -0.103800
     10 C6         -3.3220   -1.3760    2.8790 ca        1 0LQ     -0.112750
     11 C7         -4.4050   -2.2510    2.8490 ca        1 0LQ     -0.133000
     12 C8         -4.3240   -3.4880    3.4910 ca        1 0LQ     -0.122250
     13 C9         -3.1550   -3.8430    4.1600 ca        1 0LQ     -0.133000
     14 C10        -2.0660   -2.9700    4.1880 ca        1 0LQ     -0.112750
     15 C11         0.0430   -1.0610    4.6200 ca        1 0LQ     -0.103800
     16 C12         0.9800   -2.0770    4.4100 ca        1 0LQ     -0.112750
     17 C13         1.9570   -2.3470    5.3670 ca        1 0LQ     -0.133000
     18 C14         2.0070   -1.6050    6.5470 ca        1 0LQ     -0.122250
     19 C15         1.0750   -0.5900    6.7640 ca        1 0LQ     -0.133000
     20 C16         0.1010   -0.3160    5.8060 ca        1 0LQ     -0.112750
     21 C17         0.1090   -1.2780    1.3920 c3        1 0LQ      0.064200
     22 C18        -0.5340   -2.6710    1.1530 c3        1 0LQ      0.143300
     23 N3         -0.1700   -3.0870   -0.2060 n7        1 0LQ     -0.795200
     24 C19         0.4470   -1.9540   -0.8960 c3        1 0LQ      0.143300
     25 C20         1.7070    0.7660   -1.3460 c3        1 0LQ      0.209300
     26 C21         1.0900    1.7840   -2.2860 ca        1 0LQ     -0.103800
     27 C22         1.0960    1.4860   -3.6560 ca        1 0LQ     -0.112750
     28 C23         0.5510    2.3800   -4.5760 ca        1 0LQ     -0.133000
     29 C24        -0.0130    3.5780   -4.1370 ca        1 0LQ     -0.122250
     30 C25        -0.0210    3.8790   -2.7770 ca        1 0LQ     -0.133000
     31 C26         0.5290    2.9880   -1.8540 ca        1 0LQ     -0.112750
     32 C27         3.1600    1.0890   -1.0710 ca        1 0LQ     -0.103800
     33 C28         4.0880    0.0390   -1.0900 ca        1 0LQ     -0.112750
     34 C29         5.4420    0.2960   -0.8840 ca        1 0LQ     -0.133000
     35 C30         5.8800    1.6010   -0.6540 ca        1 0LQ     -0.122250
     36 C31         4.9580    2.6460   -0.6250 ca        1 0LQ     -0.133000
     37 C32         3.6020    2.3920   -0.8300 ca        1 0LQ     -0.112750
     38 H1         -0.9530   -0.3820   -0.3470 h1        1 0LQ      0.062700
     39 H2         -1.5340    0.2430    3.9950 h1        1 0LQ      0.081700
     40 H3         -3.3940   -0.3960    2.3830 ha        1 0LQ      0.140625
     41 H4         -5.3280   -1.9620    2.3250 ha        1 0LQ      0.134000
     42 H5         -5.1810   -4.1760    3.4710 ha        1 0LQ      0.132750
     43 H6         -3.0860   -4.8140    4.6730 ha        1 0LQ      0.134000
     44 H7         -1.1520   -3.2640    4.7280 ha        1 0LQ      0.140625
     45 H8          0.9490   -2.6770    3.4880 ha        1 0LQ      0.140625
     46 H9          2.6910   -3.1470    5.1890 ha        1 0LQ      0.134000
     47 H10         2.7790   -1.8170    7.3010 ha        1 0LQ      0.132750
     48 H11         1.1110    0.0020    7.6910 ha        1 0LQ      0.134000
     49 H12        -0.6210    0.4970    5.9820 ha        1 0LQ      0.140625
     50 H13         1.1830   -1.4530    1.7100 h1        1 0LQ      0.062700
     51 H14        -1.6470   -2.6320    1.3050 h1        1 0LQ      0.062950
     52 H15        -0.1090   -3.4270    1.8660 h1        1 0LQ      0.062950
     53 H16        -0.9870   -3.3960   -0.6990 hn        1 0LQ      0.359800
     54 H18         0.0820   -1.8560   -1.9510 h1        1 0LQ      0.062950
     55 H19         1.5570   -2.1340   -0.9110 h1        1 0LQ      0.062950
     56 H20         1.7150   -0.2150   -1.9270 h1        1 0LQ      0.081700
     57 H21         1.5400    0.5450   -4.0150 ha        1 0LQ      0.140625
     58 H22         0.5660    2.1380   -5.6480 ha        1 0LQ      0.134000
     59 H23        -0.4450    4.2820   -4.8620 ha        1 0LQ      0.132750
     60 H24        -0.4610    4.8240   -2.4230 ha        1 0LQ      0.134000
     61 H25         0.5240    3.2530   -0.7840 ha        1 0LQ      0.140625
     62 H26         3.7500   -0.9930   -1.2660 ha        1 0LQ      0.140625
     63 H27         6.1650   -0.5330   -0.9010 ha        1 0LQ      0.134000
     64 H28         6.9490    1.8020   -0.4930 ha        1 0LQ      0.132750
     65 H29         5.2960    3.6750   -0.4340 ha        1 0LQ      0.134000
     66 H30         2.8700    3.2150   -0.7790 ha        1 0LQ      0.140625
@<TRIPOS>BOND
     1    1    2 1   
     2    1   21 1   
     3    1   24 1   
     4    1   38 1   
     5    2    3 1   
     6    2   25 1   
     7    3    4 2   
     8    3    5 1   
     9    5    6 2   
    10    5    7 1   
    11    7    8 1   
    12    7   21 1   
    13    8    9 1   
    14    8   15 1   
    15    8   39 1   
    16    9   10 ar  
    17    9   14 ar  
    18   10   11 ar  
    19   10   40 1   
    20   11   12 ar  
    21   11   41 1   
    22   12   13 ar  
    23   12   42 1   
    24   13   14 ar  
    25   13   43 1   
    26   14   44 1   
    27   15   16 ar  
    28   15   20 ar  
    29   16   17 ar  
    30   16   45 1   
    31   17   18 ar  
    32   17   46 1   
    33   18   19 ar  
    34   18   47 1   
    35   19   20 ar  
    36   19   48 1   
    37   20   49 1   
    38   21   22 1   
    39   21   50 1   
    40   22   23 1   
    41   22   51 1   
    42   22   52 1   
    43   23   24 1   
    44   23   53 1   
    45   24   54 1   
    46   24   55 1   
    47   25   26 1   
    48   25   32 1   
    49   25   56 1   
    50   26   27 ar  
    51   26   31 ar  
    52   27   28 ar  
    53   27   57 1   
    54   28   29 ar  
    55   28   58 1   
    56   29   30 ar  
    57   29   59 1   
    58   30   31 ar  
    59   30   60 1   
    60   31   61 1   
    61   32   33 ar  
    62   32   37 ar  
    63   33   34 ar  
    64   33   62 1   
    65   34   35 ar  
    66   34   63 1   
    67   35   36 ar  
    68   35   64 1   
    69   36   37 ar  
    70   36   65 1   
    71   37   66 1   
@<TRIPOS>SUBSTRUCTURE
     1 0LQ         1 TEMP              0 ****  ****    0 ROOT
