@<TRIPOS>MOLECULE
0LQ
   66    71     1     0     0
SMALL
bcc


@<TRIPOS>ATOM
      1 C1          0.1140   -0.7030   -0.0690 c3        1 0LQ      0.064200
      2 N1          0.9340    0.4810   -0.1520 n         1 0LQ     -0.455800
      3 C2          0.8110    1.3580    0.9170 c         1 0LQ      0.636500
      4 O1          1.4520    2.4130    1.0310 o         1 0LQ     -0.578000
      5 C3         -0.1940    1.0110    2.0440 c         1 0LQ      0.636500
      6 O2         -0.7040    1.9430    2.6830 o         1 0LQ     -0.578000
      7 N2         -0.5120   -0.3280    2.2920 n         1 0LQ     -0.455800
      8 C4         -1.0440   -0.6820    3.6040 c3        1 0LQ      0.209300
      9 C5         -2.1480   -1.7140    3.5500 ca        1 0LQ     -0.103800
     10 C6         -3.3280   -1.3770    2.8690 ca        1 0LQ     -0.112750
     11 C7         -4.4040   -2.2610    2.8440 ca        1 0LQ     -0.133000
     12 C8         -4.3180   -3.4880    3.5050 ca        1 0LQ     -0.122250
     13 C9         -3.1510   -3.8240    4.1880 ca        1 0LQ     -0.133000
     14 C10        -2.0690   -2.9420    4.2100 ca        1 0LQ     -0.112750
     15 C11         0.0230   -1.0110    4.6270 ca        1 0LQ     -0.103800
     16 C12         0.9680   -2.0240    4.4380 ca        1 0LQ     -0.112750
     17 C13         1.9410   -2.2720    5.4060 ca        1 0LQ     -0.133000
     18 C14         1.9780   -1.5110    6.5740 ca        1 0LQ     -0.122250
     19 C15         1.0380   -0.5000    6.7700 ca        1 0LQ     -0.133000
     20 C16         0.0690   -0.2470    5.8010 ca        1 0LQ     -0.112750
     21 C17         0.1130   -1.2760    1.4030 c3        1 0LQ      0.064200
     22 C18        -0.5190   -2.6770    1.1800 c3        1 0LQ      0.143300
     23 N3         -0.1430   -3.1100   -0.1700 n3        1 0LQ     -0.795200
     24 C19         0.4710   -1.9830   -0.8720 c3        1 0LQ      0.143300
     25 C20         1.7170    0.7390   -1.3530 c3        1 0LQ      0.209300
     26 C21         1.1010    1.7380   -2.3120 ca        1 0LQ     -0.103800
     27 C22         1.1190    1.4210   -3.6780 ca        1 0LQ     -0.112750
     28 C23         0.5760    2.2970   -4.6140 ca        1 0LQ     -0.133000
     29 C24         0.0020    3.4990   -4.1980 ca        1 0LQ     -0.122250
     30 C25        -0.0200    3.8190   -2.8420 ca        1 0LQ     -0.133000
     31 C26         0.5290    2.9460   -1.9020 ca        1 0LQ     -0.112750
     32 C27         3.1660    1.0750   -1.0710 ca        1 0LQ     -0.103800
     33 C28         4.1010    0.0310   -1.0660 ca        1 0LQ     -0.112750
     34 C29         5.4510    0.2990   -0.8540 ca        1 0LQ     -0.133000
     35 C30         5.8780    1.6100   -0.6390 ca        1 0LQ     -0.122250
     36 C31         4.9500    2.6500   -0.6330 ca        1 0LQ     -0.133000
     37 C32         3.5970    2.3840   -0.8450 ca        1 0LQ     -0.112750
     38 H1         -0.9440   -0.4130   -0.3560 h1        1 0LQ      0.062700
     39 H2         -1.5600    0.2720    3.9720 h1        1 0LQ      0.081700
     40 H3         -3.4040   -0.4060    2.3570 ha        1 0LQ      0.140625
     41 H4         -5.3250   -1.9880    2.3090 ha        1 0LQ      0.134000
     42 H5         -5.1700   -4.1830    3.4900 ha        1 0LQ      0.132750
     43 H6         -3.0790   -4.7870    4.7150 ha        1 0LQ      0.134000
     44 H7         -1.1570   -3.2220    4.7600 ha        1 0LQ      0.140625
     45 H8          0.9470   -2.6390    3.5260 ha        1 0LQ      0.140625
     46 H9          2.6820   -3.0690    5.2440 ha        1 0LQ      0.134000
     47 H10         2.7470   -1.7060    7.3360 ha        1 0LQ      0.132750
     48 H11         1.0650    0.1060    7.6870 ha        1 0LQ      0.134000
     49 H12        -0.6610    0.5630    5.9600 ha        1 0LQ      0.140625
     50 H13         1.1850   -1.4390    1.7310 h1        1 0LQ      0.062700
     51 H14        -0.0940   -3.4190    1.9070 h1        1 0LQ      0.062950
     52 H15        -1.6340   -2.6440    1.3240 h1        1 0LQ      0.062950
     53 H16        -0.9540   -3.4320   -0.6640 hn        1 0LQ      0.359800
     54 H18         0.1140   -1.9030   -1.9310 h1        1 0LQ      0.062950
     55 H19         1.5830   -2.1550   -0.8770 h1        1 0LQ      0.062950
     56 H20         1.7360   -0.2510   -1.9190 h1        1 0LQ      0.081700
     57 H21         1.5720    0.4780   -4.0190 ha        1 0LQ      0.140625
     58 H22         0.6010    2.0400   -5.6830 ha        1 0LQ      0.134000
     59 H23        -0.4300    4.1890   -4.9360 ha        1 0LQ      0.132750
     60 H24        -0.4680    4.7660   -2.5060 ha        1 0LQ      0.134000
     61 H25         0.5140    3.2260   -0.8360 ha        1 0LQ      0.140625
     62 H26         3.7700   -1.0060   -1.2300 ha        1 0LQ      0.140625
     63 H27         6.1790   -0.5250   -0.8530 ha        1 0LQ      0.134000
     64 H28         6.9450    1.8210   -0.4720 ha        1 0LQ      0.132750
     65 H29         5.2800    3.6830   -0.4540 ha        1 0LQ      0.134000
     66 H30         2.8600    3.2030   -0.8120 ha        1 0LQ      0.140625
@<TRIPOS>BOND
     1    1    2 1   
     2    1   21 1   
     3    1   24 1   
     4    1   38 1   
     5    2    3 1   
     6    2   25 1   
     7    3    4 2   
     8    3    5 1   
     9    5    6 2   
    10    5    7 1   
    11    7    8 1   
    12    7   21 1   
    13    8    9 1   
    14    8   15 1   
    15    8   39 1   
    16    9   10 ar  
    17    9   14 ar  
    18   10   11 ar  
    19   10   40 1   
    20   11   12 ar  
    21   11   41 1   
    22   12   13 ar  
    23   12   42 1   
    24   13   14 ar  
    25   13   43 1   
    26   14   44 1   
    27   15   16 ar  
    28   15   20 ar  
    29   16   17 ar  
    30   16   45 1   
    31   17   18 ar  
    32   17   46 1   
    33   18   19 ar  
    34   18   47 1   
    35   19   20 ar  
    36   19   48 1   
    37   20   49 1   
    38   21   22 1   
    39   21   50 1   
    40   22   23 1   
    41   22   51 1   
    42   22   52 1   
    43   23   24 1   
    44   23   53 1   
    45   24   54 1   
    46   24   55 1   
    47   25   26 1   
    48   25   32 1   
    49   25   56 1   
    50   26   27 ar  
    51   26   31 ar  
    52   27   28 ar  
    53   27   57 1   
    54   28   29 ar  
    55   28   58 1   
    56   29   30 ar  
    57   29   59 1   
    58   30   31 ar  
    59   30   60 1   
    60   31   61 1   
    61   32   33 ar  
    62   32   37 ar  
    63   33   34 ar  
    64   33   62 1   
    65   34   35 ar  
    66   34   63 1   
    67   35   36 ar  
    68   35   64 1   
    69   36   37 ar  
    70   36   65 1   
    71   37   66 1   
@<TRIPOS>SUBSTRUCTURE
     1 0LQ         1 TEMP              0 ****  ****    0 ROOT
