@<TRIPOS>MOLECULE
0LQ
   66    71     1     0     0
SMALL
bcc


@<TRIPOS>ATOM
      1 C1         -0.6160    1.2700    0.3640 c3        1 0LQ      0.064200
      2 N1         -1.4610    0.3400   -0.3440 n         1 0LQ     -0.455800
      3 C2         -0.8240   -0.4000   -1.3310 c         1 0LQ      0.636500
      4 O1         -1.3820   -1.2620   -2.0260 o         1 0LQ     -0.578000
      5 C3          0.6790   -0.1360   -1.5960 c         1 0LQ      0.636500
      6 O2          1.1210   -0.3490   -2.7350 o         1 0LQ     -0.578000
      7 N2          1.4840    0.3520   -0.5620 n         1 0LQ     -0.455800
      8 C4          2.9260    0.1470   -0.6500 c3        1 0LQ      0.209300
      9 C5          3.7350    1.3340   -0.1780 ca        1 0LQ     -0.103550
     10 C6          3.5990    2.5420   -0.8810 ca        1 0LQ     -0.112750
     11 C7          4.3690    3.6490   -0.5350 ca        1 0LQ     -0.133000
     12 C8          5.2900    3.5630    0.5110 ca        1 0LQ     -0.122250
     13 C9          5.4330    2.3650    1.2080 ca        1 0LQ     -0.133000
     14 C10         4.6590    1.2540    0.8670 ca        1 0LQ     -0.112750
     15 C11         3.3940   -1.1620   -0.0490 ca        1 0LQ     -0.103550
     16 C12         3.1510   -1.5160    1.2810 ca        1 0LQ     -0.112750
     17 C13         3.5890   -2.7440    1.7770 ca        1 0LQ     -0.133000
     18 C14         4.2760   -3.6300    0.9480 ca        1 0LQ     -0.122250
     19 C15         4.5230   -3.2830   -0.3800 ca        1 0LQ     -0.133000
     20 C16         4.0810   -2.0590   -0.8780 ca        1 0LQ     -0.112750
     21 C17         0.7900    0.6190    0.6730 c3        1 0LQ      0.064200
     22 C18         1.3710    1.6320    1.6980 c3        1 0LQ      0.143300
     23 N3          0.2360    2.2030    2.4310 n3        1 0LQ     -0.795200
     24 C19        -1.0040    1.7910    1.7740 c3        1 0LQ      0.143300
     25 C20        -2.8930    0.3170   -0.0820 c3        1 0LQ      0.209300
     26 C21        -3.7390    1.0510   -1.1050 ca        1 0LQ     -0.103550
     27 C22        -4.7610    1.8810   -0.6230 ca        1 0LQ     -0.112750
     28 C23        -5.5800    2.5800   -1.5080 ca        1 0LQ     -0.133000
     29 C24        -5.3820    2.4640   -2.8840 ca        1 0LQ     -0.122250
     30 C25        -4.3680    1.6410   -3.3680 ca        1 0LQ     -0.133000
     31 C26        -3.5500    0.9350   -2.4840 ca        1 0LQ     -0.112750
     32 C27        -3.4390   -1.0700    0.1820 ca        1 0LQ     -0.103550
     33 C28        -3.5090   -1.5140    1.5090 ca        1 0LQ     -0.112750
     34 C29        -4.0440   -2.7660    1.8030 ca        1 0LQ     -0.133000
     35 C30        -4.5090   -3.5870    0.7750 ca        1 0LQ     -0.122250
     36 C31        -4.4310   -3.1530   -0.5470 ca        1 0LQ     -0.133000
     37 C32        -3.8960   -1.8990   -0.8450 ca        1 0LQ     -0.112750
     38 H1         -0.4670    2.1780   -0.2980 h1        1 0LQ      0.062700
     39 H2          3.1400    0.0810   -1.7720 h1        1 0LQ      0.081700
     40 H3          2.8830    2.6100   -1.7140 ha        1 0LQ      0.140625
     41 H4          4.2560    4.5910   -1.0920 ha        1 0LQ      0.134000
     42 H5          5.9020    4.4360    0.7800 ha        1 0LQ      0.132750
     43 H6          6.1610    2.2880    2.0290 ha        1 0LQ      0.134000
     44 H7          4.7900    0.3140    1.4240 ha        1 0LQ      0.140625
     45 H8          2.6180   -0.8250    1.9500 ha        1 0LQ      0.140625
     46 H9          3.3880   -3.0130    2.8240 ha        1 0LQ      0.134000
     47 H10         4.6200   -4.5990    1.3390 ha        1 0LQ      0.132750
     48 H11         5.0620   -3.9790   -1.0400 ha        1 0LQ      0.134000
     49 H12         4.2700   -1.8010   -1.9330 ha        1 0LQ      0.140625
     50 H13         0.6260   -0.3580    1.2230 h1        1 0LQ      0.062700
     51 H14         2.0280    1.1050    2.4410 h1        1 0LQ      0.062950
     52 H15         1.9870    2.4180    1.1820 h1        1 0LQ      0.062950
     53 H16         0.3100    3.2030    2.4500 hn        1 0LQ      0.359800
     54 H18        -1.7390    2.6350    1.7000 h1        1 0LQ      0.062950
     55 H19        -1.4570    0.9700    2.3940 h1        1 0LQ      0.062950
     56 H20        -3.0310    0.8920    0.8920 h1        1 0LQ      0.081700
     57 H21        -4.9290    1.9780    0.4600 ha        1 0LQ      0.140625
     58 H22        -6.3820    3.2240   -1.1180 ha        1 0LQ      0.134000
     59 H23        -6.0260    3.0180   -3.5820 ha        1 0LQ      0.132750
     60 H24        -4.2080    1.5420   -4.4520 ha        1 0LQ      0.134000
     61 H25        -2.7630    0.2790   -2.8900 ha        1 0LQ      0.140625
     62 H26        -3.1400   -0.8740    2.3250 ha        1 0LQ      0.140625
     63 H27        -4.0970   -3.1080    2.8470 ha        1 0LQ      0.134000
     64 H28        -4.9310   -4.5750    1.0080 ha        1 0LQ      0.132750
     65 H29        -4.7870   -3.8000   -1.3620 ha        1 0LQ      0.134000
     66 H30        -3.8090   -1.5680   -1.8930 ha        1 0LQ      0.140625
@<TRIPOS>BOND
     1    1    2 1   
     2    1   21 1   
     3    1   24 1   
     4    1   38 1   
     5    2    3 1   
     6    2   25 1   
     7    3    4 2   
     8    3    5 1   
     9    5    6 2   
    10    5    7 1   
    11    7    8 1   
    12    7   21 1   
    13    8    9 1   
    14    8   15 1   
    15    8   39 1   
    16    9   10 ar  
    17    9   14 ar  
    18   10   11 ar  
    19   10   40 1   
    20   11   12 ar  
    21   11   41 1   
    22   12   13 ar  
    23   12   42 1   
    24   13   14 ar  
    25   13   43 1   
    26   14   44 1   
    27   15   16 ar  
    28   15   20 ar  
    29   16   17 ar  
    30   16   45 1   
    31   17   18 ar  
    32   17   46 1   
    33   18   19 ar  
    34   18   47 1   
    35   19   20 ar  
    36   19   48 1   
    37   20   49 1   
    38   21   22 1   
    39   21   50 1   
    40   22   23 1   
    41   22   51 1   
    42   22   52 1   
    43   23   24 1   
    44   23   53 1   
    45   24   54 1   
    46   24   55 1   
    47   25   26 1   
    48   25   32 1   
    49   25   56 1   
    50   26   27 ar  
    51   26   31 ar  
    52   27   28 ar  
    53   27   57 1   
    54   28   29 ar  
    55   28   58 1   
    56   29   30 ar  
    57   29   59 1   
    58   30   31 ar  
    59   30   60 1   
    60   31   61 1   
    61   32   33 ar  
    62   32   37 ar  
    63   33   34 ar  
    64   33   62 1   
    65   34   35 ar  
    66   34   63 1   
    67   35   36 ar  
    68   35   64 1   
    69   36   37 ar  
    70   36   65 1   
    71   37   66 1   
@<TRIPOS>SUBSTRUCTURE
     1 0LQ         1 TEMP              0 ****  ****    0 ROOT
