@<TRIPOS>MOLECULE
0LQ
   66    71     1     0     0
SMALL
bcc


@<TRIPOS>ATOM
      1 C1          0.1560   -0.7120   -0.0780 c3        1 0LQ      0.064200
      2 N1          0.9260    0.5060   -0.1390 n         1 0LQ     -0.455800
      3 C2          0.7480    1.3700    0.9330 c         1 0LQ      0.636500
      4 O1          1.3420    2.4500    1.0650 o         1 0LQ     -0.578000
      5 C3         -0.2610    0.9730    2.0400 c         1 0LQ      0.636500
      6 O2         -0.8210    1.8780    2.6750 o         1 0LQ     -0.578000
      7 N2         -0.5260   -0.3800    2.2740 n         1 0LQ     -0.455800
      8 C4         -1.0680   -0.7650    3.5740 c3        1 0LQ      0.209300
      9 C5         -2.1270   -1.8410    3.4920 ca        1 0LQ     -0.103800
     10 C6         -3.3070   -1.5480    2.7920 ca        1 0LQ     -0.112750
     11 C7         -4.3450   -2.4750    2.7420 ca        1 0LQ     -0.133000
     12 C8         -4.2200   -3.7030    3.3950 ca        1 0LQ     -0.122250
     13 C9         -3.0530   -3.9960    4.0960 ca        1 0LQ     -0.133000
     14 C10        -2.0080   -3.0700    4.1450 ca        1 0LQ     -0.112750
     15 C11        -0.0070   -1.0570    4.6140 ca        1 0LQ     -0.103800
     16 C12         0.9830   -2.0280    4.4370 ca        1 0LQ     -0.112750
     17 C13         1.9470   -2.2420    5.4210 ca        1 0LQ     -0.133000
     18 C14         1.9300   -1.4900    6.5950 ca        1 0LQ     -0.122250
     19 C15         0.9440   -0.5210    6.7800 ca        1 0LQ     -0.133000
     20 C16        -0.0170   -0.3020    5.7950 ca        1 0LQ     -0.112750
     21 C17         0.1520   -1.2950    1.3910 c3        1 0LQ      0.064200
     22 C18        -0.4150   -2.7190    1.1470 c3        1 0LQ      0.143300
     23 N3          0.0030   -3.1270   -0.1980 n3        1 0LQ     -0.795200
     24 C19         0.5810   -1.9700   -0.8820 c3        1 0LQ      0.143300
     25 C20         1.7170    0.8050   -1.3250 c3        1 0LQ      0.209300
     26 C21         1.0750    1.7840   -2.2880 ca        1 0LQ     -0.103800
     27 C22         1.1290    1.4770   -3.6550 ca        1 0LQ     -0.112750
     28 C23         0.5630    2.3350   -4.5950 ca        1 0LQ     -0.133000
     29 C24        -0.0680    3.5080   -4.1810 ca        1 0LQ     -0.122250
     30 C25        -0.1250    3.8180   -2.8240 ca        1 0LQ     -0.133000
     31 C26         0.4450    2.9630   -1.8800 ca        1 0LQ     -0.112750
     32 C27         3.1460    1.2010   -1.0170 ca        1 0LQ     -0.103800
     33 C28         4.1240    0.1980   -1.0030 ca        1 0LQ     -0.112750
     34 C29         5.4580    0.5220   -0.7670 ca        1 0LQ     -0.133000
     35 C30         5.8250    1.8490   -0.5380 ca        1 0LQ     -0.122250
     36 C31         4.8530    2.8480   -0.5410 ca        1 0LQ     -0.133000
     37 C32         3.5170    2.5260   -0.7760 ca        1 0LQ     -0.112750
     38 H1         -0.9080   -0.4650   -0.3820 h1        1 0LQ      0.062700
     39 H2         -1.6290    0.1640    3.9380 h1        1 0LQ      0.081700
     40 H3         -3.4150   -0.5760    2.2860 ha        1 0LQ      0.140625
     41 H4         -5.2670   -2.2360    2.1920 ha        1 0LQ      0.134000
     42 H5         -5.0420   -4.4320    3.3600 ha        1 0LQ      0.132750
     43 H6         -2.9500   -4.9580    4.6180 ha        1 0LQ      0.134000
     44 H7         -1.0950   -3.3160    4.7090 ha        1 0LQ      0.140625
     45 H8          1.0050   -2.6350    3.5200 ha        1 0LQ      0.140625
     46 H9          2.7240   -3.0060    5.2680 ha        1 0LQ      0.134000
     47 H10         2.6910   -1.6590    7.3700 ha        1 0LQ      0.132750
     48 H11         0.9270    0.0780    7.7030 ha        1 0LQ      0.134000
     49 H12        -0.7820    0.4750    5.9460 ha        1 0LQ      0.140625
     50 H13         1.2250   -1.4150    1.7370 h1        1 0LQ      0.062700
     51 H14        -1.5330   -2.7340    1.2720 h1        1 0LQ      0.062950
     52 H15         0.0270   -3.4480    1.8780 h1        1 0LQ      0.062950
     53 H16        -0.7850   -3.4800   -0.7090 hn        1 0LQ      0.359800
     54 H18         0.2390   -1.8990   -1.9470 h1        1 0LQ      0.062950
     55 H19         1.6990   -2.0960   -0.8680 h1        1 0LQ      0.062950
     56 H20         1.7880   -0.1790   -1.8960 h1        1 0LQ      0.081700
     57 H21         1.6270    0.5560   -3.9940 ha        1 0LQ      0.140625
     58 H22         0.6160    2.0860   -5.6650 ha        1 0LQ      0.134000
     59 H23        -0.5170    4.1840   -4.9230 ha        1 0LQ      0.132750
     60 H24        -0.6190    4.7430   -2.4900 ha        1 0LQ      0.134000
     61 H25         0.4010    3.2350   -0.8130 ha        1 0LQ      0.140625
     62 H26         3.8410   -0.8510   -1.1790 ha        1 0LQ      0.140625
     63 H27         6.2210   -0.2700   -0.7590 ha        1 0LQ      0.134000
     64 H28         6.8790    2.1040   -0.3520 ha        1 0LQ      0.132750
     65 H29         5.1360    3.8930   -0.3500 ha        1 0LQ      0.134000
     66 H30         2.7440    3.3120   -0.7510 ha        1 0LQ      0.140625
@<TRIPOS>BOND
     1    1    2 1   
     2    1   21 1   
     3    1   24 1   
     4    1   38 1   
     5    2    3 1   
     6    2   25 1   
     7    3    4 2   
     8    3    5 1   
     9    5    6 2   
    10    5    7 1   
    11    7    8 1   
    12    7   21 1   
    13    8    9 1   
    14    8   15 1   
    15    8   39 1   
    16    9   10 ar  
    17    9   14 ar  
    18   10   11 ar  
    19   10   40 1   
    20   11   12 ar  
    21   11   41 1   
    22   12   13 ar  
    23   12   42 1   
    24   13   14 ar  
    25   13   43 1   
    26   14   44 1   
    27   15   16 ar  
    28   15   20 ar  
    29   16   17 ar  
    30   16   45 1   
    31   17   18 ar  
    32   17   46 1   
    33   18   19 ar  
    34   18   47 1   
    35   19   20 ar  
    36   19   48 1   
    37   20   49 1   
    38   21   22 1   
    39   21   50 1   
    40   22   23 1   
    41   22   51 1   
    42   22   52 1   
    43   23   24 1   
    44   23   53 1   
    45   24   54 1   
    46   24   55 1   
    47   25   26 1   
    48   25   32 1   
    49   25   56 1   
    50   26   27 ar  
    51   26   31 ar  
    52   27   28 ar  
    53   27   57 1   
    54   28   29 ar  
    55   28   58 1   
    56   29   30 ar  
    57   29   59 1   
    58   30   31 ar  
    59   30   60 1   
    60   31   61 1   
    61   32   33 ar  
    62   32   37 ar  
    63   33   34 ar  
    64   33   62 1   
    65   34   35 ar  
    66   34   63 1   
    67   35   36 ar  
    68   35   64 1   
    69   36   37 ar  
    70   36   65 1   
    71   37   66 1   
@<TRIPOS>SUBSTRUCTURE
     1 0LQ         1 TEMP              0 ****  ****    0 ROOT
