@<TRIPOS>MOLECULE
0LR
   47    50     1     0     0
SMALL
bcc


@<TRIPOS>ATOM
      1 C1         -1.8230   -3.7050    0.1100 ca        1 0LR     -0.129000
      2 C2         -2.0320   -2.4800   -0.5220 ca        1 0LR     -0.124000
      3 C3         -2.6570   -1.4280    0.1600 ca        1 0LR     -0.068300
      4 C4         -3.0670   -1.6240    1.4840 ca        1 0LR     -0.124000
      5 C5         -2.8570   -2.8490    2.1140 ca        1 0LR     -0.129000
      6 C6         -2.2360   -3.8920    1.4290 ca        1 0LR     -0.131000
      7 C7         -2.8850   -0.1230   -0.5340 c3        1 0LR     -0.020400
      8 C8         -2.1510    1.0320    0.1660 c3        1 0LR      0.149100
      9 C9         -4.6360    1.5460   -1.2480 c3        1 0LR      0.158800
     10 C10        -4.3750    0.1860   -0.6070 c3        1 0LR     -0.073400
     11 N11        -3.9200    2.6200   -0.5880 n3        1 0LR     -0.817200
     12 C12        -2.4950    2.3850   -0.4890 c3        1 0LR      0.133800
     13 O13        -0.7500    0.8090   -0.0190 os        1 0LR     -0.419600
     14 C14         0.0390    1.3410    1.0460 c3        1 0LR      0.176700
     15 C15         1.4840    1.1570    0.7220 ca        1 0LR     -0.089300
     16 C16         2.4290    1.8390    1.5380 ca        1 0LR     -0.126000
     17 C17         3.7730    1.7030    1.3070 ca        1 0LR     -0.118000
     18 C18         1.9180    0.3530   -0.3060 ca        1 0LR     -0.088000
     19 C19         3.3080    0.1980   -0.5660 ca        1 0LR     -0.038000
     20 C20         4.2480    0.8790    0.2490 ca        1 0LR     -0.037000
     21 C21         5.6360    0.7210   -0.0130 ca        1 0LR     -0.119000
     22 C22         6.0630   -0.0810   -1.0420 ca        1 0LR     -0.127000
     23 C23         5.1260   -0.7610   -1.8560 ca        1 0LR     -0.130000
     24 C24         3.7790   -0.6260   -1.6240 ca        1 0LR     -0.114000
     25 H1         -1.3300   -4.5240   -0.4340 ha        1 0LR      0.130000
     26 H2         -1.6980   -2.3370   -1.5600 ha        1 0LR      0.131500
     27 H3         -3.5580   -0.8060    2.0330 ha        1 0LR      0.131500
     28 H4         -3.1830   -2.9920    3.1550 ha        1 0LR      0.130000
     29 H5         -2.0700   -4.8580    1.9270 ha        1 0LR      0.130000
     30 H6         -2.4780   -0.1880   -1.5840 hc        1 0LR      0.066700
     31 H7         -2.4140    1.0460    1.2580 h1        1 0LR      0.055700
     32 H8         -4.3770    1.4750   -2.3460 h1        1 0LR      0.030200
     33 H9         -5.7350    1.7800   -1.1730 h1        1 0LR      0.030200
     34 H10        -4.8880   -0.6010   -1.2160 hc        1 0LR      0.053700
     35 H11        -4.8170    0.1630    0.4240 hc        1 0LR      0.053700
     36 H12        -4.0870    3.4870   -1.0650 hn        1 0LR      0.364800
     37 H14        -2.0580    3.2090    0.1420 h1        1 0LR      0.038700
     38 H15        -1.9770    2.4150   -1.4930 h1        1 0LR      0.038700
     39 H16        -0.1930    2.4340    1.1760 h1        1 0LR      0.038700
     40 H17        -0.2120    0.7980    1.9990 h1        1 0LR      0.038700
     41 H18         2.0620    2.4780    2.3550 ha        1 0LR      0.130000
     42 H19         4.5080    2.2280    1.9350 ha        1 0LR      0.132000
     43 H20         1.1920   -0.1790   -0.9420 ha        1 0LR      0.153000
     44 H21         6.3570    1.2540    0.6250 ha        1 0LR      0.131000
     45 H22         7.1370   -0.2050   -1.2470 ha        1 0LR      0.131000
     46 H23         5.4930   -1.3980   -2.6740 ha        1 0LR      0.131000
     47 H24         3.0420   -1.1510   -2.2510 ha        1 0LR      0.133000
@<TRIPOS>BOND
     1    1    2 ar  
     2    1    6 ar  
     3    1   25 1   
     4    2    3 ar  
     5    2   26 1   
     6    3    4 ar  
     7    3    7 1   
     8    4    5 ar  
     9    4   27 1   
    10    5    6 ar  
    11    5   28 1   
    12    6   29 1   
    13    7    8 1   
    14    7   10 1   
    15    7   30 1   
    16    8   12 1   
    17    8   13 1   
    18    8   31 1   
    19    9   10 1   
    20    9   11 1   
    21    9   32 1   
    22    9   33 1   
    23   10   34 1   
    24   10   35 1   
    25   11   12 1   
    26   11   36 1   
    27   12   37 1   
    28   12   38 1   
    29   13   14 1   
    30   14   15 1   
    31   14   39 1   
    32   14   40 1   
    33   15   16 ar  
    34   15   18 ar  
    35   16   17 ar  
    36   16   41 1   
    37   17   20 ar  
    38   17   42 1   
    39   18   19 ar  
    40   18   43 1   
    41   19   20 ar  
    42   19   24 ar  
    43   20   21 ar  
    44   21   22 ar  
    45   21   44 1   
    46   22   23 ar  
    47   22   45 1   
    48   23   24 ar  
    49   23   46 1   
    50   24   47 1   
@<TRIPOS>SUBSTRUCTURE
     1 0LR         1 TEMP              0 ****  ****    0 ROOT
