@<TRIPOS>MOLECULE
0LR
   47    50     1     0     0
SMALL
bcc


@<TRIPOS>ATOM
      1 C1         -0.5610   -0.1050    1.2600 ca        1 0LR     -0.129000
      2 C2          0.7610   -0.1190    0.8170 ca        1 0LR     -0.124000
      3 C3          1.8160   -0.0400    1.7340 ca        1 0LR     -0.068300
      4 C4          1.5250    0.0520    3.1010 ca        1 0LR     -0.124000
      5 C5          0.2030    0.0660    3.5410 ca        1 0LR     -0.129000
      6 C6         -0.8430   -0.0120    2.6220 ca        1 0LR     -0.131000
      7 C7          3.2300   -0.0450    1.2450 c3        1 0LR     -0.020400
      8 C8          4.0180   -1.2470    1.7880 c3        1 0LR      0.149100
      9 C9          5.3970    1.2440    1.2130 c3        1 0LR      0.158800
     10 C10         3.9320    1.2490    1.6390 c3        1 0LR     -0.073400
     11 N11         6.1210    0.0930    1.7160 n7        1 0LR     -0.818200
     12 C12         5.5020   -1.1690    1.3730 c3        1 0LR      0.133800
     13 O13         3.4630   -2.4180    1.1820 os        1 0LR     -0.419600
     14 C14         3.5910   -3.5790    2.0050 c3        1 0LR      0.176700
     15 C15         3.0750   -4.7640    1.2590 ca        1 0LR     -0.089300
     16 C16         3.3580   -6.0500    1.7980 ca        1 0LR     -0.125000
     17 C17         2.9010   -7.1810    1.1730 ca        1 0LR     -0.118000
     18 C18         2.3390   -4.6510    0.1020 ca        1 0LR     -0.088000
     19 C19         1.8570   -5.8100   -0.5640 ca        1 0LR     -0.038000
     20 C20         2.1390   -7.0910   -0.0240 ca        1 0LR     -0.037000
     21 C21         1.6550   -8.2480   -0.6930 ca        1 0LR     -0.119000
     22 C22         0.9220   -8.1290   -1.8480 ca        1 0LR     -0.127000
     23 C23         0.6390   -6.8510   -2.3880 ca        1 0LR     -0.130000
     24 C24         1.0950   -5.7170   -1.7620 ca        1 0LR     -0.114000
     25 H1         -1.3820   -0.1700    0.5310 ha        1 0LR      0.130000
     26 H2          0.9760   -0.2000   -0.2590 ha        1 0LR      0.131500
     27 H3          2.3450    0.1140    3.8330 ha        1 0LR      0.131500
     28 H4         -0.0150    0.1380    4.6170 ha        1 0LR      0.130000
     29 H5         -1.8860   -0.0020    2.9700 ha        1 0LR      0.130000
     30 H6          3.2290   -0.1270    0.1200 hc        1 0LR      0.066700
     31 H7          3.9250   -1.2920    2.9070 h1        1 0LR      0.055700
     32 H8          5.4380    1.3120    0.0850 h1        1 0LR      0.030200
     33 H9          5.9000    2.1630    1.6270 h1        1 0LR      0.030200
     34 H10         3.8610    1.3950    2.7490 hc        1 0LR      0.053700
     35 H11         3.4190    2.1150    1.1470 hc        1 0LR      0.053700
     36 H12         7.0660    0.1090    1.3810 hn        1 0LR      0.364800
     37 H14         5.5550   -1.3940    0.2670 h1        1 0LR      0.038700
     38 H15         6.0670   -1.9810    1.9110 h1        1 0LR      0.038700
     39 H16         4.6710   -3.7300    2.2760 h1        1 0LR      0.038700
     40 H17         2.9940   -3.4310    2.9480 h1        1 0LR      0.038700
     41 H18         3.9490   -6.1190    2.7240 ha        1 0LR      0.130000
     42 H19         3.1160   -8.1780    1.5870 ha        1 0LR      0.132000
     43 H20         2.1160   -3.6580   -0.3210 ha        1 0LR      0.153000
     44 H21         1.8790   -9.2370   -0.2660 ha        1 0LR      0.131000
     45 H22         0.5450   -9.0230   -2.3670 ha        1 0LR      0.131000
     46 H23         0.0500   -6.7810   -3.3140 ha        1 0LR      0.131000
     47 H24         0.8810   -4.7190   -2.1730 ha        1 0LR      0.133000
@<TRIPOS>BOND
     1    1    2 ar  
     2    1    6 ar  
     3    1   25 1   
     4    2    3 ar  
     5    2   26 1   
     6    3    4 ar  
     7    3    7 1   
     8    4    5 ar  
     9    4   27 1   
    10    5    6 ar  
    11    5   28 1   
    12    6   29 1   
    13    7    8 1   
    14    7   10 1   
    15    7   30 1   
    16    8   12 1   
    17    8   13 1   
    18    8   31 1   
    19    9   10 1   
    20    9   11 1   
    21    9   32 1   
    22    9   33 1   
    23   10   34 1   
    24   10   35 1   
    25   11   12 1   
    26   11   36 1   
    27   12   37 1   
    28   12   38 1   
    29   13   14 1   
    30   14   15 1   
    31   14   39 1   
    32   14   40 1   
    33   15   16 ar  
    34   15   18 ar  
    35   16   17 ar  
    36   16   41 1   
    37   17   20 ar  
    38   17   42 1   
    39   18   19 ar  
    40   18   43 1   
    41   19   20 ar  
    42   19   24 ar  
    43   20   21 ar  
    44   21   22 ar  
    45   21   44 1   
    46   22   23 ar  
    47   22   45 1   
    48   23   24 ar  
    49   23   46 1   
    50   24   47 1   
@<TRIPOS>SUBSTRUCTURE
     1 0LR         1 TEMP              0 ****  ****    0 ROOT
