@<TRIPOS>MOLECULE
0LR
   47    50     1     0     0
SMALL
bcc


@<TRIPOS>ATOM
      1 C1         -0.5620   -0.1090    1.2350 ca        1 0LR     -0.129000
      2 C2          0.7650   -0.1210    0.8090 ca        1 0LR     -0.124000
      3 C3          1.8090   -0.0460    1.7390 ca        1 0LR     -0.068300
      4 C4          1.5010    0.0400    3.1030 ca        1 0LR     -0.124000
      5 C5          0.1730    0.0520    3.5270 ca        1 0LR     -0.129000
      6 C6         -0.8610   -0.0220    2.5950 ca        1 0LR     -0.131000
      7 C7          3.2280   -0.0490    1.2670 c3        1 0LR     -0.020400
      8 C8          4.0090   -1.2540    1.8140 c3        1 0LR      0.149100
      9 C9          5.3960    1.2400    1.2680 c3        1 0LR      0.158800
     10 C10         3.9260    1.2430    1.6760 c3        1 0LR     -0.073400
     11 N11         6.1130    0.0860    1.7740 n3        1 0LR     -0.818200
     12 C12         5.4980   -1.1750    1.4170 c3        1 0LR      0.133800
     13 O13         3.4610   -2.4220    1.1970 os        1 0LR     -0.419600
     14 C14         3.5790   -3.5860    2.0160 c3        1 0LR      0.176700
     15 C15         3.0720   -4.7680    1.2580 ca        1 0LR     -0.089300
     16 C16         3.3480   -6.0560    1.7950 ca        1 0LR     -0.125000
     17 C17         2.8980   -7.1850    1.1600 ca        1 0LR     -0.119000
     18 C18         2.3480   -4.6490    0.0950 ca        1 0LR     -0.088000
     19 C19         1.8730   -5.8060   -0.5830 ca        1 0LR     -0.038000
     20 C20         2.1500   -7.0890   -0.0450 ca        1 0LR     -0.037000
     21 C21         1.6730   -8.2420   -0.7250 ca        1 0LR     -0.119000
     22 C22         0.9520   -8.1180   -1.8870 ca        1 0LR     -0.127000
     23 C23         0.6760   -6.8380   -2.4240 ca        1 0LR     -0.130000
     24 C24         1.1250   -5.7070   -1.7880 ca        1 0LR     -0.114000
     25 H1         -1.3750   -0.1700    0.4960 ha        1 0LR      0.130000
     26 H2          0.9930   -0.1960   -0.2650 ha        1 0LR      0.131500
     27 H3          2.3110    0.0990    3.8450 ha        1 0LR      0.131500
     28 H4         -0.0580    0.1190    4.6000 ha        1 0LR      0.130000
     29 H5         -1.9080   -0.0130    2.9300 ha        1 0LR      0.130000
     30 H6          3.2410   -0.1260    0.1420 hc        1 0LR      0.066700
     31 H7          3.9030   -1.3040    2.9320 h1        1 0LR      0.055700
     32 H8          5.4510    1.3140    0.1410 h1        1 0LR      0.030200
     33 H9          5.8950    2.1570    1.6930 h1        1 0LR      0.030200
     34 H10         3.8410    1.3830    2.7860 hc        1 0LR      0.053700
     35 H11         3.4190    2.1110    1.1830 hc        1 0LR      0.053700
     36 H12         7.0630    0.1030    1.4500 hn        1 0LR      0.364800
     37 H14         5.5640   -1.3940    0.3100 h1        1 0LR      0.038700
     38 H15         6.0560   -1.9900    1.9580 h1        1 0LR      0.038700
     39 H16         4.6560   -3.7390    2.3000 h1        1 0LR      0.038700
     40 H17         2.9710   -3.4420    2.9520 h1        1 0LR      0.038700
     41 H18         3.9290   -6.1300    2.7270 ha        1 0LR      0.130000
     42 H19         3.1090   -8.1830    1.5710 ha        1 0LR      0.132000
     43 H20         2.1300   -3.6550   -0.3270 ha        1 0LR      0.153000
     44 H21         1.8920   -9.2330   -0.2990 ha        1 0LR      0.131000
     45 H22         0.5820   -9.0090   -2.4150 ha        1 0LR      0.131000
     46 H23         0.0970   -6.7640   -3.3560 ha        1 0LR      0.131000
     47 H24         0.9160   -4.7070   -2.1970 ha        1 0LR      0.133000
@<TRIPOS>BOND
     1    1    2 ar  
     2    1    6 ar  
     3    1   25 1   
     4    2    3 ar  
     5    2   26 1   
     6    3    4 ar  
     7    3    7 1   
     8    4    5 ar  
     9    4   27 1   
    10    5    6 ar  
    11    5   28 1   
    12    6   29 1   
    13    7    8 1   
    14    7   10 1   
    15    7   30 1   
    16    8   12 1   
    17    8   13 1   
    18    8   31 1   
    19    9   10 1   
    20    9   11 1   
    21    9   32 1   
    22    9   33 1   
    23   10   34 1   
    24   10   35 1   
    25   11   12 1   
    26   11   36 1   
    27   12   37 1   
    28   12   38 1   
    29   13   14 1   
    30   14   15 1   
    31   14   39 1   
    32   14   40 1   
    33   15   16 ar  
    34   15   18 ar  
    35   16   17 ar  
    36   16   41 1   
    37   17   20 ar  
    38   17   42 1   
    39   18   19 ar  
    40   18   43 1   
    41   19   20 ar  
    42   19   24 ar  
    43   20   21 ar  
    44   21   22 ar  
    45   21   44 1   
    46   22   23 ar  
    47   22   45 1   
    48   23   24 ar  
    49   23   46 1   
    50   24   47 1   
@<TRIPOS>SUBSTRUCTURE
     1 0LR         1 TEMP              0 ****  ****    0 ROOT
