@<TRIPOS>MOLECULE
0LR
   47    50     1     0     0
SMALL
bcc


@<TRIPOS>ATOM
      1 C1         -0.5230   -0.0370    1.1020 ca        1 0LR     -0.129000
      2 C2          0.8110   -0.0890    0.7020 ca        1 0LR     -0.124000
      3 C3          1.8380   -0.0060    1.6510 ca        1 0LR     -0.068300
      4 C4          1.5060    0.1280    3.0050 ca        1 0LR     -0.124000
      5 C5          0.1710    0.1800    3.4020 ca        1 0LR     -0.129000
      6 C6         -0.8460    0.0990    2.4510 ca        1 0LR     -0.131000
      7 C7          3.2660   -0.0530    1.2070 c3        1 0LR     -0.020400
      8 C8          4.0110   -1.2560    1.8060 c3        1 0LR      0.149100
      9 C9          5.4610    1.1900    1.2130 c3        1 0LR      0.158800
     10 C10         3.9830    1.2360    1.5910 c3        1 0LR     -0.073400
     11 N11         6.1430    0.0380    1.7680 n3        1 0LR     -0.817200
     12 C12         5.5090   -1.2200    1.4370 c3        1 0LR      0.133800
     13 O13         3.4510   -2.4310    1.2110 os        1 0LR     -0.419600
     14 C14         3.5230   -3.5710    2.0680 c3        1 0LR      0.176700
     15 C15         3.0150   -4.7670    1.3340 ca        1 0LR     -0.089300
     16 C16         3.2330   -6.0400    1.9290 ca        1 0LR     -0.126000
     17 C17         2.7790   -7.1810    1.3170 ca        1 0LR     -0.118000
     18 C18         2.3440   -4.6740    0.1370 ca        1 0LR     -0.088000
     19 C19         1.8660   -5.8420   -0.5170 ca        1 0LR     -0.038000
     20 C20         2.0840   -7.1110    0.0780 ca        1 0LR     -0.037000
     21 C21         1.6050   -8.2770   -0.5780 ca        1 0LR     -0.119000
     22 C22         0.9370   -8.1780   -1.7740 ca        1 0LR     -0.127000
     23 C23         0.7190   -6.9120   -2.3690 ca        1 0LR     -0.130000
     24 C24         1.1720   -5.7700   -1.7560 ca        1 0LR     -0.114000
     25 H1         -1.3220   -0.1050    0.3490 ha        1 0LR      0.130000
     26 H2          1.0580   -0.2030   -0.3640 ha        1 0LR      0.131500
     27 H3          2.3030    0.1930    3.7610 ha        1 0LR      0.131500
     28 H4         -0.0790    0.2860    4.4670 ha        1 0LR      0.130000
     29 H5         -1.8990    0.1390    2.7660 ha        1 0LR      0.130000
     30 H6          3.3000   -0.1640    0.0850 hc        1 0LR      0.066700
     31 H7          3.8820   -1.2710    2.9220 h1        1 0LR      0.055700
     32 H8          5.9700    2.1090    1.6200 h1        1 0LR      0.030200
     33 H9          5.5390    1.2280    0.0860 h1        1 0LR      0.030200
     34 H10         3.5040    2.0990    1.0610 hc        1 0LR      0.053700
     35 H11         3.8790    1.4120    2.6940 hc        1 0LR      0.053700
     36 H12         7.0990    0.0260    1.4640 hn        1 0LR      0.364800
     37 H14         5.5920   -1.4740    0.3390 h1        1 0LR      0.038700
     38 H15         6.0390   -2.0300    2.0130 h1        1 0LR      0.038700
     39 H16         4.5900   -3.7360    2.3860 h1        1 0LR      0.038700
     40 H17         2.8930   -3.3870    2.9820 h1        1 0LR      0.038700
     41 H18         3.7720   -6.0940    2.8860 ha        1 0LR      0.130000
     42 H19         2.9450   -8.1680    1.7730 ha        1 0LR      0.132000
     43 H20         2.1710   -3.6910   -0.3300 ha        1 0LR      0.153000
     44 H21         1.7790   -9.2560   -0.1080 ha        1 0LR      0.131000
     45 H22         0.5650   -9.0780   -2.2840 ha        1 0LR      0.131000
     46 H23         0.1810   -6.8580   -3.3270 ha        1 0LR      0.131000
     47 H24         1.0070   -4.7810   -2.2100 ha        1 0LR      0.133000
@<TRIPOS>BOND
     1    1    2 ar  
     2    1    6 ar  
     3    1   25 1   
     4    2    3 ar  
     5    2   26 1   
     6    3    4 ar  
     7    3    7 1   
     8    4    5 ar  
     9    4   27 1   
    10    5    6 ar  
    11    5   28 1   
    12    6   29 1   
    13    7    8 1   
    14    7   10 1   
    15    7   30 1   
    16    8   12 1   
    17    8   13 1   
    18    8   31 1   
    19    9   10 1   
    20    9   11 1   
    21    9   32 1   
    22    9   33 1   
    23   10   34 1   
    24   10   35 1   
    25   11   12 1   
    26   11   36 1   
    27   12   37 1   
    28   12   38 1   
    29   13   14 1   
    30   14   15 1   
    31   14   39 1   
    32   14   40 1   
    33   15   16 ar  
    34   15   18 ar  
    35   16   17 ar  
    36   16   41 1   
    37   17   20 ar  
    38   17   42 1   
    39   18   19 ar  
    40   18   43 1   
    41   19   20 ar  
    42   19   24 ar  
    43   20   21 ar  
    44   21   22 ar  
    45   21   44 1   
    46   22   23 ar  
    47   22   45 1   
    48   23   24 ar  
    49   23   46 1   
    50   24   47 1   
@<TRIPOS>SUBSTRUCTURE
     1 0LR         1 TEMP              0 ****  ****    0 ROOT
