@<TRIPOS>MOLECULE
0LR
   47    43     1     0     0
SMALL
bcc


@<TRIPOS>ATOM
      1 C1         -3.4830    2.8450   -0.7770 c1        1 0LR     -0.129250
      2 C2         -2.0980    2.8480   -0.8370 c1        1 0LR     -0.122000
      3 C3         -1.3540    2.8180    0.3320 c1        1 0LR     -0.072000
      4 C4         -1.9940    2.7840    1.5610 c2        1 0LR     -0.130000
      5 C5         -3.3790    2.7810    1.6210 c1        1 0LR     -0.129000
      6 C6         -4.1240    2.8120    0.4520 c1        1 0LR     -0.129250
      7 C7          0.0250    2.7830    0.2710 c2        1 0LR     -0.071000
      8 C8          0.6170    1.5460    1.0490 c3        1 0LR      0.031000
      9 C9          2.1880    3.8360    1.1440 c3        1 0LR     -0.085000
     10 C10         0.6760    3.8840    1.1670 c3        1 0LR     -0.181000
     11 N11         2.6130    2.6820    0.7340 n3        1 0LR     -0.279000
     12 C12         2.1200    1.5130    1.0250 c3        1 0LR     -0.098000
     13 O13         0.1300    0.3730    0.4690 os        1 0LR     -0.271000
     14 C14         0.6230   -0.8050    1.0630 c3        1 0LR      0.017000
     15 C15         0.6380   -1.9180    0.0400 c2        1 0LR     -0.073000
     16 C16         1.3420   -1.6890   -1.1380 c2        1 0LR     -0.100000
     17 C17         1.4010   -2.6740   -2.1140 c1        1 0LR     -0.124000
     18 C18        -0.0040   -3.1320    0.2410 c1        1 0LR     -0.116000
     19 C19         0.0560   -4.1320   -0.7470 c1        1 0LR     -0.036000
     20 C20         0.7500   -3.9060   -1.9120 c1        1 0LR     -0.036000
     21 C21         0.8390   -4.9180   -2.8850 c1        1 0LR     -0.117500
     22 C22         0.2250   -6.1440   -2.6700 c1        1 0LR     -0.129250
     23 C23        -0.4780   -6.3730   -1.4910 c1        1 0LR     -0.129250
     24 C24        -0.5660   -5.3750   -0.5300 c1        1 0LR     -0.117500
     25 H1         -4.0080    2.8660   -1.6000 ha        1 0LR      0.131500
     26 H2         -1.6470    2.8710   -1.7030 ha        1 0LR      0.135000
     27 H3         -1.4700    2.7630    2.3840 ha        1 0LR      0.129000
     28 H4         -3.8300    2.7580    2.4860 ha        1 0LR      0.131000
     29 H5         -5.0990    2.8090    0.4940 ha        1 0LR      0.131500
     30 H6          0.3550    2.8230   -0.6490 ha        1 0LR      0.121000
     31 H7          0.3180    1.5860    1.9790 h1        1 0LR      0.090000
     32 H8          2.5290    4.0010    2.0480 h1        1 0LR      0.096000
     33 H9          2.5220    4.5330    0.5430 h1        1 0LR      0.096000
     34 H10         0.3840    4.7620    0.8510 hc        1 0LR      0.087500
     35 H11         0.3710    3.7630    2.0890 hc        1 0LR      0.087500
     36 H12         3.5260    2.6530    0.7980 hn        1 0LR      0.146000
     37 H14         2.4490    1.2350    1.9050 h1        1 0LR      0.075000
     38 H15         2.4150    0.8630    0.3520 h1        1 0LR      0.075000
     39 H16         0.0450   -1.0580    1.8130 h1        1 0LR      0.076000
     40 H17         1.5320   -0.6500    1.3910 h1        1 0LR      0.076000
     41 H18         1.8170   -0.8460   -1.2660 ha        1 0LR      0.155000
     42 H19         1.8950   -2.5140   -2.9410 ha        1 0LR      0.133000
     43 H20        -0.5160   -3.2840    1.0580 ha        1 0LR      0.131000
     44 H21         1.3320   -4.7580   -3.7120 ha        1 0LR      0.131500
     45 H22         0.2870   -6.8460   -3.3450 ha        1 0LR      0.131500
     46 H23        -0.9100   -7.2360   -1.3400 ha        1 0LR      0.131500
     47 H24        -1.0600   -5.5360    0.2970 ha        1 0LR      0.131500
@<TRIPOS>BOND
     1    1    6 1   
     2    1   25 1   
     3    2    3 1   
     4    2   26 1   
     5    3    4 1   
     6    4    5 1   
     7    4   27 1   
     8    5   28 1   
     9    6   29 1   
    10    7    8 1   
    11    7   10 1   
    12    7   30 1   
    13    8   12 1   
    14    8   13 1   
    15    8   31 1   
    16    9   10 1   
    17    9   11 1   
    18    9   32 1   
    19    9   33 1   
    20   10   34 1   
    21   10   35 1   
    22   11   12 1   
    23   11   36 1   
    24   12   37 1   
    25   12   38 1   
    26   13   14 1   
    27   14   15 1   
    28   14   39 1   
    29   14   40 1   
    30   15   16 1   
    31   15   18 1   
    32   16   17 1   
    33   16   41 1   
    34   17   42 1   
    35   18   43 1   
    36   19   20 1   
    37   19   24 1   
    38   20   21 1   
    39   21   44 1   
    40   22   23 1   
    41   22   45 1   
    42   23   46 1   
    43   24   47 1   
@<TRIPOS>SUBSTRUCTURE
     1 0LR         1 TEMP              0 ****  ****    0 ROOT
