@<TRIPOS>MOLECULE
0LS
   52    55     1     0     0
SMALL
bcc


@<TRIPOS>ATOM
      1 N1         -0.1740    0.0350   -0.0540 n7        1 0LS     -0.791200
      2 C2          1.2500    0.3480   -0.0780 c3        1 0LS      0.145800
      3 C3          1.8260    0.2290    1.3510 c3        1 0LS     -0.126700
      4 C4          0.5980    0.1760    2.2770 c3        1 0LS     -0.082700
      5 C5         -0.6250    0.1270    1.3310 c3        1 0LS      0.145800
      6 C6          0.6600   -1.0220    3.2090 c3        1 0LS     -0.032100
      7 C7         -0.4220   -1.0030    4.2310 ca        1 0LS     -0.081300
      8 C8          2.7290    1.4090    1.7230 c3        1 0LS      0.222800
      9 N9          4.0390    1.4540    1.1130 nh        1 0LS     -0.556400
     10 C10         5.0730    0.6420    1.6150 ca        1 0LS      0.171600
     11 C11         4.1120    1.9090   -0.2320 ca        1 0LS      0.136600
     12 C12         4.8550   -0.3050    2.6430 ca        1 0LS     -0.178500
     13 C13         5.9130   -1.0270    3.1850 ca        1 0LS     -0.092500
     14 C14         7.2120   -0.8340    2.7130 ca        1 0LS     -0.022600
     15 C15         7.4520    0.0940    1.6950 ca        1 0LS     -0.092500
     16 C16         6.4030    0.8210    1.1520 ca        1 0LS     -0.178500
     17 C17         4.6370    1.1020   -1.2650 ca        1 0LS     -0.152000
     18 C18         4.7140    1.5870   -2.5670 ca        1 0LS     -0.114500
     19 C19         4.2680    2.8720   -2.8720 ca        1 0LS     -0.142000
     20 C20         3.7460    3.6760   -1.8610 ca        1 0LS     -0.114500
     21 C21         3.6680    3.2110   -0.5510 ca        1 0LS     -0.152000
     22 C22        -1.5140   -1.8730    4.1280 ca        1 0LS     -0.127500
     23 C23        -2.5180   -1.8600    5.0960 ca        1 0LS     -0.126500
     24 C24        -2.4400   -0.9790    6.1740 ca        1 0LS     -0.130000
     25 C25        -1.3540   -0.1100    6.2830 ca        1 0LS     -0.126500
     26 C26        -0.3490   -0.1220    5.3170 ca        1 0LS     -0.127500
     27 Cl2         8.5000   -1.7230    3.3750 cl        1 0LS     -0.099400
     28 H1         -0.3300   -0.8920   -0.4070 hn        1 0LS      0.345800
     29 H3          1.3590    1.4040   -0.4510 h1        1 0LS      0.054700
     30 H4          1.8070   -0.3230   -0.7850 h1        1 0LS      0.054700
     31 H5          2.4060   -0.7290    1.4300 hc        1 0LS      0.061700
     32 H6          0.5360    1.1090    2.8980 hc        1 0LS      0.061700
     33 H7         -1.3060   -0.7240    1.6050 h1        1 0LS      0.053200
     34 H8         -1.2120    1.0810    1.4280 h1        1 0LS      0.053200
     35 H9          1.6560   -1.0190    3.7320 hc        1 0LS      0.049200
     36 H10         0.6030   -1.9680    2.6070 hc        1 0LS      0.049200
     37 H11         2.1950    2.3660    1.4490 h1        1 0LS      0.060700
     38 H12         2.8750    1.4090    2.8420 h1        1 0LS      0.060700
     39 H13         3.8440   -0.4890    3.0380 ha        1 0LS      0.144000
     40 H14         5.7160   -1.7550    3.9870 ha        1 0LS      0.146000
     41 H15         8.4750    0.2530    1.3210 ha        1 0LS      0.146000
     42 H16         6.6150    1.5530    0.3570 ha        1 0LS      0.144000
     43 H17         4.9970    0.0850   -1.0420 ha        1 0LS      0.141000
     44 H18         5.1280    0.9460   -3.3600 ha        1 0LS      0.134500
     45 H19         4.3270    3.2480   -3.9030 ha        1 0LS      0.135000
     46 H20         3.3940    4.6930   -2.0940 ha        1 0LS      0.134500
     47 H21         3.2620    3.8690    0.2320 ha        1 0LS      0.141000
     48 H22        -1.5800   -2.5710    3.2800 ha        1 0LS      0.130000
     49 H23        -3.3720   -2.5470    5.0070 ha        1 0LS      0.132000
     50 H24        -3.2310   -0.9700    6.9370 ha        1 0LS      0.132000
     51 H25        -1.2890    0.5850    7.1330 ha        1 0LS      0.132000
     52 H26         0.5070    0.5630    5.4050 ha        1 0LS      0.130000
@<TRIPOS>BOND
     1    1    2 1   
     2    1    5 1   
     3    1   28 1   
     4    2    3 1   
     5    2   29 1   
     6    2   30 1   
     7    3    4 1   
     8    3    8 1   
     9    3   31 1   
    10    4    5 1   
    11    4    6 1   
    12    4   32 1   
    13    5   33 1   
    14    5   34 1   
    15    6    7 1   
    16    6   35 1   
    17    6   36 1   
    18    7   22 ar  
    19    7   26 ar  
    20    8    9 1   
    21    8   37 1   
    22    8   38 1   
    23    9   10 1   
    24    9   11 1   
    25   10   12 ar  
    26   10   16 ar  
    27   11   17 ar  
    28   11   21 ar  
    29   12   13 ar  
    30   12   39 1   
    31   13   14 ar  
    32   13   40 1   
    33   14   15 ar  
    34   14   27 1   
    35   15   16 ar  
    36   15   41 1   
    37   16   42 1   
    38   17   18 ar  
    39   17   43 1   
    40   18   19 ar  
    41   18   44 1   
    42   19   20 ar  
    43   19   45 1   
    44   20   21 ar  
    45   20   46 1   
    46   21   47 1   
    47   22   23 ar  
    48   22   48 1   
    49   23   24 ar  
    50   23   49 1   
    51   24   25 ar  
    52   24   50 1   
    53   25   26 ar  
    54   25   51 1   
    55   26   52 1   
@<TRIPOS>SUBSTRUCTURE
     1 0LS         1 TEMP              0 ****  ****    0 ROOT
