@<TRIPOS>MOLECULE
0LS
   52    55     1     0     0
SMALL
bcc


@<TRIPOS>ATOM
      1 N1         -0.1730    0.0350   -0.0540 n3        1 0LS     -0.791200
      2 C2          1.2520    0.3480   -0.0770 c3        1 0LS      0.145800
      3 C3          1.8270    0.2290    1.3520 c3        1 0LS     -0.126700
      4 C4          0.5980    0.1770    2.2770 c3        1 0LS     -0.082700
      5 C5         -0.6250    0.1280    1.3300 c3        1 0LS      0.145800
      6 C6          0.6590   -1.0200    3.2100 c3        1 0LS     -0.032100
      7 C7         -0.4240   -1.0000    4.2320 ca        1 0LS     -0.081300
      8 C8          2.7310    1.4080    1.7240 c3        1 0LS      0.222800
      9 N9          4.0410    1.4520    1.1150 nh        1 0LS     -0.556400
     10 C10         5.0740    0.6360    1.6130 ca        1 0LS      0.171600
     11 C11         4.1150    1.9100   -0.2290 ca        1 0LS      0.135600
     12 C12         4.8540   -0.3110    2.6410 ca        1 0LS     -0.178500
     13 C13         5.9110   -1.0370    3.1810 ca        1 0LS     -0.092000
     14 C14         7.2090   -0.8480    2.7060 ca        1 0LS     -0.022600
     15 C15         7.4510    0.0790    1.6880 ca        1 0LS     -0.092000
     16 C16         6.4030    0.8110    1.1480 ca        1 0LS     -0.178500
     17 C17         4.6340    1.1030   -1.2660 ca        1 0LS     -0.152000
     18 C18         4.7110    1.5920   -2.5670 ca        1 0LS     -0.114500
     19 C19         4.2700    2.8800   -2.8670 ca        1 0LS     -0.142000
     20 C20         3.7530    3.6840   -1.8530 ca        1 0LS     -0.114500
     21 C21         3.6750    3.2150   -0.5450 ca        1 0LS     -0.152000
     22 C22        -1.5160   -1.8700    4.1290 ca        1 0LS     -0.127500
     23 C23        -2.5200   -1.8550    5.0960 ca        1 0LS     -0.126500
     24 C24        -2.4430   -0.9730    6.1730 ca        1 0LS     -0.130000
     25 C25        -1.3570   -0.1040    6.2810 ca        1 0LS     -0.126500
     26 C26        -0.3520   -0.1170    5.3160 ca        1 0LS     -0.127500
     27 CL2         8.4970   -1.7420    3.3640 cl        1 0LS     -0.099400
     28 H1         -0.3290   -0.8910   -0.4070 hn        1 0LS      0.345800
     29 H3          1.3600    1.4050   -0.4500 h1        1 0LS      0.054700
     30 H4          1.8090   -0.3220   -0.7850 h1        1 0LS      0.054700
     31 H5          2.4060   -0.7300    1.4310 hc        1 0LS      0.061700
     32 H6          0.5370    1.1110    2.8980 hc        1 0LS      0.061700
     33 H7         -1.3050   -0.7230    1.6050 h1        1 0LS      0.053200
     34 H8         -1.2110    1.0820    1.4270 h1        1 0LS      0.053200
     35 H9          1.6550   -1.0170    3.7340 hc        1 0LS      0.049200
     36 H10         0.6030   -1.9660    2.6090 hc        1 0LS      0.049200
     37 H11         2.8780    1.4070    2.8430 h1        1 0LS      0.060700
     38 H12         2.1980    2.3650    1.4510 h1        1 0LS      0.060700
     39 H13         3.8440   -0.4920    3.0390 ha        1 0LS      0.144000
     40 H14         5.7140   -1.7650    3.9830 ha        1 0LS      0.146000
     41 H15         8.4740    0.2360    1.3120 ha        1 0LS      0.146000
     42 H16         6.6160    1.5430    0.3520 ha        1 0LS      0.144000
     43 H17         4.9890    0.0850   -1.0460 ha        1 0LS      0.141000
     44 H18         5.1210    0.9510   -3.3620 ha        1 0LS      0.134500
     45 H19         4.3300    3.2590   -3.8970 ha        1 0LS      0.135000
     46 H20         3.4050    4.7020   -2.0830 ha        1 0LS      0.134500
     47 H21         3.2740    3.8730    0.2410 ha        1 0LS      0.141000
     48 H22        -1.5810   -2.5690    3.2820 ha        1 0LS      0.130000
     49 H23        -3.3740   -2.5420    5.0080 ha        1 0LS      0.132000
     50 H24        -3.2350   -0.9620    6.9350 ha        1 0LS      0.132000
     51 H25        -1.2930    0.5930    7.1300 ha        1 0LS      0.132000
     52 H26         0.5040    0.5680    5.4040 ha        1 0LS      0.130000
@<TRIPOS>BOND
     1    1    2 1   
     2    1    5 1   
     3    1   28 1   
     4    2    3 1   
     5    2   29 1   
     6    2   30 1   
     7    3    4 1   
     8    3    8 1   
     9    3   31 1   
    10    4    5 1   
    11    4    6 1   
    12    4   32 1   
    13    5   33 1   
    14    5   34 1   
    15    6    7 1   
    16    6   35 1   
    17    6   36 1   
    18    7   22 ar  
    19    7   26 ar  
    20    8    9 1   
    21    8   37 1   
    22    8   38 1   
    23    9   10 1   
    24    9   11 1   
    25   10   12 ar  
    26   10   16 ar  
    27   11   17 ar  
    28   11   21 ar  
    29   12   13 ar  
    30   12   39 1   
    31   13   14 ar  
    32   13   40 1   
    33   14   15 ar  
    34   14   27 1   
    35   15   16 ar  
    36   15   41 1   
    37   16   42 1   
    38   17   18 ar  
    39   17   43 1   
    40   18   19 ar  
    41   18   44 1   
    42   19   20 ar  
    43   19   45 1   
    44   20   21 ar  
    45   20   46 1   
    46   21   47 1   
    47   22   23 ar  
    48   22   48 1   
    49   23   24 ar  
    50   23   49 1   
    51   24   25 ar  
    52   24   50 1   
    53   25   26 ar  
    54   25   51 1   
    55   26   52 1   
@<TRIPOS>SUBSTRUCTURE
     1 0LS         1 TEMP              0 ****  ****    0 ROOT
