@<TRIPOS>MOLECULE
0LS
   52    55     1     0     0
SMALL
bcc


@<TRIPOS>ATOM
      1 N1         -2.0530    2.8710   -1.1660 n3        1 0LS     -0.792200
      2 C2         -0.7410    2.2310   -1.1560 c3        1 0LS      0.143800
      3 C3         -0.8260    0.8760   -0.4170 c3        1 0LS     -0.125700
      4 C4         -2.3180    0.6790   -0.0960 c3        1 0LS     -0.083700
      5 C5         -3.0370    1.8700   -0.7710 c3        1 0LS      0.146800
      6 C6         -2.8240   -0.6630   -0.5950 c3        1 0LS     -0.029100
      7 C7         -4.2190   -0.9430   -0.1580 ca        1 0LS     -0.082300
      8 C8          0.0020    0.8500    0.8730 c3        1 0LS      0.219800
      9 N9          1.4380    0.7460    0.7370 nh        1 0LS     -0.557400
     10 C10         2.0260   -0.4960    0.4360 ca        1 0LS      0.172600
     11 C11         2.1470    1.9380    0.4250 ca        1 0LS      0.135600
     12 C12         1.2520   -1.6520    0.1770 ca        1 0LS     -0.179000
     13 C13         1.8580   -2.8870   -0.0250 ca        1 0LS     -0.091500
     14 C14         3.2480   -3.0040    0.0170 ca        1 0LS     -0.022600
     15 C15         4.0350   -1.8760    0.2670 ca        1 0LS     -0.091500
     16 C16         3.4370   -0.6410    0.4740 ca        1 0LS     -0.179000
     17 C17         2.9240    2.0610   -0.7480 ca        1 0LS     -0.152000
     18 C18         3.6200    3.2360   -1.0110 ca        1 0LS     -0.115500
     19 C19         3.5570    4.3110   -0.1260 ca        1 0LS     -0.142000
     20 C20         2.7930    4.2020    1.0340 ca        1 0LS     -0.115500
     21 C21         2.0950    3.0310    1.3180 ca        1 0LS     -0.152000
     22 C22        -5.2800   -0.8470   -1.0650 ca        1 0LS     -0.127000
     23 C23        -6.5830   -1.1270   -0.6540 ca        1 0LS     -0.127000
     24 C24        -6.8370   -1.5040    0.6640 ca        1 0LS     -0.131000
     25 C25        -5.7830   -1.6010    1.5730 ca        1 0LS     -0.127000
     26 C26        -4.4800   -1.3230    1.1650 ca        1 0LS     -0.127000
     27 CL2         3.9840   -4.5160   -0.2360 cl        1 0LS     -0.099400
     28 H1         -2.0660    3.6420   -0.5240 hn        1 0LS      0.346800
     29 H3         -0.4500    2.0530   -2.2280 h1        1 0LS      0.055200
     30 H4          0.0400    2.8940   -0.6960 h1        1 0LS      0.055200
     31 H5         -0.4710    0.0670   -1.1090 hc        1 0LS      0.068700
     32 H6         -2.4870    0.7330    1.0140 hc        1 0LS      0.053700
     33 H7         -3.8130    2.3030   -0.0850 h1        1 0LS      0.052700
     34 H8         -3.5610    1.5210   -1.7040 h1        1 0LS      0.052700
     35 H9         -2.7570   -0.6940   -1.7160 hc        1 0LS      0.051200
     36 H10        -2.1470   -1.4700   -0.1990 hc        1 0LS      0.051200
     37 H11        -0.2140    1.7940    1.4530 h1        1 0LS      0.057700
     38 H12        -0.3400   -0.0230    1.5000 h1        1 0LS      0.057700
     39 H13         0.1530   -1.5990    0.1320 ha        1 0LS      0.143500
     40 H14         1.2320   -3.7720   -0.2210 ha        1 0LS      0.146000
     41 H15         5.1320   -1.9630    0.3050 ha        1 0LS      0.146000
     42 H16         4.0760    0.2330    0.6790 ha        1 0LS      0.143500
     43 H17         2.9870    1.2200   -1.4580 ha        1 0LS      0.141500
     44 H18         4.2220    3.3150   -1.9300 ha        1 0LS      0.135000
     45 H19         4.1070    5.2390   -0.3410 ha        1 0LS      0.135000
     46 H20         2.7430    5.0450    1.7400 ha        1 0LS      0.135000
     47 H21         1.5090    2.9630    2.2470 ha        1 0LS      0.141500
     48 H22        -5.0850   -0.5490   -2.1060 ha        1 0LS      0.131000
     49 H23        -7.4120   -1.0490   -1.3730 ha        1 0LS      0.131500
     50 H24        -7.8650   -1.7240    0.9870 ha        1 0LS      0.132000
     51 H25        -5.9790   -1.9000    2.6130 ha        1 0LS      0.131500
     52 H26        -3.6500   -1.4030    1.8820 ha        1 0LS      0.131000
@<TRIPOS>BOND
     1    1    2 1   
     2    1    5 1   
     3    1   28 1   
     4    2    3 1   
     5    2   29 1   
     6    2   30 1   
     7    3    4 1   
     8    3    8 1   
     9    3   31 1   
    10    4    5 1   
    11    4    6 1   
    12    4   32 1   
    13    5   33 1   
    14    5   34 1   
    15    6    7 1   
    16    6   35 1   
    17    6   36 1   
    18    7   22 ar  
    19    7   26 ar  
    20    8    9 1   
    21    8   37 1   
    22    8   38 1   
    23    9   10 1   
    24    9   11 1   
    25   10   12 ar  
    26   10   16 ar  
    27   11   17 ar  
    28   11   21 ar  
    29   12   13 ar  
    30   12   39 1   
    31   13   14 ar  
    32   13   40 1   
    33   14   15 ar  
    34   14   27 1   
    35   15   16 ar  
    36   15   41 1   
    37   16   42 1   
    38   17   18 ar  
    39   17   43 1   
    40   18   19 ar  
    41   18   44 1   
    42   19   20 ar  
    43   19   45 1   
    44   20   21 ar  
    45   20   46 1   
    46   21   47 1   
    47   22   23 ar  
    48   22   48 1   
    49   23   24 ar  
    50   23   49 1   
    51   24   25 ar  
    52   24   50 1   
    53   25   26 ar  
    54   25   51 1   
    55   26   52 1   
@<TRIPOS>SUBSTRUCTURE
     1 0LS         1 TEMP              0 ****  ****    0 ROOT
