@<TRIPOS>MOLECULE
0LS
   53    56     1     0     0
SMALL
bcc


@<TRIPOS>ATOM
      1 N1         -0.3710    1.8330    0.6680 n3        1 0LS     -0.813200
      2 C2          0.9090    1.4030    0.1260 c3        1 0LS      0.155800
      3 C3          1.7810    0.8770    1.2910 c3        1 0LS     -0.093700
      4 C4          0.7730    0.5460    2.4130 c3        1 0LS     -0.076700
      5 C5         -0.5240    1.2870    2.0120 c3        1 0LS      0.147800
      6 C6          0.5680   -0.9570    2.5260 c3        1 0LS     -0.027100
      7 C7         -0.3150   -1.3180    3.6690 ca        1 0LS     -0.102300
      8 C8          2.7600    1.9420    1.7790 c3        1 0LS      0.125800
      9 N9          4.1270    1.9500    1.1400 n4        1 0LS     -0.427200
     10 C10         5.1150    1.1410    1.8790 ca        1 0LS     -0.044400
     11 C11         4.1050    1.6220   -0.2980 ca        1 0LS     -0.039400
     12 C12         4.7480   -0.0350    2.5530 ca        1 0LS     -0.096500
     13 C13         5.7100   -0.7560    3.2560 ca        1 0LS     -0.109000
     14 C14         7.0390   -0.3160    3.2890 ca        1 0LS      0.054400
     15 C15         7.4060    0.8560    2.6130 ca        1 0LS     -0.109000
     16 C16         6.4530    1.5840    1.9090 ca        1 0LS     -0.096500
     17 C17         4.3560    0.3160   -0.7490 ca        1 0LS     -0.104000
     18 C18         4.3520    0.0540   -2.1180 ca        1 0LS     -0.107000
     19 C19         4.1010    1.0750   -3.0340 ca        1 0LS     -0.079000
     20 C20         3.8470    2.3710   -2.5810 ca        1 0LS     -0.107000
     21 C21         3.8450    2.6560   -1.2190 ca        1 0LS     -0.104000
     22 C22        -1.6240   -1.7580    3.4420 ca        1 0LS     -0.126000
     23 C23        -2.4410   -2.1110    4.5150 ca        1 0LS     -0.119500
     24 C24        -1.9580   -2.0290    5.8210 ca        1 0LS     -0.115000
     25 C25        -0.6520   -1.5930    6.0520 ca        1 0LS     -0.119500
     26 C26         0.1660   -1.2400    4.9810 ca        1 0LS     -0.126000
     27 CL2         8.1980   -1.1940    4.1420 cl        1 0LS     -0.012400
     28 H1         -1.1270    1.5590    0.0700 hn        1 0LS      0.377800
     29 H3          0.8030    0.5900   -0.6460 h1        1 0LS      0.045700
     30 H4          1.3920    2.2860   -0.3770 h1        1 0LS      0.045700
     31 H5          2.3270   -0.0450    0.9600 hc        1 0LS      0.073700
     32 H6          1.1220    0.9300    3.4080 hc        1 0LS      0.065700
     33 H7         -0.6990    2.1540    2.7070 h1        1 0LS      0.065200
     34 H8         -1.4070    0.5940    2.1000 h1        1 0LS      0.065200
     35 H9          1.5680   -1.4510    2.6670 hc        1 0LS      0.047700
     36 H10         0.1360   -1.3470    1.5650 hc        1 0LS      0.047700
     37 H11         2.3110    2.9610    1.5810 hx        1 0LS      0.105200
     38 H12         2.9330    1.8380    2.8900 hx        1 0LS      0.105200
     39 H13         3.7080   -0.4030    2.5460 ha        1 0LS      0.160500
     40 H14         5.4170   -1.6790    3.7870 ha        1 0LS      0.180000
     41 H15         8.4520    1.2070    2.6360 ha        1 0LS      0.180000
     42 H16         6.7660    2.5000    1.3800 ha        1 0LS      0.160500
     43 H17         4.5650   -0.5010   -0.0370 ha        1 0LS      0.155500
     44 H18         4.5540   -0.9710   -2.4730 ha        1 0LS      0.168000
     45 H19         4.1040    0.8600   -4.1160 ha        1 0LS      0.168000
     46 H20         3.6480    3.1800   -3.3040 ha        1 0LS      0.168000
     47 H21         3.6390    3.6850   -0.8830 ha        1 0LS      0.155500
     48 H22        -2.0100   -1.8300    2.4140 ha        1 0LS      0.125500
     49 H23        -3.4690   -2.4580    4.3290 ha        1 0LS      0.142000
     50 H24        -2.6030   -2.3090    6.6670 ha        1 0LS      0.145000
     51 H25        -0.2680   -1.5300    7.0810 ha        1 0LS      0.142000
     52 H26         1.1960   -0.9010    5.1680 ha        1 0LS      0.125500
     53 H91         4.4610    2.9270    1.2060 hn        1 0LS      0.450800
@<TRIPOS>BOND
     1    1    2 1   
     2    1    5 1   
     3    1   28 1   
     4    2    3 1   
     5    2   29 1   
     6    2   30 1   
     7    3    4 1   
     8    3    8 1   
     9    3   31 1   
    10    4    5 1   
    11    4    6 1   
    12    4   32 1   
    13    5   33 1   
    14    5   34 1   
    15    6    7 1   
    16    6   35 1   
    17    6   36 1   
    18    7   22 ar  
    19    7   26 ar  
    20    8    9 1   
    21    8   37 1   
    22    8   38 1   
    23    9   10 1   
    24    9   11 1   
    25    9   53 1   
    26   10   12 ar  
    27   10   16 ar  
    28   11   17 ar  
    29   11   21 ar  
    30   12   13 ar  
    31   12   39 1   
    32   13   14 ar  
    33   13   40 1   
    34   14   15 ar  
    35   14   27 1   
    36   15   16 ar  
    37   15   41 1   
    38   16   42 1   
    39   17   18 ar  
    40   17   43 1   
    41   18   19 ar  
    42   18   44 1   
    43   19   20 ar  
    44   19   45 1   
    45   20   21 ar  
    46   20   46 1   
    47   21   47 1   
    48   22   23 ar  
    49   22   48 1   
    50   23   24 ar  
    51   23   49 1   
    52   24   25 ar  
    53   24   50 1   
    54   25   26 ar  
    55   25   51 1   
    56   26   52 1   
@<TRIPOS>SUBSTRUCTURE
     1 0LS         1 TEMP              0 ****  ****    0 ROOT
