@<TRIPOS>MOLECULE
0LS
   52    46     1     0     0
SMALL
bcc


@<TRIPOS>ATOM
      1 N1         -2.3190   -0.6520   -1.9770 n3        1 0LS     -0.273000
      2 C2         -1.0970   -0.1450   -1.9190 c3        1 0LS     -0.089000
      3 C3         -0.6190   -0.2520   -0.3370 c3        1 0LS     -0.134000
      4 C4         -1.6450    0.0020    0.3550 c3        1 0LS     -0.124000
      5 C5         -2.9020   -0.4320   -0.5830 c3        1 0LS     -0.090000
      6 C6         -1.6330   -0.8520    1.6870 c3        1 0LS     -0.115000
      7 C7         -2.8650   -0.5030    2.5310 c1        1 0LS     -0.073000
      8 C8          0.5060    0.8040   -0.0400 c3        1 0LS     -0.039000
      9 N9          1.7020    0.4550   -0.7800 n3        1 0LS     -0.213000
     10 C10         2.7110   -0.3900   -0.1700 c1        1 0LS      0.027000
     11 C11         1.9130    0.9910   -2.1160 c2        1 0LS      0.057000
     12 C12         2.9280   -1.7420   -0.3860 c1        1 0LS     -0.126250
     13 C13         3.9600   -2.3980    0.2820 c1        1 0LS     -0.126250
     14 C14         4.7710   -1.6980    1.1650 c1        1 0LS     -0.064000
     15 C15         4.5540   -0.3440    1.3820 c1        1 0LS     -0.118000
     16 C16         3.5240    0.3110    0.7140 c1        1 0LS     -0.140000
     17 C17         1.8970    0.2650   -3.2980 c2        1 0LS     -0.154000
     18 C18         2.1990    0.8910   -4.5040 c1        1 0LS     -0.106000
     19 C19         2.5170    2.2440   -4.5250 c1        1 0LS     -0.126250
     20 C20         2.5340    2.9720   -3.3410 c1        1 0LS     -0.126250
     21 C21         2.2330    2.3470   -2.1370 c1        1 0LS     -0.181000
     22 C22        -3.7770   -1.5420    2.6810 c1        1 0LS     -0.125000
     23 C23        -4.8730   -1.3900    3.5230 c1        1 0LS     -0.126250
     24 C24        -5.0570   -0.1990    4.2160 c1        1 0LS     -0.126250
     25 C25        -4.1460    0.8390    4.0660 c1        1 0LS     -0.126250
     26 C26        -3.0500    0.6870    3.2240 c1        1 0LS     -0.126250
     27 CL2         5.9810   -2.5450    2.0940 cl        1 0LS     -0.012000
     28 H1         -2.8100   -0.1910   -2.5870 hn        1 0LS      0.142000
     29 H3         -0.4880   -0.6660   -2.4920 h1        1 0LS      0.095500
     30 H4         -1.1080    0.7910   -2.2040 h1        1 0LS      0.095500
     31 H5         -0.2950   -1.1560   -0.1420 hc        1 0LS      0.109000
     32 H6         -1.6880    0.9550    0.5630 hc        1 0LS      0.092000
     33 H7         -3.5680    0.2820   -0.6050 h1        1 0LS      0.091500
     34 H8         -3.3070   -1.2670   -0.2470 h1        1 0LS      0.091500
     35 H9         -0.8230   -0.6510    2.1960 hc        1 0LS      0.091500
     36 H10        -1.6500   -1.8060    1.4640 hc        1 0LS      0.091500
     37 H11         0.7040    0.8080    0.9170 h1        1 0LS      0.080500
     38 H12         0.2010    1.6910   -0.3140 h1        1 0LS      0.080500
     39 H13         2.3600   -2.2320   -1.0050 ha        1 0LS      0.135875
     40 H14         4.1130   -3.3520    0.1290 ha        1 0LS      0.135875
     41 H15         5.1260    0.1490    2.0030 ha        1 0LS      0.149000
     42 H16         3.3710    1.2660    0.8660 ha        1 0LS      0.141000
     43 H17         1.6730   -0.6870   -3.2840 ha        1 0LS      0.140000
     44 H18         2.1870    0.3770   -5.3410 ha        1 0LS      0.132000
     45 H19         2.7300    2.6850   -5.3730 ha        1 0LS      0.135875
     46 H20         2.7590    3.9250   -3.3560 ha        1 0LS      0.135875
     47 H21         2.2450    2.8590   -1.3040 ha        1 0LS      0.131000
     48 H22        -3.6470   -2.3800    2.1940 ha        1 0LS      0.133000
     49 H23        -5.5180   -2.1260    3.6290 ha        1 0LS      0.135875
     50 H24        -5.8290   -0.0920    4.8100 ha        1 0LS      0.135875
     51 H25        -4.2760    1.6790    4.5550 ha        1 0LS      0.135875
     52 H26        -2.4090    1.4170    3.1190 ha        1 0LS      0.135875
@<TRIPOS>BOND
     1    1    2 1   
     2    1    5 1   
     3    1   28 1   
     4    2    3 1   
     5    2   29 1   
     6    2   30 1   
     7    3    4 1   
     8    3    8 1   
     9    3   31 1   
    10    4    5 1   
    11    4    6 1   
    12    4   32 1   
    13    5   33 1   
    14    5   34 1   
    15    6    7 1   
    16    6   35 1   
    17    6   36 1   
    18    7   22 1   
    19    8    9 1   
    20    8   37 1   
    21    8   38 1   
    22    9   10 1   
    23    9   11 1   
    24   10   16 1   
    25   11   17 1   
    26   11   21 1   
    27   12   13 1   
    28   12   39 1   
    29   13   40 1   
    30   14   15 1   
    31   15   41 1   
    32   16   42 1   
    33   17   18 1   
    34   17   43 1   
    35   18   44 1   
    36   19   20 1   
    37   19   45 1   
    38   20   46 1   
    39   21   47 1   
    40   22   48 1   
    41   23   24 1   
    42   23   49 1   
    43   24   50 1   
    44   25   26 1   
    45   25   51 1   
    46   26   52 1   
@<TRIPOS>SUBSTRUCTURE
     1 0LS         1 TEMP              0 ****  ****    0 ROOT
