@<TRIPOS>MOLECULE
0LT
   71    73     1     0     0
SMALL
bcc


@<TRIPOS>ATOM
      1 C1         -0.3140    1.4740    1.3340 c         1 0LT      0.674700
      2 N2          0.6220    1.3640    0.3090 n         1 0LT     -0.466800
      3 C3          2.0020    1.0820    0.6460 c3        1 0LT      0.094000
      4 C4         -1.7320    1.7980    1.0000 ca        1 0LT     -0.131600
      5 C5          2.4220   -0.3850    0.4980 c3        1 0LT     -0.103700
      6 C6         -2.5440    0.8260    0.4010 ca        1 0LT     -0.152000
      7 C7         -3.8880    1.1050    0.1560 ca        1 0LT      0.099100
      8 N8          2.9140   -1.9100    2.3620 n3        1 0LT     -0.795200
      9 C9          3.9510   -0.5140    0.6330 c3        1 0LT     -0.085700
     10 O10         0.0240    1.2780    2.5200 o         1 0LT     -0.601100
     11 C11        -4.4220    2.3760    0.5100 ca        1 0LT      0.120100
     12 C12        -2.2550    3.0390    1.3530 ca        1 0LT     -0.089000
     13 C13         4.6040   -0.8060   -0.7060 c3        1 0LT     -0.028100
     14 C14         0.3290    1.8330   -1.0370 c3        1 0LT      0.100700
     15 C15        -3.5970    3.3330    1.1020 ca        1 0LT     -0.188000
     16 C16         1.8330   -1.2960    1.5970 c3        1 0LT      0.139800
     17 C17         4.1660   -1.6470    1.6610 c3        1 0LT      0.149800
     18 O18        -4.7680    0.2400   -0.4600 os        1 0LT     -0.305900
     19 C19         6.0910   -0.7480   -0.6400 ca        1 0LT     -0.080300
     20 O20        -5.7570    2.5550    0.2190 os        1 0LT     -0.299900
     21 C21        -5.6050   -1.9160   -0.8890 c3        1 0LT     -0.090400
     22 O22        -6.4660   -4.0600   -1.3650 os        1 0LT     -0.418600
     23 C23        -4.3780   -1.1410   -0.4470 c3        1 0LT      0.126400
     24 C24        -5.2850   -3.4000   -0.9130 c3        1 0LT      0.129400
     25 C25         0.8090    3.2640   -1.3030 c3        1 0LT     -0.109100
     26 C26         0.8900    0.9220   -2.1320 c3        1 0LT     -0.109100
     27 C27         6.7450    0.4870   -0.5550 ca        1 0LT     -0.127500
     28 C28         6.8500   -1.9230   -0.6780 ca        1 0LT     -0.127500
     29 C29        -6.3120    3.8140    0.5840 c3        1 0LT      0.108700
     30 C30        -6.3130   -5.4680   -1.4160 c3        1 0LT      0.115700
     31 C31         8.1360    0.5450   -0.5090 ca        1 0LT     -0.127500
     32 C32         8.2420   -1.8630   -0.6320 ca        1 0LT     -0.127500
     33 C33         8.8870   -0.6300   -0.5470 ca        1 0LT     -0.132000
     34 H1          2.6650    1.7020   -0.0250 h1        1 0LT      0.057200
     35 H2          2.1910    1.4000    1.7140 h1        1 0LT      0.057200
     36 H3          2.0950   -0.7690   -0.5040 hc        1 0LT      0.059700
     37 H4         -2.1170   -0.1520    0.1360 ha        1 0LT      0.149000
     38 H5          2.9470   -1.5190    3.2860 hn        1 0LT      0.350800
     39 H7          4.3850    0.4380    1.0430 hc        1 0LT      0.054700
     40 H8         -1.6150    3.7890    1.8420 ha        1 0LT      0.146000
     41 H9          4.2740   -1.8150   -1.0710 hc        1 0LT      0.049700
     42 H10         4.2420   -0.0470   -1.4530 hc        1 0LT      0.049700
     43 H11        -0.7990    1.8300   -1.1570 h1        1 0LT      0.068700
     44 H12        -3.9960    4.3170    1.3860 ha        1 0LT      0.145000
     45 H13         1.1310   -0.7230    2.2630 h1        1 0LT      0.060200
     46 H14         1.2510   -2.1300    1.1170 h1        1 0LT      0.060200
     47 H15         4.9910   -1.3810    2.3740 h1        1 0LT      0.049700
     48 H16         4.4630   -2.5940    1.1300 h1        1 0LT      0.049700
     49 H17        -6.4570   -1.7180   -0.1890 hc        1 0LT      0.074200
     50 H18        -5.9280   -1.5770   -1.9070 hc        1 0LT      0.074200
     51 H19        -3.5280   -1.2860   -1.1650 h1        1 0LT      0.039700
     52 H20        -4.0550   -1.4410    0.5840 h1        1 0LT      0.039700
     53 H21        -4.4390   -3.6200   -1.6170 h1        1 0LT      0.026700
     54 H22        -5.0130   -3.7710    0.1110 h1        1 0LT      0.026700
     55 H23         1.9230    3.3280   -1.2840 hc        1 0LT      0.042533
     56 H24         0.4530    3.5810   -2.3120 hc        1 0LT      0.042533
     57 H25         0.3980    3.9700   -0.5420 hc        1 0LT      0.042533
     58 H26         0.5100   -0.1220   -2.0160 hc        1 0LT      0.042533
     59 H27         0.5590    1.3130   -3.1240 hc        1 0LT      0.042533
     60 H28         2.0060    0.9020   -2.1110 hc        1 0LT      0.042533
     61 H29         6.1540    1.4140   -0.5250 ha        1 0LT      0.130500
     62 H30         6.3440   -2.8990   -0.7420 ha        1 0LT      0.130500
     63 H31        -6.2400    3.9750    1.6870 h1        1 0LT      0.046367
     64 H32        -5.8070    4.6440    0.0320 h1        1 0LT      0.046367
     65 H33        -7.3830    3.7230    0.2670 h1        1 0LT      0.046367
     66 H34        -7.3020   -5.8420   -1.7820 h1        1 0LT      0.033700
     67 H35        -5.4990   -5.7520   -2.1280 h1        1 0LT      0.033700
     68 H36        -6.0900   -5.8790   -0.4000 h1        1 0LT      0.033700
     69 H37         8.6430    1.5190   -0.4420 ha        1 0LT      0.131500
     70 H38         8.8310   -2.7920   -0.6620 ha        1 0LT      0.131500
     71 H39         9.9850   -0.5840   -0.5120 ha        1 0LT      0.131000
@<TRIPOS>BOND
     1    1    2 1   
     2    1    4 1   
     3    1   10 2   
     4    2    3 1   
     5    2   14 1   
     6    3    5 1   
     7    3   34 1   
     8    3   35 1   
     9    4    6 ar  
    10    4   12 ar  
    11    5    9 1   
    12    5   16 1   
    13    5   36 1   
    14    6    7 ar  
    15    6   37 1   
    16    7   11 ar  
    17    7   18 1   
    18    8   16 1   
    19    8   17 1   
    20    8   38 1   
    21    9   13 1   
    22    9   17 1   
    23    9   39 1   
    24   11   15 ar  
    25   11   20 1   
    26   12   15 ar  
    27   12   40 1   
    28   13   19 1   
    29   13   41 1   
    30   13   42 1   
    31   14   25 1   
    32   14   26 1   
    33   14   43 1   
    34   15   44 1   
    35   16   45 1   
    36   16   46 1   
    37   17   47 1   
    38   17   48 1   
    39   18   23 1   
    40   19   27 ar  
    41   19   28 ar  
    42   20   29 1   
    43   21   23 1   
    44   21   24 1   
    45   21   49 1   
    46   21   50 1   
    47   22   24 1   
    48   22   30 1   
    49   23   51 1   
    50   23   52 1   
    51   24   53 1   
    52   24   54 1   
    53   25   55 1   
    54   25   56 1   
    55   25   57 1   
    56   26   58 1   
    57   26   59 1   
    58   26   60 1   
    59   27   31 ar  
    60   27   61 1   
    61   28   32 ar  
    62   28   62 1   
    63   29   63 1   
    64   29   64 1   
    65   29   65 1   
    66   30   66 1   
    67   30   67 1   
    68   30   68 1   
    69   31   33 ar  
    70   31   69 1   
    71   32   33 ar  
    72   32   70 1   
    73   33   71 1   
@<TRIPOS>SUBSTRUCTURE
     1 0LT         1 TEMP              0 ****  ****    0 ROOT
