@<TRIPOS>MOLECULE
0LT
   72    74     1     0     0
SMALL
bcc


@<TRIPOS>ATOM
      1 C1          0.9370    0.8010   -0.7540 c         1 0LT      0.581700
      2 N2          1.9740   -0.3010   -0.5710 n4        1 0LT     -0.599200
      3 C3          2.5380   -0.3100    0.8180 c3        1 0LT      0.115800
      4 C4         -0.2760    0.4250   -1.4800 ca        1 0LT     -0.223600
      5 C5          2.5530   -1.6980    1.4490 c3        1 0LT     -0.127700
      6 C6         -0.8770   -0.8360   -1.3410 ca        1 0LT     -0.111000
      7 C7         -2.0350   -1.1420   -2.0590 ca        1 0LT      0.112100
      8 N8          0.9780   -2.7330    3.0170 n3        1 0LT     -0.785200
      9 C9          3.1650   -1.6220    2.8620 c3        1 0LT     -0.078700
     10 O10         1.2250    1.9050   -0.3080 o         1 0LT     -0.436100
     11 C11        -2.6170   -0.1590   -2.9110 ca        1 0LT      0.155100
     12 C12        -0.8670    1.3990   -2.2980 ca        1 0LT     -0.032000
     13 C13         4.4610   -2.4140    2.9420 c3        1 0LT     -0.028100
     14 C14         3.0200   -0.1970   -1.6670 c3        1 0LT      0.142500
     15 C15        -2.0260    1.1070   -3.0100 ca        1 0LT     -0.194000
     16 C16         1.1290   -2.2730    1.6460 c3        1 0LT      0.142800
     17 C17         2.0730   -2.1810    3.8050 c3        1 0LT      0.145800
     18 O18        -2.4710   -2.4390   -1.9420 os        1 0LT     -0.327900
     19 C19         5.1470   -2.2320    4.2510 ca        1 0LT     -0.102300
     20 O20        -3.7470   -0.5370   -3.5820 os        1 0LT     -0.310900
     21 C21        -4.1300   -3.9430   -1.2090 c3        1 0LT     -0.095400
     22 O22        -5.7370   -5.5150   -0.5160 os        1 0LT     -0.420600
     23 C23        -3.9000   -2.6430   -1.9540 c3        1 0LT      0.136400
     24 C24        -5.5980   -4.3230   -1.2830 c3        1 0LT      0.132400
     25 C25         3.9250    1.0200   -1.5460 c3        1 0LT     -0.128100
     26 C26         3.8630   -1.4640   -1.7500 c3        1 0LT     -0.128100
     27 C27         5.8230   -1.0390    4.5310 ca        1 0LT     -0.126000
     28 C28         5.1380   -3.2570    5.2030 ca        1 0LT     -0.126000
     29 C29        -4.3610    0.4440   -4.4240 c3        1 0LT      0.104700
     30 C30        -7.0660   -6.0090   -0.5120 c3        1 0LT      0.113700
     31 C31         6.4790   -0.8720    5.7490 ca        1 0LT     -0.120000
     32 C32         5.7960   -3.0880    6.4210 ca        1 0LT     -0.120000
     33 C33         6.4660   -1.8970    6.6960 ca        1 0LT     -0.116000
     34 H1          1.9180    0.3870    1.4560 hx        1 0LT      0.109700
     35 H2          3.5870    0.0990    0.7850 hx        1 0LT      0.109700
     36 H3          3.1550   -2.3980    0.8080 hc        1 0LT      0.069700
     37 H4         -0.4930   -1.6050   -0.6520 ha        1 0LT      0.151000
     38 H5          0.9730   -3.7350    3.0600 hn        1 0LT      0.369800
     39 H7          3.3810   -0.5570    3.1450 hc        1 0LT      0.070700
     40 H8         -0.4140    2.4020   -2.3750 ha        1 0LT      0.164000
     41 H9          5.1470   -2.0740    2.1190 hc        1 0LT      0.048200
     42 H10         4.2460   -3.5020    2.7680 hc        1 0LT      0.048200
     43 H11         2.4170   -0.1020   -2.6230 hx        1 0LT      0.096700
     44 H12        -2.4720    1.8830   -3.6520 ha        1 0LT      0.169000
     45 H13         0.3590   -1.4670    1.4850 h1        1 0LT      0.045200
     46 H14         0.9280   -3.0950    0.9070 h1        1 0LT      0.045200
     47 H15         2.5090   -2.9440    4.5050 h1        1 0LT      0.072700
     48 H16         1.6510   -1.3440    4.4270 h1        1 0LT      0.072700
     49 H17        -3.5040   -4.7580   -1.6560 hc        1 0LT      0.071700
     50 H18        -3.8200   -3.8350   -0.1370 hc        1 0LT      0.071700
     51 H19        -4.2230   -2.7150   -3.0270 h1        1 0LT      0.057700
     52 H20        -4.4200   -1.7830   -1.4600 h1        1 0LT      0.057700
     53 H21        -5.9130   -4.5140   -2.3440 h1        1 0LT      0.030200
     54 H22        -6.2470   -3.5160   -0.8480 h1        1 0LT      0.030200
     55 H23         4.7210    0.8680   -0.7770 hc        1 0LT      0.075200
     56 H24         4.4280    1.1730   -2.5350 hc        1 0LT      0.075200
     57 H25         3.3540    1.9480   -1.2960 hc        1 0LT      0.075200
     58 H26         4.5470   -1.3670   -2.6310 hc        1 0LT      0.075200
     59 H27         3.2310   -2.3730   -1.8980 hc        1 0LT      0.075200
     60 H28         4.4890   -1.5970   -0.8340 hc        1 0LT      0.075200
     61 H29         5.8400   -0.2310    3.7840 ha        1 0LT      0.126500
     62 H30         4.6170   -4.2020    4.9910 ha        1 0LT      0.126500
     63 H31        -4.6890    1.3250   -3.8220 h1        1 0LT      0.064367
     64 H32        -5.2430   -0.1050   -4.8430 h1        1 0LT      0.064367
     65 H33        -3.6610    0.7500   -5.2390 h1        1 0LT      0.064367
     66 H34        -7.0160   -6.9310    0.1210 h1        1 0LT      0.039367
     67 H35        -7.3960   -6.2620   -1.5500 h1        1 0LT      0.039367
     68 H36        -7.7630   -5.2600   -0.0610 h1        1 0LT      0.039367
     69 H37         7.0100    0.0680    5.9620 ha        1 0LT      0.141500
     70 H38         5.7880   -3.8990    7.1650 ha        1 0LT      0.141500
     71 H39         6.9860   -1.7650    7.6570 ha        1 0LT      0.144000
     72 H211        1.5000   -1.2040   -0.7180 hn        1 0LT      0.450800
@<TRIPOS>BOND
     1    1    2 1   
     2    1    4 1   
     3    1   10 2   
     4    2    3 1   
     5    2   14 1   
     6    2   72 1   
     7    3    5 1   
     8    3   34 1   
     9    3   35 1   
    10    4    6 ar  
    11    4   12 ar  
    12    5    9 1   
    13    5   16 1   
    14    5   36 1   
    15    6    7 ar  
    16    6   37 1   
    17    7   11 ar  
    18    7   18 1   
    19    8   16 1   
    20    8   17 1   
    21    8   38 1   
    22    9   13 1   
    23    9   17 1   
    24    9   39 1   
    25   11   15 ar  
    26   11   20 1   
    27   12   15 ar  
    28   12   40 1   
    29   13   19 1   
    30   13   41 1   
    31   13   42 1   
    32   14   25 1   
    33   14   26 1   
    34   14   43 1   
    35   15   44 1   
    36   16   45 1   
    37   16   46 1   
    38   17   47 1   
    39   17   48 1   
    40   18   23 1   
    41   19   27 ar  
    42   19   28 ar  
    43   20   29 1   
    44   21   23 1   
    45   21   24 1   
    46   21   49 1   
    47   21   50 1   
    48   22   24 1   
    49   22   30 1   
    50   23   51 1   
    51   23   52 1   
    52   24   53 1   
    53   24   54 1   
    54   25   55 1   
    55   25   56 1   
    56   25   57 1   
    57   26   58 1   
    58   26   59 1   
    59   26   60 1   
    60   27   31 ar  
    61   27   61 1   
    62   28   32 ar  
    63   28   62 1   
    64   29   63 1   
    65   29   64 1   
    66   29   65 1   
    67   30   66 1   
    68   30   67 1   
    69   30   68 1   
    70   31   33 ar  
    71   31   69 1   
    72   32   33 ar  
    73   32   70 1   
    74   33   71 1   
@<TRIPOS>SUBSTRUCTURE
     1 0LT         1 TEMP              0 ****  ****    0 ROOT
