@<TRIPOS>MOLECULE
0LT
   72    74     1     0     0
SMALL
bcc


@<TRIPOS>ATOM
      1 C1          0.6820   -1.9230   -0.5490 c         1 0LT      0.586700
      2 N2          2.0900   -1.4170   -0.8410 n4        1 0LT     -0.599200
      3 C3          2.7230   -0.7200    0.3250 c3        1 0LT      0.122800
      4 C4         -0.4100   -1.1010   -1.0720 ca        1 0LT     -0.218600
      5 C5          2.3870   -1.2600    1.7120 c3        1 0LT     -0.112700
      6 C6         -1.5910   -1.7850   -1.4340 ca        1 0LT     -0.126000
      7 C7         -2.6790   -1.0760   -1.9270 ca        1 0LT      0.116100
      8 N8          1.1030    0.0090    3.3780 n3        1 0LT     -0.797200
      9 C9          3.3760   -0.6720    2.7390 c3        1 0LT     -0.078700
     10 O10         0.5860   -2.9940    0.0380 o         1 0LT     -0.446100
     11 C11        -2.5990    0.3490   -2.0530 ca        1 0LT      0.188100
     12 C12        -0.3390    0.2900   -1.1850 ca        1 0LT     -0.073000
     13 C13         4.0940   -1.7780    3.4970 c3        1 0LT     -0.028100
     14 C14         2.9470   -2.5200   -1.4380 c3        1 0LT      0.142500
     15 C15        -1.4270    1.0110   -1.6730 ca        1 0LT     -0.200000
     16 C16         0.9820   -0.8160    2.1870 c3        1 0LT      0.145800
     17 C17         2.5160    0.2170    3.6670 c3        1 0LT      0.147800
     18 O18        -3.8670   -1.6230   -2.3340 os        1 0LT     -0.288900
     19 C19         5.1550   -1.2440    4.3940 ca        1 0LT     -0.101300
     20 O20        -3.7170    0.9500   -2.5480 os        1 0LT     -0.273900
     21 C21        -5.4540   -3.3420   -2.5350 c3        1 0LT     -0.092400
     22 O22        -7.0770   -5.0270   -2.7730 os        1 0LT     -0.415600
     23 C23        -4.0390   -3.0300   -2.0850 c3        1 0LT      0.125400
     24 C24        -5.7520   -4.8120   -2.3000 c3        1 0LT      0.131400
     25 C25         4.0660   -1.9390   -2.2960 c3        1 0LT     -0.128100
     26 C26         3.5240   -3.4850   -0.4140 c3        1 0LT     -0.128100
     27 C27         6.3660   -0.7900    3.8600 ca        1 0LT     -0.126500
     28 C28         4.9600   -1.2100    5.7800 ca        1 0LT     -0.126500
     29 C29        -3.6900    2.3760   -2.6600 c3        1 0LT      0.100700
     30 C30        -7.5070   -6.3680   -2.6020 c3        1 0LT      0.113700
     31 C31         7.3680   -0.3060    4.6990 ca        1 0LT     -0.120000
     32 C32         5.9630   -0.7250    6.6180 ca        1 0LT     -0.120000
     33 C33         7.1670   -0.2720    6.0790 ca        1 0LT     -0.116000
     34 H1          2.4070    0.3640    0.2760 hx        1 0LT      0.096200
     35 H2          3.8400   -0.7700    0.1680 hx        1 0LT      0.096200
     36 H3          2.4430   -2.3810    1.7130 hc        1 0LT      0.086700
     37 H4         -1.6380   -2.8800   -1.3110 ha        1 0LT      0.167000
     38 H5          0.6340   -0.4170    4.1560 hn        1 0LT      0.372800
     39 H7          4.1480   -0.0290    2.2370 hc        1 0LT      0.063700
     40 H8          0.5500    0.8520   -0.8590 ha        1 0LT      0.131000
     41 H9          3.3470   -2.3690    4.0920 hc        1 0LT      0.050200
     42 H10         4.5610   -2.4810    2.7550 hc        1 0LT      0.050200
     43 H11         2.2430   -3.1010   -2.1110 hx        1 0LT      0.097700
     44 H12        -1.3600    2.1080   -1.7450 ha        1 0LT      0.167000
     45 H13         0.3380   -1.7220    2.3600 h1        1 0LT      0.048200
     46 H14         0.4780   -0.1920    1.3950 h1        1 0LT      0.048200
     47 H15         2.7620    0.0110    4.7450 h1        1 0LT      0.067700
     48 H16         2.7430    1.3010    3.4660 h1        1 0LT      0.067700
     49 H17        -6.1860   -2.7090   -1.9700 hc        1 0LT      0.081200
     50 H18        -5.5750   -3.0960   -3.6220 hc        1 0LT      0.081200
     51 H19        -3.9010   -3.2370   -0.9920 h1        1 0LT      0.042700
     52 H20        -3.2840   -3.6040   -2.6830 h1        1 0LT      0.042700
     53 H21        -5.6910   -5.0680   -1.2090 h1        1 0LT      0.026700
     54 H22        -5.0370   -5.4660   -2.8690 h1        1 0LT      0.026700
     55 H23         3.6720   -1.2490   -3.0820 hc        1 0LT      0.075033
     56 H24         4.5830   -2.7880   -2.8110 hc        1 0LT      0.075033
     57 H25         4.8210   -1.3960   -1.6780 hc        1 0LT      0.075033
     58 H26         4.2260   -2.9750    0.2900 hc        1 0LT      0.075033
     59 H27         2.7140   -3.9850    0.1730 hc        1 0LT      0.075033
     60 H28         4.0930   -4.2750   -0.9670 hc        1 0LT      0.075033
     61 H29         6.5300   -0.8220    2.7730 ha        1 0LT      0.125500
     62 H30         4.0150   -1.5730    6.2120 ha        1 0LT      0.125500
     63 H31        -2.8900    2.6960   -3.3700 h1        1 0LT      0.063700
     64 H32        -3.5500    2.8450   -1.6570 h1        1 0LT      0.063700
     65 H33        -4.7060    2.6100   -3.0720 h1        1 0LT      0.063700
     66 H34        -8.5480   -6.3780   -3.0140 h1        1 0LT      0.039033
     67 H35        -6.8510   -7.0690   -3.1750 h1        1 0LT      0.039033
     68 H36        -7.5110   -6.6460   -1.5190 h1        1 0LT      0.039033
     69 H37         8.3190    0.0470    4.2720 ha        1 0LT      0.141000
     70 H38         5.8040   -0.7030    7.7070 ha        1 0LT      0.141000
     71 H39         7.9590    0.1100    6.7420 ha        1 0LT      0.144000
     72 H211        1.9950   -0.7090   -1.5850 hn        1 0LT      0.447800
@<TRIPOS>BOND
     1    1    2 1   
     2    1    4 1   
     3    1   10 2   
     4    2    3 1   
     5    2   14 1   
     6    2   72 1   
     7    3    5 1   
     8    3   34 1   
     9    3   35 1   
    10    4    6 ar  
    11    4   12 ar  
    12    5    9 1   
    13    5   16 1   
    14    5   36 1   
    15    6    7 ar  
    16    6   37 1   
    17    7   11 ar  
    18    7   18 1   
    19    8   16 1   
    20    8   17 1   
    21    8   38 1   
    22    9   13 1   
    23    9   17 1   
    24    9   39 1   
    25   11   15 ar  
    26   11   20 1   
    27   12   15 ar  
    28   12   40 1   
    29   13   19 1   
    30   13   41 1   
    31   13   42 1   
    32   14   25 1   
    33   14   26 1   
    34   14   43 1   
    35   15   44 1   
    36   16   45 1   
    37   16   46 1   
    38   17   47 1   
    39   17   48 1   
    40   18   23 1   
    41   19   27 ar  
    42   19   28 ar  
    43   20   29 1   
    44   21   23 1   
    45   21   24 1   
    46   21   49 1   
    47   21   50 1   
    48   22   24 1   
    49   22   30 1   
    50   23   51 1   
    51   23   52 1   
    52   24   53 1   
    53   24   54 1   
    54   25   55 1   
    55   25   56 1   
    56   25   57 1   
    57   26   58 1   
    58   26   59 1   
    59   26   60 1   
    60   27   31 ar  
    61   27   61 1   
    62   28   32 ar  
    63   28   62 1   
    64   29   63 1   
    65   29   64 1   
    66   29   65 1   
    67   30   66 1   
    68   30   67 1   
    69   30   68 1   
    70   31   33 ar  
    71   31   69 1   
    72   32   33 ar  
    73   32   70 1   
    74   33   71 1   
@<TRIPOS>SUBSTRUCTURE
     1 0LT         1 TEMP              0 ****  ****    0 ROOT
