@<TRIPOS>MOLECULE
0LT
   71    66     1     0     0
SMALL
bcc


@<TRIPOS>ATOM
      1 C1         -0.2890   -0.1880   -0.8960 c1        1 0LT      0.348000
      2 N2          1.1700   -0.2150   -0.9280 n2        1 0LT     -0.327000
      3 C3          1.9400   -0.3090    0.3450 c3        1 0LT     -0.017000
      4 C4         -1.0550    1.0620   -1.4160 c2        1 0LT     -0.130000
      5 C5          2.3200   -1.8330    0.6280 c3        1 0LT     -0.147000
      6 C6         -2.4430    0.7630   -1.3440 c1        1 0LT     -0.087000
      7 C7         -3.3720    1.7900   -1.2710 c1        1 0LT      0.025000
      8 N8          1.5370   -2.3110    2.7060 n3        1 0LT     -0.267000
      9 C9          3.5280   -1.9170    1.7040 c3        1 0LT     -0.125000
     10 O10        -0.9120   -1.1780   -0.5260 o         1 0LT     -0.358000
     11 C11        -2.9420    3.1260   -1.2670 c1        1 0LT      0.069000
     12 C12        -0.6330    2.3670   -1.4130 c2        1 0LT     -0.067000
     13 C13         4.2570   -3.3120    1.5860 c3        1 0LT     -0.118000
     14 C14         1.8680    0.0130   -2.1720 c3        1 0LT      0.025000
     15 C15        -1.5810    3.4190   -1.3370 c2        1 0LT     -0.198000
     16 C16         1.3270   -2.4440    1.1570 c3        1 0LT     -0.098000
     17 C17         2.9760   -1.7900    2.8810 c3        1 0LT     -0.091000
     18 O18        -4.6500    1.5190   -1.8060 o         1 0LT     -0.219000
     19 C19         5.6860   -3.2010    2.1800 c1        1 0LT     -0.072000
     20 O20        -3.9130    4.2010   -1.1530 o         1 0LT     -0.205000
     21 C21        -7.0360    1.0480   -1.5340 c3        1 0LT     -0.164000
     22 O22        -9.1500    2.1020   -2.0290 os        1 0LT     -0.283000
     23 C23        -5.6470    1.2620   -0.8240 c3        1 0LT     -0.022000
     24 C24        -7.9290    2.2240   -1.2520 c3        1 0LT     -0.021000
     25 C25         2.8540    1.1270   -1.9880 c3        1 0LT     -0.227500
     26 C26         2.6030   -1.2530   -2.5800 c3        1 0LT     -0.227500
     27 C27         6.6900   -2.2720    1.7850 c1        1 0LT     -0.128250
     28 C28         5.9770   -4.1810    3.1280 c1        1 0LT     -0.127000
     29 C29        -3.9020    4.8650    0.1220 c3        1 0LT     -0.079000
     30 C30       -10.0070    3.2670   -1.9650 c3        1 0LT     -0.071000
     31 C31         7.9580   -2.3410    2.3450 c1        1 0LT     -0.128250
     32 C32         7.2610   -4.2500    3.6940 c1        1 0LT     -0.128250
     33 C33         8.2520   -3.3320    3.3030 c1        1 0LT     -0.128250
     34 H1          1.3950    0.0350    1.0850 h1        1 0LT      0.099000
     35 H2          2.7490    0.2150    0.2700 h1        1 0LT      0.099000
     36 H3          2.5740   -2.2630   -0.1820 hc        1 0LT      0.093000
     37 H4         -2.7350   -0.1400   -1.3460 ha        1 0LT      0.158000
     38 H5          1.4600   -3.1320    3.0960 hn        1 0LT      0.136000
     39 H7          4.1530   -1.2030    1.5550 hc        1 0LT      0.100000
     40 H8          0.3020    2.5670   -1.4630 ha        1 0LT      0.149000
     41 H9          3.7400   -4.0000    2.0880 hc        1 0LT      0.086500
     42 H10         4.3140   -3.5690    0.6480 hc        1 0LT      0.086500
     43 H11         1.2320    0.2520   -2.8620 h1        1 0LT      0.108000
     44 H12        -1.2900    4.3220   -1.3340 ha        1 0LT      0.144000
     45 H13         1.3320   -3.4190    0.8880 h1        1 0LT      0.103500
     46 H14         0.4800   -2.0180    0.8850 h1        1 0LT      0.103500
     47 H15         3.4500   -2.3260    3.5340 h1        1 0LT      0.091000
     48 H16         2.9670   -0.8590    3.1510 h1        1 0LT      0.091000
     49 H17        -7.4640    0.2100   -1.1850 hc        1 0LT      0.104500
     50 H18        -6.8990    0.9650   -2.5120 hc        1 0LT      0.104500
     51 H19        -5.7060    2.0250   -0.2110 h1        1 0LT      0.086500
     52 H20        -5.4090    0.4500   -0.3170 h1        1 0LT      0.086500
     53 H21        -8.1490    2.2440   -0.2960 h1        1 0LT      0.073500
     54 H22        -7.4690    3.0460   -1.4970 h1        1 0LT      0.073500
     55 H23         3.7220    0.7520   -1.6450 hc        1 0LT      0.081667
     56 H24         3.0100    1.5850   -2.8600 hc        1 0LT      0.081667
     57 H25         2.5030    1.7620   -1.3500 hc        1 0LT      0.081667
     58 H26         2.0370   -2.0370   -2.3860 hc        1 0LT      0.081667
     59 H27         3.4300   -1.3190   -2.0830 hc        1 0LT      0.081667
     60 H28         2.7970   -1.2230   -3.5290 hc        1 0LT      0.081667
     61 H29         6.4850   -1.5830    1.1200 ha        1 0LT      0.130500
     62 H30         5.3050   -4.8020    3.3920 ha        1 0LT      0.130000
     63 H31        -3.0060    5.1020    0.3490 h1        1 0LT      0.087333
     64 H32        -4.2620    4.2690    0.8030 h1        1 0LT      0.087333
     65 H33        -4.4550    5.6790    0.0740 h1        1 0LT      0.087333
     66 H34       -10.1820    3.4910   -1.0370 h1        1 0LT      0.070667
     67 H35        -9.5570    4.0320   -2.4110 h1        1 0LT      0.070667
     68 H36       -10.8440    3.0780   -2.4140 h1        1 0LT      0.070667
     69 H37         8.6690   -1.6830    2.0650 ha        1 0LT      0.130500
     70 H38         7.4710   -4.9560    4.3770 ha        1 0LT      0.130500
     71 H39         9.1040   -3.3780    3.6800 ha        1 0LT      0.130500
@<TRIPOS>BOND
     1    1    4 1   
     2    1   10 1   
     3    2    3 1   
     4    2   14 1   
     5    3    5 1   
     6    3   34 1   
     7    3   35 1   
     8    4    6 1   
     9    4   12 1   
    10    5    9 1   
    11    5   16 1   
    12    5   36 1   
    13    6   37 1   
    14    7   11 1   
    15    8   16 1   
    16    8   17 1   
    17    8   38 1   
    18    9   13 1   
    19    9   17 1   
    20    9   39 1   
    21   11   15 1   
    22   12   15 1   
    23   12   40 1   
    24   13   19 1   
    25   13   41 1   
    26   13   42 1   
    27   14   25 1   
    28   14   26 1   
    29   14   43 1   
    30   15   44 1   
    31   16   45 1   
    32   16   46 1   
    33   17   47 1   
    34   17   48 1   
    35   18   23 1   
    36   19   28 1   
    37   20   29 1   
    38   21   23 1   
    39   21   24 1   
    40   21   49 1   
    41   21   50 1   
    42   22   24 1   
    43   22   30 1   
    44   23   51 1   
    45   23   52 1   
    46   24   53 1   
    47   24   54 1   
    48   25   55 1   
    49   25   56 1   
    50   25   57 1   
    51   26   58 1   
    52   26   59 1   
    53   26   60 1   
    54   27   31 1   
    55   27   61 1   
    56   28   62 1   
    57   29   63 1   
    58   29   64 1   
    59   29   65 1   
    60   30   66 1   
    61   30   67 1   
    62   30   68 1   
    63   31   69 1   
    64   32   33 1   
    65   32   70 1   
    66   33   71 1   
@<TRIPOS>SUBSTRUCTURE
     1 0LT         1 TEMP              0 ****  ****    0 ROOT
