@<TRIPOS>MOLECULE
0LT
   72    74     1     0     0
SMALL
bcc


@<TRIPOS>ATOM
      1 C1          0.8720    0.8870   -1.0100 c         1 0LT      0.581700
      2 N2          1.7650   -0.3130   -0.7080 nx        1 0LT     -0.600200
      3 C3          2.2080   -0.3460    0.7230 c3        1 0LT      0.111800
      4 C4         -0.2940    0.6110   -1.8470 ca        1 0LT     -0.225600
      5 C5          1.9060   -1.6760    1.4020 c3        1 0LT     -0.123700
      6 C6         -1.0810   -0.5480   -1.6780 ca        1 0LT     -0.170000
      7 C7         -2.1880   -0.7500   -2.4900 ca        1 0LT      0.120100
      8 N8          0.1310   -2.3060    2.9700 n7        1 0LT     -0.791200
      9 C9          2.5040   -1.7070    2.8200 c3        1 0LT     -0.076700
     10 O10         1.2320    1.9660   -0.5560 o         1 0LT     -0.436100
     11 C11        -2.5230    0.2170   -3.4970 ca        1 0LT      0.190100
     12 C12        -0.6400    1.5690   -2.8060 ca        1 0LT     -0.026000
     13 C13         3.8160   -2.4700    2.8590 c3        1 0LT     -0.023100
     14 C14         2.9090   -0.3570   -1.7060 c3        1 0LT      0.142500
     15 C15        -1.7420    1.3670   -3.6360 ca        1 0LT     -0.207000
     16 C16         0.3910   -1.9250    1.5890 c3        1 0LT      0.146800
     17 C17         1.4030   -2.3680    3.6820 c3        1 0LT      0.149800
     18 O18        -3.0130   -1.8440   -2.4500 os        1 0LT     -0.289900
     19 C19         4.5030   -2.3380    4.1730 ca        1 0LT     -0.103300
     20 O20        -3.6180   -0.0890   -4.2480 os        1 0LT     -0.275900
     21 C21        -4.0760   -3.6510   -1.3910 c3        1 0LT     -0.092400
     22 O22        -5.1510   -5.4900   -0.3950 os        1 0LT     -0.414600
     23 C23        -2.9380   -2.6560   -1.2650 c3        1 0LT      0.128400
     24 C24        -4.1130   -4.5440   -0.1630 c3        1 0LT      0.131400
     25 C25         3.9260    0.7610   -1.5300 c3        1 0LT     -0.128600
     26 C26         3.6100   -1.7100   -1.6790 c3        1 0LT     -0.128600
     27 C27         5.1270   -1.1350    4.5250 ca        1 0LT     -0.125500
     28 C28         4.5500   -3.4210    5.0580 ca        1 0LT     -0.125500
     29 C29        -4.0020    0.8610   -5.2470 c3        1 0LT      0.100700
     30 C30        -5.3360   -6.3770    0.6980 c3        1 0LT      0.113700
     31 C31         5.7860   -1.0170    5.7470 ca        1 0LT     -0.120500
     32 C32         5.2110   -3.3010    6.2790 ca        1 0LT     -0.120500
     33 C33         5.8300   -2.1000    6.6260 ca        1 0LT     -0.115000
     34 H1          3.3180   -0.1540    0.7660 hx        1 0LT      0.108700
     35 H2          1.6960    0.4950    1.2750 hx        1 0LT      0.108700
     36 H3          2.3470   -2.5180    0.8000 hc        1 0LT      0.074700
     37 H4         -0.8620   -1.2710   -0.8780 ha        1 0LT      0.138000
     38 H5         -0.4960   -1.6570    3.4070 hn        1 0LT      0.368800
     39 H7          2.6820   -0.6600    3.1880 hc        1 0LT      0.065700
     40 H8         -0.0430    2.4900   -2.9070 ha        1 0LT      0.162000
     41 H9          4.4890   -2.0680    2.0520 hc        1 0LT      0.048700
     42 H10         3.6290   -3.5530    2.6290 hc        1 0LT      0.048700
     43 H11         2.4070   -0.2300   -2.7160 hx        1 0LT      0.097700
     44 H12        -1.9960    2.1270   -4.3910 ha        1 0LT      0.171000
     45 H13        -0.2040   -1.0180    1.2880 h1        1 0LT      0.038700
     46 H14         0.0640   -2.7810    0.9350 h1        1 0LT      0.038700
     47 H15         1.3410   -1.8720    4.6870 h1        1 0LT      0.072200
     48 H16         1.6460   -3.4540    3.8470 h1        1 0LT      0.072200
     49 H17        -3.9420   -4.2750   -2.3130 hc        1 0LT      0.082700
     50 H18        -5.0510   -3.1090   -1.4990 hc        1 0LT      0.082700
     51 H19        -3.0540   -2.0110   -0.3550 h1        1 0LT      0.036700
     52 H20        -1.9440   -3.1750   -1.2400 h1        1 0LT      0.036700
     53 H21        -4.3380   -3.9490    0.7630 h1        1 0LT      0.026200
     54 H22        -3.1360   -5.0810   -0.0220 h1        1 0LT      0.026200
     55 H23         4.6250    0.5530   -0.6840 hc        1 0LT      0.075533
     56 H24         4.5320    0.8240   -2.4700 hc        1 0LT      0.075533
     57 H25         3.4380    1.7520   -1.3600 hc        1 0LT      0.075533
     58 H26         4.4000   -1.7080   -2.4710 hc        1 0LT      0.075533
     59 H27         4.1030   -1.8950   -0.6930 hc        1 0LT      0.075533
     60 H28         2.9010   -2.5460   -1.8950 hc        1 0LT      0.075533
     61 H29         5.1000   -0.2820    3.8330 ha        1 0LT      0.127000
     62 H30         4.0660   -4.3730    4.7890 ha        1 0LT      0.127000
     63 H31        -4.2610    1.8390   -4.7770 h1        1 0LT      0.064700
     64 H32        -4.9080    0.3840   -5.7040 h1        1 0LT      0.064700
     65 H33        -3.1900    0.9800   -6.0040 h1        1 0LT      0.064700
     66 H34        -4.4060   -6.9670    0.8880 h1        1 0LT      0.039700
     67 H35        -5.6260   -5.8120    1.6180 h1        1 0LT      0.039700
     68 H36        -6.1680   -7.0480    0.3680 h1        1 0LT      0.039700
     69 H37         6.2770   -0.0700    6.0170 ha        1 0LT      0.141500
     70 H38         5.2470   -4.1580    6.9700 ha        1 0LT      0.141500
     71 H39         6.3530   -2.0070    7.5900 ha        1 0LT      0.144000
     72 H211        1.2080   -1.1620   -0.8810 hn        1 0LT      0.449800
@<TRIPOS>BOND
     1    1    2 1   
     2    1    4 1   
     3    1   10 2   
     4    2    3 1   
     5    2   14 1   
     6    2   72 1   
     7    3    5 1   
     8    3   34 1   
     9    3   35 1   
    10    4    6 ar  
    11    4   12 ar  
    12    5    9 1   
    13    5   16 1   
    14    5   36 1   
    15    6    7 ar  
    16    6   37 1   
    17    7   11 ar  
    18    7   18 1   
    19    8   16 1   
    20    8   17 1   
    21    8   38 1   
    22    9   13 1   
    23    9   17 1   
    24    9   39 1   
    25   11   15 ar  
    26   11   20 1   
    27   12   15 ar  
    28   12   40 1   
    29   13   19 1   
    30   13   41 1   
    31   13   42 1   
    32   14   25 1   
    33   14   26 1   
    34   14   43 1   
    35   15   44 1   
    36   16   45 1   
    37   16   46 1   
    38   17   47 1   
    39   17   48 1   
    40   18   23 1   
    41   19   27 ar  
    42   19   28 ar  
    43   20   29 1   
    44   21   23 1   
    45   21   24 1   
    46   21   49 1   
    47   21   50 1   
    48   22   24 1   
    49   22   30 1   
    50   23   51 1   
    51   23   52 1   
    52   24   53 1   
    53   24   54 1   
    54   25   55 1   
    55   25   56 1   
    56   25   57 1   
    57   26   58 1   
    58   26   59 1   
    59   26   60 1   
    60   27   31 ar  
    61   27   61 1   
    62   28   32 ar  
    63   28   62 1   
    64   29   63 1   
    65   29   64 1   
    66   29   65 1   
    67   30   66 1   
    68   30   67 1   
    69   30   68 1   
    70   31   33 ar  
    71   31   69 1   
    72   32   33 ar  
    73   32   70 1   
    74   33   71 1   
@<TRIPOS>SUBSTRUCTURE
     1 0LT         1 TEMP              0 ****  ****    0 ROOT
