@<TRIPOS>MOLECULE
0LU
   46    49     1     0     0
SMALL
bcc


@<TRIPOS>ATOM
      1 C1         -0.9430   -0.0990    0.7090 ca        1 0LU     -0.068800
      2 C2          0.2660   -0.1200   -0.1750 c3        1 0LU      0.020900
      3 C3         -0.9080   -0.5670    2.0290 ca        1 0LU     -0.022600
      4 C4         -2.1540    0.3660    0.1790 ca        1 0LU     -0.116500
      5 C5          1.5570    0.0590    0.5610 ca        1 0LU     -0.068800
      6 C6          0.2750   -1.4290   -0.9740 c3        1 0LU     -0.105400
      7 S7          0.5020   -1.1070    2.7960 ss        1 0LU     -0.074800
      8 C8         -2.0860   -0.5970    2.7890 ca        1 0LU     -0.112000
      9 C9         -3.3190    0.3380    0.9390 ca        1 0LU     -0.129000
     10 C10         1.7340   -0.4010    1.8730 ca        1 0LU     -0.022600
     11 C11         2.6260    0.6860   -0.0950 ca        1 0LU     -0.116500
     12 C12         1.1450   -1.3330   -2.2250 c3        1 0LU      0.129100
     13 C13        -3.2870   -0.1560    2.2450 ca        1 0LU     -0.120500
     14 C14         2.9850   -0.2720    2.4940 ca        1 0LU     -0.112000
     15 C15         3.8640    0.8140    0.5280 ca        1 0LU     -0.129000
     16 C16         1.0820   -2.6720   -2.9890 c3        1 0LU      0.141800
     17 O17         0.7390   -0.2560   -3.0550 oh        1 0LU     -0.602800
     18 C18         4.0470    0.3220    1.8220 ca        1 0LU     -0.120500
     19 N19         2.2700   -2.9530   -3.7750 n3        1 0LU     -0.718600
     20 C20         2.2670   -4.2980   -4.3580 c3        1 0LU      0.152800
     21 C21         2.5430   -1.9950   -4.8490 c3        1 0LU      0.152800
     22 C22         2.3840   -4.2010   -5.8880 c3        1 0LU     -0.097400
     23 C23         2.5270   -2.7190   -6.2050 c3        1 0LU     -0.097400
     24 H1          0.1710    0.7280   -0.9190 hc        1 0LU      0.080700
     25 H2         -2.1800    0.7540   -0.8510 ha        1 0LU      0.139000
     26 H3          0.6520   -2.2620   -0.3270 hc        1 0LU      0.057700
     27 H4         -0.7770   -1.6730   -1.2770 hc        1 0LU      0.057700
     28 H5         -2.0510   -0.9660    3.8260 ha        1 0LU      0.140500
     29 H6         -4.2650    0.7020    0.5120 ha        1 0LU      0.134000
     30 H7          2.4800    1.0690   -1.1190 ha        1 0LU      0.139000
     31 H8          2.2050   -1.0710   -1.9420 h1        1 0LU      0.101700
     32 H9         -4.2070   -0.1870    2.8460 ha        1 0LU      0.134500
     33 H10         3.1180   -0.6400    3.5230 ha        1 0LU      0.140500
     34 H11         4.6970    1.3000    0.0000 ha        1 0LU      0.134000
     35 H12         0.1400   -2.6710   -3.6120 h1        1 0LU      0.033200
     36 H13         0.9890   -3.5020   -2.2320 h1        1 0LU      0.033200
     37 H14        -0.1820   -0.4080   -3.2990 ho        1 0LU      0.394000
     38 H15         5.0270    0.4130    2.3130 ha        1 0LU      0.134500
     39 H17         3.1600   -4.8350   -3.9350 h1        1 0LU      0.050200
     40 H18         1.3510   -4.8840   -4.0750 h1        1 0LU      0.050200
     41 H19         3.5670   -1.5750   -4.6520 h1        1 0LU      0.050200
     42 H20         1.8150   -1.1390   -4.8460 h1        1 0LU      0.050200
     43 H21         1.4770   -4.6320   -6.3790 hc        1 0LU      0.045700
     44 H22         3.2700   -4.7780   -6.2460 hc        1 0LU      0.045700
     45 H23         3.4710   -2.5150   -6.7660 hc        1 0LU      0.045700
     46 H24         1.6750   -2.3590   -6.8320 hc        1 0LU      0.045700
@<TRIPOS>BOND
     1    1    2 1   
     2    1    3 ar  
     3    1    4 ar  
     4    2    5 1   
     5    2    6 1   
     6    2   24 1   
     7    3    7 1   
     8    3    8 ar  
     9    4    9 ar  
    10    4   25 1   
    11    5   10 ar  
    12    5   11 ar  
    13    6   12 1   
    14    6   26 1   
    15    6   27 1   
    16    7   10 1   
    17    8   13 ar  
    18    8   28 1   
    19    9   13 ar  
    20    9   29 1   
    21   10   14 ar  
    22   11   15 ar  
    23   11   30 1   
    24   12   16 1   
    25   12   17 1   
    26   12   31 1   
    27   13   32 1   
    28   14   18 ar  
    29   14   33 1   
    30   15   18 ar  
    31   15   34 1   
    32   16   19 1   
    33   16   35 1   
    34   16   36 1   
    35   17   37 1   
    36   18   38 1   
    37   19   20 1   
    38   19   21 1   
    39   20   22 1   
    40   20   39 1   
    41   20   40 1   
    42   21   23 1   
    43   21   41 1   
    44   21   42 1   
    45   22   23 1   
    46   22   43 1   
    47   22   44 1   
    48   23   45 1   
    49   23   46 1   
@<TRIPOS>SUBSTRUCTURE
     1 0LU         1 TEMP              0 ****  ****    0 ROOT
