@<TRIPOS>MOLECULE
0LU
   46    43     1     0     0
SMALL
bcc


@<TRIPOS>ATOM
      1 C1         -1.5050   -0.1400    2.7140 c1        1 0LU     -0.154500
      2 C2         -0.8220    0.3960    1.3300 c2        1 0LU     -0.033000
      3 C3         -0.8440    0.0310    3.9290 c1        1 0LU     -0.154500
      4 C4         -2.8040   -0.7310    2.6830 c1        1 0LU     -0.115500
      5 C5          0.3920    1.4580    1.4090 c2        1 0LU     -0.059000
      6 C6         -0.3290   -0.7880    0.5950 c3        1 0LU     -0.184000
      7 S7          0.5550    0.8890    3.9740 s         1 0LU      0.377000
      8 C8         -1.4610   -0.3820    5.1280 c1        1 0LU     -0.115500
      9 C9         -3.4110   -1.1370    3.8600 c1        1 0LU     -0.121000
     10 C10         1.0970    1.6200    2.6000 c1        1 0LU     -0.251000
     11 C11         0.7920    2.1450    0.2620 c2        1 0LU     -0.115000
     12 C12        -0.9300   -0.8060   -0.7840 c3        1 0LU      0.019000
     13 C13        -2.7470   -0.9670    5.0920 c1        1 0LU     -0.121000
     14 C14         2.1990    2.4650    2.6460 c1        1 0LU     -0.121000
     15 C15         1.8930    2.9890    0.3100 c1        1 0LU     -0.128000
     16 C16         0.0500   -1.4600   -1.7670 c3        1 0LU     -0.094000
     17 O17        -2.1230   -1.5430   -0.7610 oh        1 0LU     -0.329000
     18 C18         2.5990    3.1490    1.5050 c1        1 0LU     -0.121000
     19 N19         0.3910   -0.5120   -2.8140 n3        1 0LU     -0.253000
     20 C20         1.6880   -0.3300   -2.8370 c3        1 0LU     -0.075000
     21 C21         0.0030   -1.1410   -4.2300 c3        1 0LU     -0.075000
     22 C22         2.0500   -0.1380   -4.3640 c3        1 0LU     -0.173000
     23 C23         0.7910   -0.5450   -5.1380 c3        1 0LU     -0.173000
     24 H1         -1.5270    0.8010    0.8000 ha        1 0LU      0.119000
     25 H2         -3.2880   -0.8570    1.7900 ha        1 0LU      0.136500
     26 H3          0.6490   -0.7470    0.5270 hc        1 0LU      0.097000
     27 H4         -0.5970   -1.6180    1.0860 hc        1 0LU      0.097000
     28 H5         -0.9970   -0.2630    5.9860 ha        1 0LU      0.136500
     29 H6         -4.3230   -1.5500    3.8350 ha        1 0LU      0.135250
     30 H7          0.3110    2.0350   -0.5540 ha        1 0LU      0.147000
     31 H8         -1.1160    0.1130   -1.0720 h1        1 0LU      0.139000
     32 H9         -3.1790   -1.2570    5.9260 ha        1 0LU      0.135250
     33 H10         2.7140    2.5840    3.5160 ha        1 0LU      0.135250
     34 H11         2.1760    3.4710   -0.4970 ha        1 0LU      0.134000
     35 H12         0.8540   -1.7250   -1.2960 h1        1 0LU      0.075500
     36 H13        -0.3950   -2.2940   -2.1920 h1        1 0LU      0.075500
     37 H14        -1.9320   -2.4200   -0.7530 ho        1 0LU      0.192000
     38 H15         3.3500    3.7240    1.5370 ha        1 0LU      0.135250
     39 H17         2.1450   -1.1140   -2.4780 h1        1 0LU      0.083250
     40 H18         1.9350    0.4940   -2.3080 h1        1 0LU      0.083250
     41 H19        -0.9560   -0.9570   -4.4330 h1        1 0LU      0.083250
     42 H20         0.1710   -2.1250   -4.2230 h1        1 0LU      0.083250
     43 H21         2.8380   -0.7430   -4.6240 hc        1 0LU      0.086500
     44 H22         2.2800    0.8420   -4.5550 hc        1 0LU      0.086500
     45 H23         0.3450    0.2540   -5.5120 hc        1 0LU      0.086500
     46 H24         1.0170   -1.1700   -5.8480 hc        1 0LU      0.086500
@<TRIPOS>BOND
     1    1    3 1   
     2    1    4 1   
     3    2    5 1   
     4    2    6 1   
     5    2   24 1   
     6    3    8 1   
     7    4   25 1   
     8    5   10 1   
     9    5   11 1   
    10    6   12 1   
    11    6   26 1   
    12    6   27 1   
    13    7   10 1   
    14    8   28 1   
    15    9   13 1   
    16    9   29 1   
    17   11   15 1   
    18   11   30 1   
    19   12   16 1   
    20   12   17 1   
    21   12   31 1   
    22   13   32 1   
    23   14   18 1   
    24   14   33 1   
    25   15   34 1   
    26   16   19 1   
    27   16   35 1   
    28   16   36 1   
    29   17   37 1   
    30   18   38 1   
    31   19   20 1   
    32   19   21 1   
    33   20   22 1   
    34   20   39 1   
    35   20   40 1   
    36   21   23 1   
    37   21   41 1   
    38   21   42 1   
    39   22   23 1   
    40   22   43 1   
    41   22   44 1   
    42   23   45 1   
    43   23   46 1   
@<TRIPOS>SUBSTRUCTURE
     1 0LU         1 TEMP              0 ****  ****    0 ROOT
