@<TRIPOS>MOLECULE
0LU
   46    49     1     0     0
SMALL
bcc


@<TRIPOS>ATOM
      1 C1         -1.4780    1.9460    0.1950 ca        1 0LU     -0.068800
      2 C2         -0.7360    0.7210    0.6340 c3        1 0LU      0.020900
      3 C3         -2.5610    1.8840   -0.6910 ca        1 0LU     -0.022600
      4 C4         -1.0420    3.1960    0.6580 ca        1 0LU     -0.116500
      5 C5         -1.5900   -0.5070    0.7100 ca        1 0LU     -0.068800
      6 C6          0.4540    0.4960   -0.3060 c3        1 0LU     -0.105400
      7 S7         -3.2110    0.4340   -1.2780 ss        1 0LU     -0.074800
      8 C8         -3.1710    3.0680   -1.1290 ca        1 0LU     -0.112000
      9 C9         -1.6530    4.3670    0.2210 ca        1 0LU     -0.129000
     10 C10        -2.6790   -0.7100   -0.1470 ca        1 0LU     -0.022600
     11 C11        -1.2690   -1.4930    1.6550 ca        1 0LU     -0.116500
     12 C12         1.5260   -0.3890    0.3240 c3        1 0LU      0.129100
     13 C13        -2.7150    4.3030   -0.6840 ca        1 0LU     -0.120500
     14 C14        -3.4030   -1.9080   -0.0840 ca        1 0LU     -0.112000
     15 C15        -1.9940   -2.6790    1.7160 ca        1 0LU     -0.129000
     16 C16         2.7000   -0.5450   -0.6660 c3        1 0LU      0.141800
     17 O17         1.9730    0.1420    1.5610 oh        1 0LU     -0.602800
     18 C18        -3.0570   -2.8920    0.8350 ca        1 0LU     -0.120500
     19 N19         3.4370   -1.7850   -0.5080 n3        1 0LU     -0.718600
     20 C20         4.4390   -1.9940   -1.5580 c3        1 0LU      0.152800
     21 C21         4.0980   -1.9520    0.7880 c3        1 0LU      0.152800
     22 C22         5.8320   -2.1450   -0.9230 c3        1 0LU     -0.097400
     23 C23         5.6160   -2.0850    0.5830 c3        1 0LU     -0.097400
     24 H1         -0.3170    0.9160    1.6670 hc        1 0LU      0.080700
     25 H2         -0.2040    3.2470    1.3700 ha        1 0LU      0.139000
     26 H3          0.0980    0.0240   -1.2570 hc        1 0LU      0.057700
     27 H4          0.9030    1.4920   -0.5610 hc        1 0LU      0.057700
     28 H5         -4.0220    3.0110   -1.8260 ha        1 0LU      0.140500
     29 H6         -1.3010    5.3420    0.5880 ha        1 0LU      0.134000
     30 H7         -0.4260   -1.3240    2.3450 ha        1 0LU      0.139000
     31 H8          1.0880   -1.3910    0.6020 h1        1 0LU      0.101700
     32 H9         -3.1960    5.2270   -1.0370 ha        1 0LU      0.134500
     33 H10        -4.2560   -2.0620   -0.7640 ha        1 0LU      0.140500
     34 H11        -1.7290   -3.4480    2.4550 ha        1 0LU      0.134000
     35 H12         2.2780   -0.5480   -1.7110 h1        1 0LU      0.033200
     36 H13         3.3590    0.3680   -0.5660 h1        1 0LU      0.033200
     37 H14         2.3260    1.0230    1.3890 ho        1 0LU      0.394000
     38 H15        -3.6260   -3.8330    0.8740 ha        1 0LU      0.134500
     39 H17         4.1530   -2.9410   -2.0930 h1        1 0LU      0.050200
     40 H18         4.4450   -1.1630   -2.3140 h1        1 0LU      0.050200
     41 H19         3.8640   -1.1090    1.4930 h1        1 0LU      0.050200
     42 H20         3.6890   -2.8990    1.2380 h1        1 0LU      0.050200
     43 H21         6.2920   -3.1160   -1.2260 hc        1 0LU      0.045700
     44 H22         6.5100   -1.3260   -1.2660 hc        1 0LU      0.045700
     45 H23         6.1500   -1.2110    1.0290 hc        1 0LU      0.045700
     46 H24         5.9970   -3.0070    1.0830 hc        1 0LU      0.045700
@<TRIPOS>BOND
     1    1    2 1   
     2    1    3 ar  
     3    1    4 ar  
     4    2    5 1   
     5    2    6 1   
     6    2   24 1   
     7    3    7 1   
     8    3    8 ar  
     9    4    9 ar  
    10    4   25 1   
    11    5   10 ar  
    12    5   11 ar  
    13    6   12 1   
    14    6   26 1   
    15    6   27 1   
    16    7   10 1   
    17    8   13 ar  
    18    8   28 1   
    19    9   13 ar  
    20    9   29 1   
    21   10   14 ar  
    22   11   15 ar  
    23   11   30 1   
    24   12   16 1   
    25   12   17 1   
    26   12   31 1   
    27   13   32 1   
    28   14   18 ar  
    29   14   33 1   
    30   15   18 ar  
    31   15   34 1   
    32   16   19 1   
    33   16   35 1   
    34   16   36 1   
    35   17   37 1   
    36   18   38 1   
    37   19   20 1   
    38   19   21 1   
    39   20   22 1   
    40   20   39 1   
    41   20   40 1   
    42   21   23 1   
    43   21   41 1   
    44   21   42 1   
    45   22   23 1   
    46   22   43 1   
    47   22   44 1   
    48   23   45 1   
    49   23   46 1   
@<TRIPOS>SUBSTRUCTURE
     1 0LU         1 TEMP              0 ****  ****    0 ROOT
