@<TRIPOS>MOLECULE
0LU
   46    49     1     0     0
SMALL
bcc


@<TRIPOS>ATOM
      1 C1         -0.2760    0.1620    0.1990 ca        1 0LU     -0.072800
      2 C2          1.1650   -0.1520   -0.0640 c3        1 0LU      0.020900
      3 C3         -0.8920   -0.1540    1.4170 ca        1 0LU     -0.023600
      4 C4         -1.0320    0.7760   -0.8100 ca        1 0LU     -0.123500
      5 C5          2.0270   -0.0730    1.1610 ca        1 0LU     -0.072800
      6 C6          1.3280   -1.5440   -0.6870 c3        1 0LU     -0.113400
      7 S7         -0.0710   -0.8140    2.7430 ss        1 0LU     -0.067800
      8 C8         -2.2610    0.0970    1.5920 ca        1 0LU     -0.109500
      9 C9         -2.3880    1.0280   -0.6290 ca        1 0LU     -0.127000
     10 C10         1.5410   -0.4000    2.4330 ca        1 0LU     -0.023600
     11 C11         3.3710    0.2960    1.0130 ca        1 0LU     -0.123500
     12 C12         0.8620   -1.6040   -2.1420 c3        1 0LU      0.141100
     13 C13        -3.0080    0.6740    0.5720 ca        1 0LU     -0.120000
     14 C14         2.4090   -0.3870    3.5350 ca        1 0LU     -0.109500
     15 C15         4.2260    0.3100    2.1100 ca        1 0LU     -0.127000
     16 C16         1.7370   -2.5870   -2.9510 c3        1 0LU      0.171800
     17 O17        -0.4660   -2.1090   -2.2230 oh        1 0LU     -0.609800
     18 C18         3.7460   -0.0430    3.3740 ca        1 0LU     -0.120000
     19 N19         1.7570   -2.2990   -4.3750 n3        1 0LU     -0.724600
     20 C20         2.7790   -3.0630   -5.0980 c3        1 0LU      0.153800
     21 C21         0.4770   -2.4920   -5.0610 c3        1 0LU      0.153800
     22 C22         2.1220   -3.8720   -6.2280 c3        1 0LU     -0.096400
     23 C23         0.6390   -3.5310   -6.1820 c3        1 0LU     -0.096400
     24 H1          1.5540    0.6090   -0.8050 hc        1 0LU      0.068700
     25 H2         -0.5450    1.0540   -1.7580 ha        1 0LU      0.136500
     26 H3          2.4150   -1.8170   -0.6270 hc        1 0LU      0.065200
     27 H4          0.7560   -2.2970   -0.0850 hc        1 0LU      0.065200
     28 H5         -2.7400   -0.1610    2.5500 ha        1 0LU      0.142500
     29 H6         -2.9710    1.5040   -1.4300 ha        1 0LU      0.136000
     30 H7          3.7520    0.5680    0.0170 ha        1 0LU      0.136500
     31 H8          0.8950   -0.5760   -2.6020 h1        1 0LU      0.047700
     32 H9         -4.0820    0.8620    0.7150 ha        1 0LU      0.136500
     33 H10         2.0210   -0.6460    4.5320 ha        1 0LU      0.142500
     34 H11         5.2800    0.5970    1.9830 ha        1 0LU      0.136000
     35 H12         1.3780   -3.6310   -2.7220 h1        1 0LU      0.041700
     36 H13         2.7970   -2.4900   -2.5820 h1        1 0LU      0.041700
     37 H14        -1.0200   -1.5270   -1.6860 ho        1 0LU      0.408000
     38 H15         4.4210   -0.0400    4.2410 ha        1 0LU      0.136500
     39 H17         3.3610   -3.7470   -4.4220 h1        1 0LU      0.049700
     40 H18         3.5000   -2.3140   -5.5270 h1        1 0LU      0.049700
     41 H19         0.1940   -1.4960   -5.5000 h1        1 0LU      0.049700
     42 H20        -0.3390   -2.8000   -4.3500 h1        1 0LU      0.049700
     43 H21         2.5680   -3.5950   -7.2140 hc        1 0LU      0.044950
     44 H22         2.2880   -4.9660   -6.0750 hc        1 0LU      0.044950
     45 H23         0.2890   -3.1110   -7.1560 hc        1 0LU      0.044950
     46 H24         0.0260   -4.4400   -5.9630 hc        1 0LU      0.044950
@<TRIPOS>BOND
     1    1    2 1   
     2    1    3 ar  
     3    1    4 ar  
     4    2    5 1   
     5    2    6 1   
     6    2   24 1   
     7    3    7 1   
     8    3    8 ar  
     9    4    9 ar  
    10    4   25 1   
    11    5   10 ar  
    12    5   11 ar  
    13    6   12 1   
    14    6   26 1   
    15    6   27 1   
    16    7   10 1   
    17    8   13 ar  
    18    8   28 1   
    19    9   13 ar  
    20    9   29 1   
    21   10   14 ar  
    22   11   15 ar  
    23   11   30 1   
    24   12   16 1   
    25   12   17 1   
    26   12   31 1   
    27   13   32 1   
    28   14   18 ar  
    29   14   33 1   
    30   15   18 ar  
    31   15   34 1   
    32   16   19 1   
    33   16   35 1   
    34   16   36 1   
    35   17   37 1   
    36   18   38 1   
    37   19   20 1   
    38   19   21 1   
    39   20   22 1   
    40   20   39 1   
    41   20   40 1   
    42   21   23 1   
    43   21   41 1   
    44   21   42 1   
    45   22   23 1   
    46   22   43 1   
    47   22   44 1   
    48   23   45 1   
    49   23   46 1   
@<TRIPOS>SUBSTRUCTURE
     1 0LU         1 TEMP              0 ****  ****    0 ROOT
