@<TRIPOS>MOLECULE
0LU
   46    49     1     0     0
SMALL
bcc


@<TRIPOS>ATOM
      1 C1         -0.9230   -0.0630    0.7070 ca        1 0LU     -0.068800
      2 C2          0.2890   -0.1090   -0.1730 c3        1 0LU      0.020900
      3 C3         -0.9040   -0.5360    2.0250 ca        1 0LU     -0.022600
      4 C4         -2.1210    0.4330    0.1740 ca        1 0LU     -0.116500
      5 C5          1.5810    0.0370    0.5700 ca        1 0LU     -0.068800
      6 C6          0.2710   -1.4140   -0.9770 c3        1 0LU     -0.105400
      7 S7          0.4890   -1.1120    2.7960 ss        1 0LU     -0.074800
      8 C8         -2.0860   -0.5410    2.7800 ca        1 0LU     -0.112000
      9 C9         -3.2890    0.4290    0.9290 ca        1 0LU     -0.129000
     10 C10         1.7420   -0.4320    1.8800 ca        1 0LU     -0.022600
     11 C11         2.6670    0.6410   -0.0800 ca        1 0LU     -0.116500
     12 C12         1.1470   -1.3330   -2.2250 c3        1 0LU      0.129100
     13 C13        -3.2740   -0.0700    2.2330 ca        1 0LU     -0.120500
     14 C14         2.9920   -0.3360    2.5060 ca        1 0LU     -0.112000
     15 C15         3.9050    0.7370    0.5480 ca        1 0LU     -0.129000
     16 C16         1.0550   -2.6670   -2.9950 c3        1 0LU      0.141800
     17 O17         0.7680   -0.2430   -3.0510 oh        1 0LU     -0.602800
     18 C18         4.0710    0.2360    1.8420 ca        1 0LU     -0.120500
     19 N19         2.2380   -2.9720   -3.7780 n3        1 0LU     -0.718600
     20 C20         2.2060   -4.3140   -4.3670 c3        1 0LU      0.152800
     21 C21         2.5380   -2.0160   -4.8470 c3        1 0LU      0.152800
     22 C22         2.3330   -4.2130   -5.8960 c3        1 0LU     -0.097400
     23 C23         2.5120   -2.7340   -6.2070 c3        1 0LU     -0.097400
     24 H1          0.2170    0.7450   -0.9140 hc        1 0LU      0.080700
     25 H2         -2.1340    0.8250   -0.8550 ha        1 0LU      0.139000
     26 H3          0.6250   -2.2580   -0.3330 hc        1 0LU      0.057700
     27 H4         -0.7860   -1.6320   -1.2840 hc        1 0LU      0.057700
     28 H5         -2.0640   -0.9150    3.8160 ha        1 0LU      0.140500
     29 H6         -4.2240    0.8170    0.4990 ha        1 0LU      0.134000
     30 H7          2.5340    1.0320   -1.1020 ha        1 0LU      0.139000
     31 H8          2.2110   -1.0970   -1.9370 h1        1 0LU      0.101700
     32 H9         -4.1970   -0.0820    2.8300 ha        1 0LU      0.134500
     33 H10         3.1120   -0.7100    3.5350 ha        1 0LU      0.140500
     34 H11         4.7520    1.2060    0.0260 ha        1 0LU      0.134000
     35 H12         0.9400   -3.4980   -2.2420 h1        1 0LU      0.033200
     36 H13         0.1150   -2.6410   -3.6210 h1        1 0LU      0.033200
     37 H14        -0.1550   -0.3730   -3.2990 ho        1 0LU      0.394000
     38 H15         5.0500    0.3020    2.3370 ha        1 0LU      0.134500
     39 H17         3.0840   -4.8740   -3.9420 h1        1 0LU      0.050200
     40 H18         1.2740   -4.8790   -4.0910 h1        1 0LU      0.050200
     41 H19         1.8290   -1.1440   -4.8430 h1        1 0LU      0.050200
     42 H20         3.5700   -1.6190   -4.6430 h1        1 0LU      0.050200
     43 H21         3.2080   -4.8090   -6.2530 hc        1 0LU      0.045700
     44 H22         1.4190   -4.6210   -6.3930 hc        1 0LU      0.045700
     45 H23         1.6710   -2.3520   -6.8350 hc        1 0LU      0.045700
     46 H24         3.4630   -2.5490   -6.7620 hc        1 0LU      0.045700
@<TRIPOS>BOND
     1    1    2 1   
     2    1    3 ar  
     3    1    4 ar  
     4    2    5 1   
     5    2    6 1   
     6    2   24 1   
     7    3    7 1   
     8    3    8 ar  
     9    4    9 ar  
    10    4   25 1   
    11    5   10 ar  
    12    5   11 ar  
    13    6   12 1   
    14    6   26 1   
    15    6   27 1   
    16    7   10 1   
    17    8   13 ar  
    18    8   28 1   
    19    9   13 ar  
    20    9   29 1   
    21   10   14 ar  
    22   11   15 ar  
    23   11   30 1   
    24   12   16 1   
    25   12   17 1   
    26   12   31 1   
    27   13   32 1   
    28   14   18 ar  
    29   14   33 1   
    30   15   18 ar  
    31   15   34 1   
    32   16   19 1   
    33   16   35 1   
    34   16   36 1   
    35   17   37 1   
    36   18   38 1   
    37   19   20 1   
    38   19   21 1   
    39   20   22 1   
    40   20   39 1   
    41   20   40 1   
    42   21   23 1   
    43   21   41 1   
    44   21   42 1   
    45   22   23 1   
    46   22   43 1   
    47   22   44 1   
    48   23   45 1   
    49   23   46 1   
@<TRIPOS>SUBSTRUCTURE
     1 0LU         1 TEMP              0 ****  ****    0 ROOT
