@<TRIPOS>MOLECULE
0LV
   27    28     1     0     0
SMALL
bcc


@<TRIPOS>ATOM
      1 CAH         0.0040   -0.3600   -0.1000 c3        1 0LV     -0.044100
      2 CAM         1.5460   -0.1780   -0.0520 c3        1 0LV      0.145800
      3 CAA         1.9600    1.2480   -0.3550 c3        1 0LV     -0.100100
      4 CAB         2.2630   -1.1690   -0.9480 c3        1 0LV     -0.100100
      5 OAI         1.9730   -0.4640    1.3300 os        1 0LV     -0.326900
      6 CAL         0.8440   -0.7880    2.0630 ca        1 0LV      0.117100
      7 CAK        -0.3460   -0.7490    1.2950 ca        1 0LV     -0.160300
      8 CAF        -1.5570   -1.0520    1.8870 ca        1 0LV     -0.080000
      9 CAD        -1.5700   -1.3930    3.2480 ca        1 0LV     -0.170000
     10 CAE        -0.3950   -1.4280    3.9940 ca        1 0LV     -0.073000
     11 CAJ         0.8480   -1.1230    3.4160 ca        1 0LV     -0.110300
     12 CAG         2.1250   -1.1370    4.1810 c3        1 0LV      0.187700
     13 OAC         1.9030   -1.7220    5.4580 oh        1 0LV     -0.602800
     14 H1         -0.2800   -1.1550   -0.8330 hc        1 0LV      0.063700
     15 H2         -0.4990    0.5930   -0.4000 hc        1 0LV      0.063700
     16 H3          1.4470    1.9570    0.3380 hc        1 0LV      0.048367
     17 H4          1.6890    1.5020   -1.4070 hc        1 0LV      0.048367
     18 H5          3.0630    1.3620   -0.2230 hc        1 0LV      0.048367
     19 H6          1.9690   -2.2130   -0.6850 hc        1 0LV      0.048367
     20 H7          1.9990   -0.9700   -2.0140 hc        1 0LV      0.048367
     21 H8          3.3680   -1.0690   -0.8200 hc        1 0LV      0.048367
     22 H9         -2.4920   -1.0280    1.3100 ha        1 0LV      0.134000
     23 H10        -2.5260   -1.6380    3.7320 ha        1 0LV      0.133000
     24 H11        -0.4230   -1.7020    5.0610 ha        1 0LV      0.154000
     25 H12         2.5000   -0.0840    4.3100 h1        1 0LV      0.037700
     26 H13         2.8990   -1.7280    3.6170 h1        1 0LV      0.037700
     27 H14         2.7620   -1.7440    5.8940 ho        1 0LV      0.403000
@<TRIPOS>BOND
     1    1    2 1   
     2    1    7 1   
     3    1   14 1   
     4    1   15 1   
     5    2    3 1   
     6    2    4 1   
     7    2    5 1   
     8    3   16 1   
     9    3   17 1   
    10    3   18 1   
    11    4   19 1   
    12    4   20 1   
    13    4   21 1   
    14    5    6 1   
    15    6    7 ar  
    16    6   11 ar  
    17    7    8 ar  
    18    8    9 ar  
    19    8   22 1   
    20    9   10 ar  
    21    9   23 1   
    22   10   11 ar  
    23   10   24 1   
    24   11   12 1   
    25   12   13 1   
    26   12   25 1   
    27   12   26 1   
    28   13   27 1   
@<TRIPOS>SUBSTRUCTURE
     1 0LV         1 TEMP              0 ****  ****    0 ROOT
