@<TRIPOS>MOLECULE
0LV
   27    25     1     0     0
SMALL
bcc


@<TRIPOS>ATOM
      1 CAH        -0.7270    0.0340   -1.6890 c3        1 0LV     -0.080300
      2 CAM         0.7400   -0.0160   -1.6710 c3        1 0LV      0.145800
      3 CAA         1.3140    1.2170   -2.3930 c3        1 0LV     -0.100100
      4 CAB         1.2210   -1.2900   -2.3700 c3        1 0LV     -0.100100
      5 OAI         1.1640   -0.0210   -0.3200 os        1 0LV     -0.307400
      6 CAL        -0.0620   -0.0650    0.5540 c1        1 0LV      0.111600
      7 CAK        -1.2000   -0.0320   -0.2870 c1        1 0LV     -0.125100
      8 CAF        -2.4670    0.0950    0.2620 c1        1 0LV     -0.020500
      9 CAD        -2.6220    0.1900    1.6410 c1        1 0LV     -0.070000
     10 CAE        -1.4870    0.1570    2.4860 c1        1 0LV     -0.070000
     11 CAJ        -0.2110    0.0300    1.9320 c1        1 0LV     -0.122100
     12 CAG         1.0080    0.1360    2.8120 c3        1 0LV      0.147500
     13 OAC         1.2060   -1.1200    3.5120 oh        1 0LV     -0.598800
     14 H1         -1.0870   -0.7450   -2.2070 hc        1 0LV      0.065200
     15 H2         -1.0210    0.8580   -2.0960 hc        1 0LV      0.065200
     16 H3          2.2490    1.2110   -2.3230 hc        1 0LV      0.048867
     17 H4          1.0530    1.1880   -3.3590 hc        1 0LV      0.048867
     18 H5          0.9460    2.0660   -1.9640 hc        1 0LV      0.048867
     19 H6          0.8350   -2.0710   -1.9320 hc        1 0LV      0.048867
     20 H7          0.9500   -1.2700   -3.2780 hc        1 0LV      0.048867
     21 H8          2.1610   -1.3380   -2.3220 hc        1 0LV      0.048867
     22 H9         -3.2850    0.1170   -0.3460 ha        1 0LV      0.077500
     23 H10        -3.4850    0.2750    2.0120 ha        1 0LV      0.083000
     24 H11        -1.5950    0.2240    3.4530 ha        1 0LV      0.083000
     25 H12         1.7630    0.3220    2.2810 h1        1 0LV      0.060200
     26 H13         0.8820    0.8530    3.4580 h1        1 0LV      0.060200
     27 H14         1.7590   -1.0050    4.1550 ho        1 0LV      0.400000
@<TRIPOS>BOND
     1    1    2 1   
     2    1    7 1   
     3    1   14 1   
     4    1   15 1   
     5    2    3 1   
     6    2    4 1   
     7    2    5 1   
     8    3   16 1   
     9    3   17 1   
    10    3   18 1   
    11    4   19 1   
    12    4   20 1   
    13    4   21 1   
    14    5    6 1   
    15    6   11 3   
    16    7    8 3   
    17    8   22 1   
    18    9   10 3   
    19    9   23 1   
    20   10   24 1   
    21   11   12 1   
    22   12   13 1   
    23   12   25 1   
    24   12   26 1   
    25   13   27 1   
@<TRIPOS>SUBSTRUCTURE
     1 0LV         1 TEMP              0 ****  ****    0 ROOT
