@<TRIPOS>MOLECULE
0LV
   27    28     1     0     0
SMALL
bcc


@<TRIPOS>ATOM
      1 CAH        -1.9320    1.1600    0.1000 c3        1 0LV     -0.044100
      2 CAM        -2.1760   -0.3690    0.2250 c3        1 0LV      0.145800
      3 CAA        -2.9930   -0.9100   -0.9320 c3        1 0LV     -0.100100
      4 CAB        -2.7880   -0.7400    1.5610 c3        1 0LV     -0.100100
      5 OAI        -0.8570   -1.0250    0.1610 os        1 0LV     -0.326900
      6 CAL         0.1010   -0.0350    0.0180 ca        1 0LV      0.117100
      7 CAK        -0.4510    1.2690   -0.0260 ca        1 0LV     -0.160300
      8 CAF         0.3810    2.3640   -0.1630 ca        1 0LV     -0.080000
      9 CAD         1.7630    2.1460   -0.2560 ca        1 0LV     -0.170000
     10 CAE         2.2960    0.8610   -0.2130 ca        1 0LV     -0.073000
     11 CAJ         1.4720   -0.2680   -0.0750 ca        1 0LV     -0.110300
     12 CAG         2.0010   -1.6590   -0.0370 c3        1 0LV      0.187700
     13 OAC         3.4170   -1.6220    0.0800 oh        1 0LV     -0.602800
     14 H1         -2.4530    1.5750   -0.7980 hc        1 0LV      0.063700
     15 H2         -2.3080    1.6980    1.0050 hc        1 0LV      0.063700
     16 H3         -2.5060   -0.6540   -1.9030 hc        1 0LV      0.048367
     17 H4         -3.0710   -2.0210   -0.8570 hc        1 0LV      0.048367
     18 H5         -4.0170   -0.4680   -0.9060 hc        1 0LV      0.048367
     19 H6         -3.8080   -0.2940    1.6430 hc        1 0LV      0.048367
     20 H7         -2.8660   -1.8500    1.6500 hc        1 0LV      0.048367
     21 H8         -2.1540   -0.3610    2.3970 hc        1 0LV      0.048367
     22 H9         -0.0260    3.3840   -0.1990 ha        1 0LV      0.134000
     23 H10         2.4370    3.0080   -0.3640 ha        1 0LV      0.133000
     24 H11         3.3850    0.7080   -0.2840 ha        1 0LV      0.154000
     25 H12         1.5570   -2.2100    0.8380 h1        1 0LV      0.037700
     26 H13         1.7150   -2.1980   -0.9830 h1        1 0LV      0.037700
     27 H14         3.7030   -2.5410    0.1410 ho        1 0LV      0.403000
@<TRIPOS>BOND
     1    1    2 1   
     2    1    7 1   
     3    1   14 1   
     4    1   15 1   
     5    2    3 1   
     6    2    4 1   
     7    2    5 1   
     8    3   16 1   
     9    3   17 1   
    10    3   18 1   
    11    4   19 1   
    12    4   20 1   
    13    4   21 1   
    14    5    6 1   
    15    6    7 ar  
    16    6   11 ar  
    17    7    8 ar  
    18    8    9 ar  
    19    8   22 1   
    20    9   10 ar  
    21    9   23 1   
    22   10   11 ar  
    23   10   24 1   
    24   11   12 1   
    25   12   13 1   
    26   12   25 1   
    27   12   26 1   
    28   13   27 1   
@<TRIPOS>SUBSTRUCTURE
     1 0LV         1 TEMP              0 ****  ****    0 ROOT
