@<TRIPOS>MOLECULE
0LV
   27    28     1     0     0
SMALL
bcc


@<TRIPOS>ATOM
      1 CAH         0.0070   -0.3610   -0.1010 c3        1 0LV     -0.044100
      2 CAM         1.5460   -0.1610   -0.0470 c3        1 0LV      0.145800
      3 CAA         1.9440    1.2730   -0.3400 c3        1 0LV     -0.100100
      4 CAB         2.2780   -1.1370   -0.9460 c3        1 0LV     -0.100100
      5 OAI         1.9710   -0.4490    1.3350 os        1 0LV     -0.326900
      6 CAL         0.8440   -0.7920    2.0630 ca        1 0LV      0.117100
      7 CAK        -0.3430   -0.7630    1.2900 ca        1 0LV     -0.160300
      8 CAF        -1.5530   -1.0840    1.8760 ca        1 0LV     -0.080000
      9 CAD        -1.5660   -1.4340    3.2340 ca        1 0LV     -0.170000
     10 CAE        -0.3940   -1.4580    3.9850 ca        1 0LV     -0.073000
     11 CAJ         0.8470   -1.1350    3.4130 ca        1 0LV     -0.110300
     12 CAG         2.1210   -1.1380    4.1830 c3        1 0LV      0.187700
     13 OAC         1.9030   -1.7380    5.4530 oh        1 0LV     -0.602800
     14 H1         -0.2660   -1.1550   -0.8400 hc        1 0LV      0.063700
     15 H2         -0.5080    0.5870   -0.3970 hc        1 0LV      0.063700
     16 H3          3.0440    1.3990   -0.2030 hc        1 0LV      0.048367
     17 H4          1.6730    1.5290   -1.3910 hc        1 0LV      0.048367
     18 H5          1.4190    1.9710    0.3550 hc        1 0LV      0.048367
     19 H6          3.3810   -1.0240   -0.8140 hc        1 0LV      0.048367
     20 H7          2.0150   -0.9350   -2.0110 hc        1 0LV      0.048367
     21 H8          1.9960   -2.1860   -0.6910 hc        1 0LV      0.048367
     22 H9         -2.4860   -1.0680    1.2960 ha        1 0LV      0.134000
     23 H10        -2.5220   -1.6930    3.7130 ha        1 0LV      0.133000
     24 H11        -0.4220   -1.7400    5.0500 ha        1 0LV      0.154000
     25 H12         2.9060   -1.7120    3.6170 h1        1 0LV      0.037700
     26 H13         2.4800   -0.0800    4.3230 h1        1 0LV      0.037700
     27 H14         2.7610   -1.7510    5.8920 ho        1 0LV      0.403000
@<TRIPOS>BOND
     1    1    2 1   
     2    1    7 1   
     3    1   14 1   
     4    1   15 1   
     5    2    3 1   
     6    2    4 1   
     7    2    5 1   
     8    3   16 1   
     9    3   17 1   
    10    3   18 1   
    11    4   19 1   
    12    4   20 1   
    13    4   21 1   
    14    5    6 1   
    15    6    7 ar  
    16    6   11 ar  
    17    7    8 ar  
    18    8    9 ar  
    19    8   22 1   
    20    9   10 ar  
    21    9   23 1   
    22   10   11 ar  
    23   10   24 1   
    24   11   12 1   
    25   12   13 1   
    26   12   25 1   
    27   12   26 1   
    28   13   27 1   
@<TRIPOS>SUBSTRUCTURE
     1 0LV         1 TEMP              0 ****  ****    0 ROOT
