@<TRIPOS>MOLECULE
0LV
   27    28     1     0     0
SMALL
bcc


@<TRIPOS>ATOM
      1 CAH         0.0050   -0.3590   -0.1000 c3        1 0LV     -0.044100
      2 CAM         1.5450   -0.1670   -0.0490 c3        1 0LV      0.145800
      3 CAA         1.9500    1.2640   -0.3450 c3        1 0LV     -0.100100
      4 CAB         2.2710   -1.1490   -0.9480 c3        1 0LV     -0.100100
      5 OAI         1.9720   -0.4550    1.3330 os        1 0LV     -0.326900
      6 CAL         0.8450   -0.7900    2.0630 ca        1 0LV      0.118100
      7 CAK        -0.3440   -0.7570    1.2930 ca        1 0LV     -0.160300
      8 CAF        -1.5550   -1.0710    1.8820 ca        1 0LV     -0.080000
      9 CAD        -1.5670   -1.4170    3.2400 ca        1 0LV     -0.170000
     10 CAE        -0.3930   -1.4460    3.9890 ca        1 0LV     -0.073000
     11 CAJ         0.8480   -1.1300    3.4140 ca        1 0LV     -0.110300
     12 CAG         2.1230   -1.1380    4.1820 c3        1 0LV      0.187700
     13 OAC         1.9050   -1.7400    5.4510 oh        1 0LV     -0.602800
     14 H1         -0.5050    0.5900   -0.3970 hc        1 0LV      0.063700
     15 H2         -0.2730   -1.1540   -0.8360 hc        1 0LV      0.063700
     16 H3          1.6790    1.5190   -1.3970 hc        1 0LV      0.048367
     17 H4          3.0510    1.3850   -0.2110 hc        1 0LV      0.048367
     18 H5          1.4300    1.9660    0.3490 hc        1 0LV      0.048367
     19 H6          1.9840   -2.1960   -0.6890 hc        1 0LV      0.048367
     20 H7          2.0070   -0.9480   -2.0130 hc        1 0LV      0.048367
     21 H8          3.3750   -1.0420   -0.8170 hc        1 0LV      0.048367
     22 H9         -2.4890   -1.0520    1.3030 ha        1 0LV      0.134000
     23 H10        -2.5230   -1.6710    3.7220 ha        1 0LV      0.133000
     24 H11        -0.4210   -1.7260    5.0550 ha        1 0LV      0.154000
     25 H12         2.4850   -0.0810    4.3240 h1        1 0LV      0.037700
     26 H13         2.9060   -1.7130    3.6130 h1        1 0LV      0.037700
     27 H14         2.7640   -1.7580    5.8890 ho        1 0LV      0.403000
@<TRIPOS>BOND
     1    1    2 1   
     2    1    7 1   
     3    1   14 1   
     4    1   15 1   
     5    2    3 1   
     6    2    4 1   
     7    2    5 1   
     8    3   16 1   
     9    3   17 1   
    10    3   18 1   
    11    4   19 1   
    12    4   20 1   
    13    4   21 1   
    14    5    6 1   
    15    6    7 ar  
    16    6   11 ar  
    17    7    8 ar  
    18    8    9 ar  
    19    8   22 1   
    20    9   10 ar  
    21    9   23 1   
    22   10   11 ar  
    23   10   24 1   
    24   11   12 1   
    25   12   13 1   
    26   12   25 1   
    27   12   26 1   
    28   13   27 1   
@<TRIPOS>SUBSTRUCTURE
     1 0LV         1 TEMP              0 ****  ****    0 ROOT
