@<TRIPOS>MOLECULE
0LW
   46    49     1     0     0
SMALL
bcc


@<TRIPOS>ATOM
      1 C1         -1.5810   -0.4950   -0.7270 ca        1 0LW     -0.068800
      2 C2         -0.7140    0.7230   -0.6550 c3        1 0LW      0.020900
      3 C3         -2.6800   -0.6760    0.1210 ca        1 0LW     -0.022600
      4 C4         -1.2610   -1.4950   -1.6570 ca        1 0LW     -0.116500
      5 C5         -1.4460    1.9620   -0.2380 ca        1 0LW     -0.068800
      6 C6          0.4640    0.4960    0.3000 c3        1 0LW     -0.105400
      7 S7         -3.2110    0.4870    1.2340 ss        1 0LW     -0.074800
      8 C8         -3.4180   -1.8670    0.0630 ca        1 0LW     -0.112000
      9 C9         -2.0000   -2.6730   -1.7120 ca        1 0LW     -0.129000
     10 C10        -2.5390    1.9220    0.6370 ca        1 0LW     -0.022600
     11 C11        -0.9910    3.2020   -0.7090 ca        1 0LW     -0.116500
     12 C12         1.5320   -0.4080   -0.3090 c3        1 0LW      0.129100
     13 C13        -3.0740   -2.8650   -0.8410 ca        1 0LW     -0.120500
     14 C14        -3.1400    3.1180    1.0570 ca        1 0LW     -0.112000
     15 C15        -1.5930    4.3840   -0.2920 ca        1 0LW     -0.129000
     16 C16         2.6940   -0.5660    0.6940 c3        1 0LW      0.141800
     17 O17         1.9980    0.1040   -1.5480 oh        1 0LW     -0.602800
     18 C18        -2.6650    4.3420    0.6030 ca        1 0LW     -0.120500
     19 N19         3.4180   -1.8170    0.5570 n3        1 0LW     -0.718600
     20 C20         4.4070   -2.0260    1.6190 c3        1 0LW      0.152800
     21 C21         4.0920   -2.0050   -0.7300 c3        1 0LW      0.152800
     22 C22         5.8040   -2.1990    1.0010 c3        1 0LW     -0.097400
     23 C23         5.6060   -2.1520   -0.5070 c3        1 0LW     -0.097400
     24 H1         -0.2810    0.9020   -1.6870 hc        1 0LW      0.080700
     25 H2         -0.4100   -1.3430   -2.3410 ha        1 0LW      0.139000
     26 H3          0.9220    1.4890    0.5480 hc        1 0LW      0.057700
     27 H4          0.0930    0.0380    1.2520 hc        1 0LW      0.057700
     28 H5         -4.2790   -2.0030    0.7360 ha        1 0LW      0.140500
     29 H6         -1.7360   -3.4540   -2.4410 ha        1 0LW      0.134000
     30 H7         -0.1450    3.2350   -1.4130 ha        1 0LW      0.139000
     31 H8          1.0860   -1.4080   -0.5820 h1        1 0LW      0.101700
     32 H9         -3.6530   -3.7990   -0.8760 ha        1 0LW      0.134500
     33 H10        -3.9990    3.0780    1.7450 ha        1 0LW      0.140500
     34 H11        -1.2260    5.3510   -0.6660 ha        1 0LW      0.134000
     35 H12         3.3640    0.3380    0.5920 h1        1 0LW      0.033200
     36 H13         2.2610   -0.5540    1.7350 h1        1 0LW      0.033200
     37 H14         2.3590    0.9830   -1.3810 ho        1 0LW      0.394000
     38 H15        -3.1380    5.2760    0.9410 ha        1 0LW      0.134500
     39 H17         4.4150   -1.1860    2.3670 h1        1 0LW      0.050200
     40 H18         4.1050   -2.9630    2.1610 h1        1 0LW      0.050200
     41 H19         3.6760   -2.9510   -1.1740 h1        1 0LW      0.050200
     42 H20         3.8740   -1.1670   -1.4460 h1        1 0LW      0.050200
     43 H21         6.4880   -1.3830    1.3420 hc        1 0LW      0.045700
     44 H22         6.2510   -3.1720    1.3190 hc        1 0LW      0.045700
     45 H23         5.9820   -3.0840   -0.9940 hc        1 0LW      0.045700
     46 H24         6.1540   -1.2880   -0.9570 hc        1 0LW      0.045700
@<TRIPOS>BOND
     1    1    2 1   
     2    1    3 ar  
     3    1    4 ar  
     4    2    5 1   
     5    2    6 1   
     6    2   24 1   
     7    3    7 1   
     8    3    8 ar  
     9    4    9 ar  
    10    4   25 1   
    11    5   10 ar  
    12    5   11 ar  
    13    6   12 1   
    14    6   26 1   
    15    6   27 1   
    16    7   10 1   
    17    8   13 ar  
    18    8   28 1   
    19    9   13 ar  
    20    9   29 1   
    21   10   14 ar  
    22   11   15 ar  
    23   11   30 1   
    24   12   16 1   
    25   12   17 1   
    26   12   31 1   
    27   13   32 1   
    28   14   18 ar  
    29   14   33 1   
    30   15   18 ar  
    31   15   34 1   
    32   16   19 1   
    33   16   35 1   
    34   16   36 1   
    35   17   37 1   
    36   18   38 1   
    37   19   20 1   
    38   19   21 1   
    39   20   22 1   
    40   20   39 1   
    41   20   40 1   
    42   21   23 1   
    43   21   41 1   
    44   21   42 1   
    45   22   23 1   
    46   22   43 1   
    47   22   44 1   
    48   23   45 1   
    49   23   46 1   
@<TRIPOS>SUBSTRUCTURE
     1 0LW         1 TEMP              0 ****  ****    0 ROOT
