@<TRIPOS>MOLECULE
0LW
   46    49     1     0     0
SMALL
bcc


@<TRIPOS>ATOM
      1 C1          0.9850    0.0800    0.1680 ca        1 0LW     -0.068800
      2 C2          2.2010   -0.0920    1.0250 c3        1 0LW      0.020900
      3 C3         -0.2790   -0.3650    0.5740 ca        1 0LW     -0.022600
      4 C4          1.1280    0.6850   -1.0890 ca        1 0LW     -0.116500
      5 C5          1.9160   -0.0450    2.4960 ca        1 0LW     -0.068800
      6 C6          2.9120   -1.4110    0.6980 c3        1 0LW     -0.105400
      7 S7         -0.5940   -1.0430    2.0950 ss        1 0LW     -0.074800
      8 C8         -1.3730   -0.2440   -0.2940 ca        1 0LW     -0.112000
      9 C9          0.0380    0.8060   -1.9450 ca        1 0LW     -0.129000
     10 C10         0.7040   -0.4970    3.0340 ca        1 0LW     -0.022600
     11 C11         2.9150    0.4280    3.3580 ca        1 0LW     -0.116500
     12 C12         3.6720   -1.3420   -0.6240 c3        1 0LW      0.129100
     13 C13        -1.2140    0.3280   -1.5510 ca        1 0LW     -0.120500
     14 C14         0.5190   -0.5020    4.4240 ca        1 0LW     -0.112000
     15 C15         2.7240    0.4230    4.7360 ca        1 0LW     -0.129000
     16 C16         4.3830   -2.6890   -0.8690 c3        1 0LW      0.141800
     17 O17         4.6010   -0.2700   -0.6300 oh        1 0LW     -0.602800
     18 C18         1.5250   -0.0540    5.2710 ca        1 0LW     -0.120500
     19 N19         4.5830   -2.9970   -2.2740 n3        1 0LW     -0.718600
     20 C20         5.1070   -4.3490   -2.4950 c3        1 0LW      0.152800
     21 C21         5.4400   -2.0560   -2.9980 c3        1 0LW      0.152800
     22 C22         6.4390   -4.2710   -3.2580 c3        1 0LW     -0.097400
     23 C23         6.6700   -2.7950   -3.5520 c3        1 0LW     -0.097400
     24 H1          2.9200    0.7480    0.7800 hc        1 0LW      0.080700
     25 H2          2.1180    1.0570   -1.3990 ha        1 0LW      0.139000
     26 H3          2.1620   -2.2410    0.6490 hc        1 0LW      0.057700
     27 H4          3.6340   -1.6450    1.5250 hc        1 0LW      0.057700
     28 H5         -2.3630   -0.6000    0.0300 ha        1 0LW      0.140500
     29 H6          0.1630    1.2750   -2.9320 ha        1 0LW      0.134000
     30 H7          3.8600    0.8030    2.9360 ha        1 0LW      0.139000
     31 H8          2.9650   -1.0920   -1.4660 h1        1 0LW      0.101700
     32 H9         -2.0760    0.4130   -2.2290 ha        1 0LW      0.134500
     33 H10        -0.4360   -0.8590    4.8400 ha        1 0LW      0.140500
     34 H11         3.5160    0.7940    5.4030 ha        1 0LW      0.134000
     35 H12         3.7350   -3.5090   -0.4460 h1        1 0LW      0.033200
     36 H13         5.3500   -2.6820   -0.2840 h1        1 0LW      0.033200
     37 H14         5.2140   -0.4120    0.1010 ho        1 0LW      0.394000
     38 H15         1.3740   -0.0660    6.3600 ha        1 0LW      0.134500
     39 H17         4.3400   -4.8940   -3.1110 h1        1 0LW      0.050200
     40 H18         5.2420   -4.9170   -1.5350 h1        1 0LW      0.050200
     41 H19         4.8240   -1.6490   -3.8470 h1        1 0LW      0.050200
     42 H20         5.7530   -1.1890   -2.3550 h1        1 0LW      0.050200
     43 H21         6.3810   -4.8650   -4.2020 hc        1 0LW      0.045700
     44 H22         7.2700   -4.6920   -2.6420 hc        1 0LW      0.045700
     45 H23         6.7720   -2.6110   -4.6490 hc        1 0LW      0.045700
     46 H24         7.6020   -2.4290   -3.0580 hc        1 0LW      0.045700
@<TRIPOS>BOND
     1    1    2 1   
     2    1    3 ar  
     3    1    4 ar  
     4    2    5 1   
     5    2    6 1   
     6    2   24 1   
     7    3    7 1   
     8    3    8 ar  
     9    4    9 ar  
    10    4   25 1   
    11    5   10 ar  
    12    5   11 ar  
    13    6   12 1   
    14    6   26 1   
    15    6   27 1   
    16    7   10 1   
    17    8   13 ar  
    18    8   28 1   
    19    9   13 ar  
    20    9   29 1   
    21   10   14 ar  
    22   11   15 ar  
    23   11   30 1   
    24   12   16 1   
    25   12   17 1   
    26   12   31 1   
    27   13   32 1   
    28   14   18 ar  
    29   14   33 1   
    30   15   18 ar  
    31   15   34 1   
    32   16   19 1   
    33   16   35 1   
    34   16   36 1   
    35   17   37 1   
    36   18   38 1   
    37   19   20 1   
    38   19   21 1   
    39   20   22 1   
    40   20   39 1   
    41   20   40 1   
    42   21   23 1   
    43   21   41 1   
    44   21   42 1   
    45   22   23 1   
    46   22   43 1   
    47   22   44 1   
    48   23   45 1   
    49   23   46 1   
@<TRIPOS>SUBSTRUCTURE
     1 0LW         1 TEMP              0 ****  ****    0 ROOT
