@<TRIPOS>MOLECULE
0LW
   46    45     1     0     0
SMALL
bcc


@<TRIPOS>ATOM
      1 C1         -1.5110    0.8430    1.1930 c1        1 0LW     -0.060000
      2 C2          0.0220    0.4270    1.5260 c3        1 0LW     -0.033000
      3 C3         -2.5440    0.5100    2.0960 c1        1 0LW     -0.251000
      4 C4         -1.8190    1.4930   -0.0160 c1        1 0LW     -0.117000
      5 C5          0.4390    0.0050    3.1180 c2        1 0LW     -0.060000
      6 C6          0.3700   -0.7090    0.6650 c3        1 0LW     -0.181000
      7 S7         -2.1570   -0.0740    3.6250 ss        1 0LW      0.375000
      8 C8         -3.8720    0.8270    1.7860 c1        1 0LW     -0.113000
      9 C9         -3.1510    1.8100   -0.3230 c1        1 0LW     -0.126500
     10 C10        -0.5520   -0.3060    4.0350 c2        1 0LW     -0.250000
     11 C11         1.7790    0.0990    3.5400 c2        1 0LW     -0.117000
     12 C12         1.3110   -0.2500   -0.4410 c3        1 0LW      0.025000
     13 C13        -4.1770    1.4780    0.5740 c1        1 0LW     -0.126500
     14 C14        -0.2130   -0.5280    5.3950 c2        1 0LW     -0.111000
     15 C15         2.1090   -0.1210    4.8820 c1        1 0LW     -0.129000
     16 C16         1.0480   -1.0890   -1.7320 c3        1 0LW     -0.100000
     17 O17         2.6110   -0.4270   -0.0390 oh        1 0LW     -0.322000
     18 C18         1.1130   -0.4340    5.8040 c1        1 0LW     -0.122000
     19 N19         1.2370   -0.2550   -2.8890 n3        1 0LW     -0.251000
     20 C20        -0.1810    0.0160   -3.5910 c3        1 0LW     -0.077000
     21 C21         1.9660   -0.8900   -3.7750 c3        1 0LW     -0.077000
     22 C22         0.0840    0.2950   -4.8780 c3        1 0LW     -0.170000
     23 C23         1.4000   -0.4320   -5.1810 c3        1 0LW     -0.170000
     24 H1          0.5950    1.1850    1.2640 hc        1 0LW      0.126000
     25 H2         -1.1120    1.7240   -0.6350 ha        1 0LW      0.146000
     26 H3         -0.4630   -1.0840    0.2570 hc        1 0LW      0.094500
     27 H4          0.8160   -1.4100    1.2080 hc        1 0LW      0.094500
     28 H5         -4.6030    0.5920    2.4250 ha        1 0LW      0.140000
     29 H6         -3.3710    2.2750   -1.1880 ha        1 0LW      0.134000
     30 H7          2.4950    0.3230    2.8820 ha        1 0LW      0.136000
     31 H8          1.1560    0.6830   -0.6280 h1        1 0LW      0.118000
     32 H9         -5.1010    1.7000    0.3590 ha        1 0LW      0.134000
     33 H10        -0.9200   -0.7510    6.0550 ha        1 0LW      0.140000
     34 H11         3.0380   -0.0560    5.1730 ha        1 0LW      0.133000
     35 H12         0.1550   -1.4190   -1.7210 h1        1 0LW      0.076500
     36 H13         1.6600   -1.8260   -1.7650 h1        1 0LW      0.076500
     37 H14         2.7840   -1.3040    0.0310 ho        1 0LW      0.205000
     38 H15         1.3520   -0.5890    6.7630 ha        1 0LW      0.134000
     39 H17        -0.7710   -0.8150   -3.5250 h1        1 0LW      0.082250
     40 H18        -0.6340    0.7980   -3.1570 h1        1 0LW      0.082250
     41 H19         2.9080   -0.6310   -3.6880 h1        1 0LW      0.082250
     42 H20         1.8670   -1.8720   -3.6670 h1        1 0LW      0.082250
     43 H21         0.1930    1.2570   -5.0010 hc        1 0LW      0.086750
     44 H22        -0.6280   -0.0420   -5.4520 hc        1 0LW      0.086750
     45 H23         1.2360   -1.2040   -5.7430 hc        1 0LW      0.086750
     46 H24         2.0330    0.1810   -5.6190 hc        1 0LW      0.086750
@<TRIPOS>BOND
     1    1    2 1   
     2    1    4 1   
     3    2    5 1   
     4    2    6 1   
     5    2   24 1   
     6    3    7 1   
     7    3    8 1   
     8    4   25 1   
     9    5   10 1   
    10    5   11 1   
    11    6   12 1   
    12    6   26 1   
    13    6   27 1   
    14    7   10 1   
    15    8   28 1   
    16    9   13 1   
    17    9   29 1   
    18   10   14 1   
    19   11   15 1   
    20   11   30 1   
    21   12   16 1   
    22   12   17 1   
    23   12   31 1   
    24   13   32 1   
    25   14   18 1   
    26   14   33 1   
    27   15   34 1   
    28   16   19 1   
    29   16   35 1   
    30   16   36 1   
    31   17   37 1   
    32   18   38 1   
    33   19   20 1   
    34   19   21 1   
    35   20   22 1   
    36   20   39 1   
    37   20   40 1   
    38   21   23 1   
    39   21   41 1   
    40   21   42 1   
    41   22   23 1   
    42   22   43 1   
    43   22   44 1   
    44   23   45 1   
    45   23   46 1   
@<TRIPOS>SUBSTRUCTURE
     1 0LW         1 TEMP              0 ****  ****    0 ROOT
