@<TRIPOS>MOLECULE
0LW
   46    49     1     0     0
SMALL
bcc


@<TRIPOS>ATOM
      1 C1          0.9910    0.0880    0.1750 ca        1 0LW     -0.068800
      2 C2          2.2040   -0.0990    1.0330 c3        1 0LW      0.020900
      3 C3         -0.2770   -0.3550    0.5740 ca        1 0LW     -0.022600
      4 C4          1.1390    0.7040   -1.0760 ca        1 0LW     -0.116500
      5 C5          1.9160   -0.0630    2.5030 ca        1 0LW     -0.068800
      6 C6          2.9080   -1.4180    0.6960 c3        1 0LW     -0.105400
      7 S7         -0.5980   -1.0460    2.0870 ss        1 0LW     -0.074800
      8 C8         -1.3680   -0.2210   -0.2950 ca        1 0LW     -0.112000
      9 C9          0.0510    0.8380   -1.9330 ca        1 0LW     -0.129000
     10 C10         0.7010   -0.5130    3.0340 ca        1 0LW     -0.022600
     11 C11         2.9150    0.3980    3.3720 ca        1 0LW     -0.116500
     12 C12         3.6730   -1.3410   -0.6230 c3        1 0LW      0.129100
     13 C13        -1.2040    0.3620   -1.5460 ca        1 0LW     -0.120500
     14 C14         0.5120   -0.5300    4.4240 ca        1 0LW     -0.112000
     15 C15         2.7210    0.3820    4.7490 ca        1 0LW     -0.129000
     16 C16         4.3750   -2.6910   -0.8800 c3        1 0LW      0.141800
     17 O17         4.6100   -0.2750   -0.6150 oh        1 0LW     -0.602800
     18 C18         1.5180   -0.0940    5.2770 ca        1 0LW     -0.120500
     19 N19         4.5800   -2.9840   -2.2870 n3        1 0LW     -0.718600
     20 C20         5.0930   -4.3370   -2.5220 c3        1 0LW      0.152800
     21 C21         5.4490   -2.0420   -2.9970 c3        1 0LW      0.152800
     22 C22         6.4310   -4.2620   -3.2760 c3        1 0LW     -0.097400
     23 C23         6.6760   -2.7850   -3.5520 c3        1 0LW     -0.097400
     24 H1          2.9270    0.7400    0.7970 hc        1 0LW      0.080700
     25 H2          2.1320    1.0740   -1.3810 ha        1 0LW      0.139000
     26 H3          3.6260   -1.6640    1.5220 hc        1 0LW      0.057700
     27 H4          2.1530   -2.2430    0.6350 hc        1 0LW      0.057700
     28 H5         -2.3610   -0.5750    0.0240 ha        1 0LW      0.140500
     29 H6          0.1800    1.3150   -2.9150 ha        1 0LW      0.134000
     30 H7          3.8630    0.7720    2.9550 ha        1 0LW      0.139000
     31 H8          2.9710   -1.0770   -1.4650 h1        1 0LW      0.101700
     32 H9         -2.0640    0.4580   -2.2260 ha        1 0LW      0.134500
     33 H10        -0.4460   -0.8860    4.8350 ha        1 0LW      0.140500
     34 H11         3.5120    0.7430    5.4210 ha        1 0LW      0.134000
     35 H12         5.3400   -2.6960   -0.2910 h1        1 0LW      0.033200
     36 H13         3.7200   -3.5100   -0.4690 h1        1 0LW      0.033200
     37 H14         5.2190   -0.4290    0.1170 ho        1 0LW      0.394000
     38 H15         1.3640   -0.1150    6.3660 ha        1 0LW      0.134500
     39 H17         4.3250   -4.8690   -3.1480 h1        1 0LW      0.050200
     40 H18         5.2180   -4.9180   -1.5680 h1        1 0LW      0.050200
     41 H19         5.7650   -1.1850   -2.3420 h1        1 0LW      0.050200
     42 H20         4.8410   -1.6200   -3.8440 h1        1 0LW      0.050200
     43 H21         7.2540   -4.6980   -2.6590 hc        1 0LW      0.045700
     44 H22         6.3730   -4.8450   -4.2270 hc        1 0LW      0.045700
     45 H23         6.7860   -2.5900   -4.6460 hc        1 0LW      0.045700
     46 H24         7.6080   -2.4320   -3.0470 hc        1 0LW      0.045700
@<TRIPOS>BOND
     1    1    2 1   
     2    1    3 ar  
     3    1    4 ar  
     4    2    5 1   
     5    2    6 1   
     6    2   24 1   
     7    3    7 1   
     8    3    8 ar  
     9    4    9 ar  
    10    4   25 1   
    11    5   10 ar  
    12    5   11 ar  
    13    6   12 1   
    14    6   26 1   
    15    6   27 1   
    16    7   10 1   
    17    8   13 ar  
    18    8   28 1   
    19    9   13 ar  
    20    9   29 1   
    21   10   14 ar  
    22   11   15 ar  
    23   11   30 1   
    24   12   16 1   
    25   12   17 1   
    26   12   31 1   
    27   13   32 1   
    28   14   18 ar  
    29   14   33 1   
    30   15   18 ar  
    31   15   34 1   
    32   16   19 1   
    33   16   35 1   
    34   16   36 1   
    35   17   37 1   
    36   18   38 1   
    37   19   20 1   
    38   19   21 1   
    39   20   22 1   
    40   20   39 1   
    41   20   40 1   
    42   21   23 1   
    43   21   41 1   
    44   21   42 1   
    45   22   23 1   
    46   22   43 1   
    47   22   44 1   
    48   23   45 1   
    49   23   46 1   
@<TRIPOS>SUBSTRUCTURE
     1 0LW         1 TEMP              0 ****  ****    0 ROOT
