@<TRIPOS>MOLECULE
0LW
   46    49     1     0     0
SMALL
bcc


@<TRIPOS>ATOM
      1 C1          0.9860    0.0860    0.1410 ca        1 0LW     -0.068800
      2 C2          2.1900   -0.0880    1.0130 c3        1 0LW      0.020900
      3 C3         -0.2850   -0.3540    0.5330 ca        1 0LW     -0.022600
      4 C4          1.1450    0.6880   -1.1160 ca        1 0LW     -0.116500
      5 C5          1.8890   -0.0360    2.4800 ca        1 0LW     -0.068800
      6 C6          2.9020   -1.4090    0.6980 c3        1 0LW     -0.105400
      7 S7         -0.6200   -1.0280    2.0510 ss        1 0LW     -0.074800
      8 C8         -1.3680   -0.2330   -0.3490 ca        1 0LW     -0.112000
      9 C9          0.0660    0.8090   -1.9850 ca        1 0LW     -0.129000
     10 C10         0.6690   -0.4820    3.0050 ca        1 0LW     -0.022600
     11 C11         2.8780    0.4370    3.3530 ca        1 0LW     -0.116500
     12 C12         3.6780   -1.3460   -0.6150 c3        1 0LW      0.129100
     13 C13        -1.1930    0.3360   -1.6050 ca        1 0LW     -0.120500
     14 C14         0.4670   -0.4830    4.3920 ca        1 0LW     -0.112000
     15 C15         2.6710    0.4360    4.7280 ca        1 0LW     -0.129000
     16 C16         4.3880   -2.6960   -0.8490 c3        1 0LW      0.141800
     17 O17         4.6100   -0.2760   -0.6130 oh        1 0LW     -0.602800
     18 C18         1.4640   -0.0360    5.2500 ca        1 0LW     -0.120500
     19 N19         4.6040   -3.0070   -2.2490 n3        1 0LW     -0.718600
     20 C20         5.1260   -4.3610   -2.4620 c3        1 0LW      0.152800
     21 C21         5.4740   -2.0710   -2.9660 c3        1 0LW      0.152800
     22 C22         6.4690   -4.2890   -3.2080 c3        1 0LW     -0.097400
     23 C23         6.7080   -2.8140   -3.5020 c3        1 0LW     -0.097400
     24 H1          2.9150    0.7500    0.7740 hc        1 0LW      0.080700
     25 H2          2.1400    1.0560   -1.4150 ha        1 0LW      0.139000
     26 H3          2.1500   -2.2370    0.6410 hc        1 0LW      0.057700
     27 H4          3.6120   -1.6430    1.5340 hc        1 0LW      0.057700
     28 H5         -2.3630   -0.5850   -0.0350 ha        1 0LW      0.140500
     29 H6          0.2030    1.2750   -2.9710 ha        1 0LW      0.134000
     30 H7          3.8290    0.8080    2.9410 ha        1 0LW      0.139000
     31 H8          2.9820   -1.0950   -1.4660 h1        1 0LW      0.101700
     32 H9         -2.0460    0.4220   -2.2930 ha        1 0LW      0.134500
     33 H10        -0.4940   -0.8370    4.7980 ha        1 0LW      0.140500
     34 H11         3.4550    0.8070    5.4040 ha        1 0LW      0.134000
     35 H12         3.7320   -3.5130   -0.4320 h1        1 0LW      0.033200
     36 H13         5.3470   -2.6890   -0.2520 h1        1 0LW      0.033200
     37 H14         5.2140   -0.4180    0.1260 ho        1 0LW      0.394000
     38 H15         1.3000   -0.0450    6.3380 ha        1 0LW      0.134500
     39 H17         4.3650   -4.9050   -3.0860 h1        1 0LW      0.050200
     40 H18         5.2470   -4.9280   -1.4990 h1        1 0LW      0.050200
     41 H19         4.8700   -1.6630   -3.8220 h1        1 0LW      0.050200
     42 H20         5.7810   -1.2030   -2.3200 h1        1 0LW      0.050200
     43 H21         6.4200   -4.8850   -4.1510 hc        1 0LW      0.045700
     44 H22         7.2900   -4.7120   -2.5800 hc        1 0LW      0.045700
     45 H23         7.6350   -2.4500   -2.9960 hc        1 0LW      0.045700
     46 H24         6.8250   -2.6340   -4.5980 hc        1 0LW      0.045700
@<TRIPOS>BOND
     1    1    2 1   
     2    1    3 ar  
     3    1    4 ar  
     4    2    5 1   
     5    2    6 1   
     6    2   24 1   
     7    3    7 1   
     8    3    8 ar  
     9    4    9 ar  
    10    4   25 1   
    11    5   10 ar  
    12    5   11 ar  
    13    6   12 1   
    14    6   26 1   
    15    6   27 1   
    16    7   10 1   
    17    8   13 ar  
    18    8   28 1   
    19    9   13 ar  
    20    9   29 1   
    21   10   14 ar  
    22   11   15 ar  
    23   11   30 1   
    24   12   16 1   
    25   12   17 1   
    26   12   31 1   
    27   13   32 1   
    28   14   18 ar  
    29   14   33 1   
    30   15   18 ar  
    31   15   34 1   
    32   16   19 1   
    33   16   35 1   
    34   16   36 1   
    35   17   37 1   
    36   18   38 1   
    37   19   20 1   
    38   19   21 1   
    39   20   22 1   
    40   20   39 1   
    41   20   40 1   
    42   21   23 1   
    43   21   41 1   
    44   21   42 1   
    45   22   23 1   
    46   22   43 1   
    47   22   44 1   
    48   23   45 1   
    49   23   46 1   
@<TRIPOS>SUBSTRUCTURE
     1 0LW         1 TEMP              0 ****  ****    0 ROOT
