@<TRIPOS>MOLECULE
0LX
   57    58     1     0     0
SMALL
bcc


@<TRIPOS>ATOM
      1 O01         2.3450   -1.6980    1.9020 o         1 0LX     -0.567100
      2 C02         1.8430   -1.8410    0.7750 c         1 0LX      0.591100
      3 N03         1.4720   -3.1490    0.3250 n         1 0LX     -0.354400
      4 O04         1.1990   -4.0200    1.3000 oh        1 0LX     -0.439100
      5 C05         1.7190   -0.7060   -0.2310 c3        1 0LX     -0.135700
      6 C06         0.4400    0.0740    0.0440 c3        1 0LX     -0.079400
      7 C07        -0.8050   -0.7550   -0.1850 c3        1 0LX     -0.087400
      8 C08        -2.0470    0.1080   -0.1120 c3        1 0LX     -0.082400
      9 C09        -3.2950   -0.7540   -0.2950 c3        1 0LX      0.163800
     10 N10        -4.5200    0.0210   -0.3060 n3        1 0LX     -0.825200
     11 C11        -5.7110   -0.8090   -0.3090 c3        1 0LX      0.211100
     12 C12        -6.9750   -0.0360   -0.0780 ca        1 0LX     -0.110300
     13 C13        -7.2630    1.0970   -0.8470 ca        1 0LX     -0.093000
     14 C14        -8.4490    1.7990   -0.6580 ca        1 0LX     -0.168500
     15 C15        -9.3660    1.3590    0.3150 ca        1 0LX      0.126900
     16 C16        -9.0830    0.2190    1.0910 ca        1 0LX     -0.168500
     17 C17        -7.8890   -0.4660    0.8890 ca        1 0LX     -0.093000
     18 F18       -10.5250    2.0340    0.5060 f         1 0LX     -0.140900
     19 C19         2.9250    0.2160   -0.1330 c3        1 0LX     -0.068400
     20 C20         4.1970   -0.4580   -0.6520 c3        1 0LX      0.184400
     21 O21         4.0280   -0.5910   -2.0680 os        1 0LX     -0.425600
     22 C22         4.9420   -1.4990   -2.6600 c3        1 0LX      0.111700
     23 C23         5.4040    0.3620   -0.3000 ca        1 0LX     -0.134300
     24 C24         5.9640    0.2350    0.9770 ca        1 0LX     -0.092500
     25 C25         7.0730    0.9900    1.3420 ca        1 0LX     -0.168000
     26 C26         7.6350    1.8880    0.4140 ca        1 0LX      0.127900
     27 C27         7.0760    2.0220   -0.8700 ca        1 0LX     -0.168000
     28 C28         5.9650    1.2590   -1.2140 ca        1 0LX     -0.092500
     29 F29         8.7160    2.6270    0.7600 f         1 0LX     -0.140900
     30 H1          0.6730   -3.1290   -0.3000 hn        1 0LX      0.297500
     31 H2          2.0580   -4.2360    1.7140 ho        1 0LX      0.435000
     32 H3          1.6830   -1.1190   -1.2800 hc        1 0LX      0.086700
     33 H4          0.4560    0.4520    1.1010 hc        1 0LX      0.059700
     34 H5          0.4200    0.9690   -0.6330 hc        1 0LX      0.059700
     35 H6         -0.7530   -1.2530   -1.1900 hc        1 0LX      0.041700
     36 H7         -0.8710   -1.5660    0.5890 hc        1 0LX      0.041700
     37 H8         -2.0830    0.6320    0.8790 hc        1 0LX      0.051700
     38 H9         -2.0060    0.8980   -0.9080 hc        1 0LX      0.051700
     39 H10        -3.2300   -1.2890   -1.2860 h1        1 0LX      0.029700
     40 H11        -3.3000   -1.5480    0.5100 h1        1 0LX      0.029700
     41 H12        -4.5390    0.6690    0.4590 hn        1 0LX      0.362800
     42 H14        -5.7720   -1.2980   -1.3250 h1        1 0LX      0.039200
     43 H15        -5.6470   -1.6440    0.4540 h1        1 0LX      0.039200
     44 H16        -6.5440    1.4370   -1.6090 ha        1 0LX      0.145000
     45 H17        -8.6790    2.6900   -1.2580 ha        1 0LX      0.149000
     46 H18        -9.8060   -0.1180    1.8480 ha        1 0LX      0.149000
     47 H19        -7.6690   -1.3560    1.4980 ha        1 0LX      0.145000
     48 H20         2.7310    1.1410   -0.7360 hc        1 0LX      0.072700
     49 H21         3.0920    0.5100    0.9360 hc        1 0LX      0.072700
     50 H22         4.2960   -1.4840   -0.1920 h1        1 0LX      0.053700
     51 H23         4.8020   -2.5270   -2.2430 h1        1 0LX      0.037700
     52 H24         4.6860   -1.4780   -3.7490 h1        1 0LX      0.037700
     53 H25         5.9950   -1.1600   -2.4960 h1        1 0LX      0.037700
     54 H26         5.5190   -0.4650    1.7020 ha        1 0LX      0.149000
     55 H27         7.5150    0.8940    2.3440 ha        1 0LX      0.149500
     56 H28         7.5190    2.7280   -1.5870 ha        1 0LX      0.149500
     57 H29         5.5170    1.3570   -2.2170 ha        1 0LX      0.149000
@<TRIPOS>BOND
     1    1    2 2   
     2    2    3 1   
     3    2    5 1   
     4    3    4 1   
     5    3   30 1   
     6    4   31 1   
     7    5    6 1   
     8    5   19 1   
     9    5   32 1   
    10    6    7 1   
    11    6   33 1   
    12    6   34 1   
    13    7    8 1   
    14    7   35 1   
    15    7   36 1   
    16    8    9 1   
    17    8   37 1   
    18    8   38 1   
    19    9   10 1   
    20    9   39 1   
    21    9   40 1   
    22   10   11 1   
    23   10   41 1   
    24   11   12 1   
    25   11   42 1   
    26   11   43 1   
    27   12   13 ar  
    28   12   17 ar  
    29   13   14 ar  
    30   13   44 1   
    31   14   15 ar  
    32   14   45 1   
    33   15   16 ar  
    34   15   18 1   
    35   16   17 ar  
    36   16   46 1   
    37   17   47 1   
    38   19   20 1   
    39   19   48 1   
    40   19   49 1   
    41   20   21 1   
    42   20   23 1   
    43   20   50 1   
    44   21   22 1   
    45   22   51 1   
    46   22   52 1   
    47   22   53 1   
    48   23   24 ar  
    49   23   28 ar  
    50   24   25 ar  
    51   24   54 1   
    52   25   26 ar  
    53   25   55 1   
    54   26   27 ar  
    55   26   29 1   
    56   27   28 ar  
    57   27   56 1   
    58   28   57 1   
@<TRIPOS>SUBSTRUCTURE
     1 0LX         1 TEMP              0 ****  ****    0 ROOT
