@<TRIPOS>MOLECULE
0LX
   59    60     1     0     0
SMALL
bcc


@<TRIPOS>ATOM
      1 O01         0.4810   -0.7460    1.1650 o         1 0LX     -0.407100
      2 C02         1.3290   -0.0700    0.6100 c         1 0LX      0.544100
      3 N03         1.9150    1.0520    1.4780 n4        1 0LX     -0.466300
      4 O04         1.6330    0.9470    2.7940 oh        1 0LX     -0.355300
      5 C05         1.8700   -0.1490   -0.7970 c3        1 0LX     -0.108700
      6 C06         1.8780   -1.6070   -1.2540 c3        1 0LX     -0.093400
      7 C07         3.0040   -2.4210   -0.6480 c3        1 0LX     -0.083400
      8 C08         2.9810   -3.8320   -1.2090 c3        1 0LX     -0.108400
      9 C09         4.1280   -4.6470   -0.6200 c3        1 0LX      0.100800
     10 N10         4.1750   -6.0420   -1.1410 n4        1 0LX     -0.771000
     11 C11         5.3150   -6.8340   -0.5470 c3        1 0LX      0.188100
     12 C12         5.3300   -8.2140   -1.0930 ca        1 0LX     -0.233300
     13 C13         6.0880   -8.5080   -2.2360 ca        1 0LX     -0.067000
     14 C14         6.1480   -9.8060   -2.7250 ca        1 0LX     -0.162000
     15 C15         5.4430  -10.8330   -2.0610 ca        1 0LX      0.205900
     16 C16         4.6840  -10.5410   -0.9070 ca        1 0LX     -0.162000
     17 C17         4.6360   -9.2380   -0.4330 ca        1 0LX     -0.067000
     18 F18         5.4960  -12.0940   -2.5280 f         1 0LX     -0.092900
     19 C19         0.9960    0.6690   -1.7440 c3        1 0LX     -0.096400
     20 C20         0.8450    2.1560   -1.4020 c3        1 0LX      0.198400
     21 O21         2.0780    2.5800   -0.8040 os        1 0LX     -0.510600
     22 C22         2.2660    3.9930   -0.7510 c3        1 0LX      0.109700
     23 C23         0.4590    2.9210   -2.6280 ca        1 0LX     -0.187300
     24 C24        -0.8240    3.4740   -2.7240 ca        1 0LX     -0.084000
     25 C25        -1.2130    4.1630   -3.8670 ca        1 0LX     -0.160500
     26 C26        -0.3040    4.3070   -4.9350 ca        1 0LX      0.175900
     27 C27         0.9900    3.7560   -4.8410 ca        1 0LX     -0.160500
     28 C28         1.3580    3.0680   -3.6920 ca        1 0LX     -0.084000
     29 F29        -0.6720    4.9730   -6.0480 f         1 0LX     -0.106900
     30 H1          1.5930    1.9780    1.1080 hn        1 0LX      0.495300
     31 H2          0.7030    0.6260    2.9020 ho        1 0LX      0.484000
     32 H3          2.9190    0.2670   -0.8330 hc        1 0LX      0.109700
     33 H4          1.9840   -1.6110   -2.3740 hc        1 0LX      0.088200
     34 H5          0.8890   -2.0810   -1.0110 hc        1 0LX      0.088200
     35 H6          2.8930   -2.4570    0.4680 hc        1 0LX      0.056200
     36 H7          3.9920   -1.9400   -0.8780 hc        1 0LX      0.056200
     37 H8          3.0710   -3.7880   -2.3280 hc        1 0LX      0.075700
     38 H9          1.9950   -4.3130   -0.9650 hc        1 0LX      0.075700
     39 H10         4.0240   -4.7020    0.5030 hx        1 0LX      0.106200
     40 H11         5.1140   -4.1550   -0.8620 hx        1 0LX      0.106200
     41 H12         3.2920   -6.5230   -0.9280 hn        1 0LX      0.451800
     42 H14         6.2700   -6.2870   -0.7950 hx        1 0LX      0.107700
     43 H15         5.1750   -6.8400    0.5720 hx        1 0LX      0.107700
     44 H16         6.6580   -7.7150   -2.7450 ha        1 0LX      0.143000
     45 H17         6.7480  -10.0480   -3.6180 ha        1 0LX      0.183000
     46 H18         4.1480  -11.3530   -0.3890 ha        1 0LX      0.183000
     47 H19         4.0600   -9.0190    0.4810 ha        1 0LX      0.143000
     48 H20         1.4610    0.5870   -2.7660 hc        1 0LX      0.096700
     49 H21        -0.0320    0.2210   -1.8020 hc        1 0LX      0.096700
     50 H22         0.0430    2.2840   -0.6130 h1        1 0LX      0.031700
     51 H23         1.4290    4.4720   -0.1880 h1        1 0LX      0.062033
     52 H24         3.2400    4.1160   -0.2130 h1        1 0LX      0.062033
     53 H25         2.3340    4.4180   -1.7820 h1        1 0LX      0.062033
     54 H26        -1.5390    3.3690   -1.8940 ha        1 0LX      0.139000
     55 H27        -2.2210    4.6000   -3.9470 ha        1 0LX      0.172000
     56 H28         1.6950    3.8800   -5.6780 ha        1 0LX      0.172000
     57 H29         2.3720    2.6450   -3.6130 ha        1 0LX      0.139000
     58 H032        2.9530    1.0390    1.4110 hn        1 0LX      0.495300
     59 H102        4.2780   -6.0280   -2.1630 hn        1 0LX      0.451800
@<TRIPOS>BOND
     1    1    2 2   
     2    2    3 1   
     3    2    5 1   
     4    3    4 1   
     5    3   30 1   
     6    3   58 1   
     7    4   31 1   
     8    5    6 1   
     9    5   19 1   
    10    5   32 1   
    11    6    7 1   
    12    6   33 1   
    13    6   34 1   
    14    7    8 1   
    15    7   35 1   
    16    7   36 1   
    17    8    9 1   
    18    8   37 1   
    19    8   38 1   
    20    9   10 1   
    21    9   39 1   
    22    9   40 1   
    23   10   11 1   
    24   10   41 1   
    25   10   59 1   
    26   11   12 1   
    27   11   42 1   
    28   11   43 1   
    29   12   13 ar  
    30   12   17 ar  
    31   13   14 ar  
    32   13   44 1   
    33   14   15 ar  
    34   14   45 1   
    35   15   16 ar  
    36   15   18 1   
    37   16   17 ar  
    38   16   46 1   
    39   17   47 1   
    40   19   20 1   
    41   19   48 1   
    42   19   49 1   
    43   20   21 1   
    44   20   23 1   
    45   20   50 1   
    46   21   22 1   
    47   22   51 1   
    48   22   52 1   
    49   22   53 1   
    50   23   24 ar  
    51   23   28 ar  
    52   24   25 ar  
    53   24   54 1   
    54   25   26 ar  
    55   25   55 1   
    56   26   27 ar  
    57   26   29 1   
    58   27   28 ar  
    59   27   56 1   
    60   28   57 1   
@<TRIPOS>SUBSTRUCTURE
     1 0LX         1 TEMP              0 ****  ****    0 ROOT
