@<TRIPOS>MOLECULE
0LX
   59    60     1     0     0
SMALL
bcc


@<TRIPOS>ATOM
      1 O01         0.4660   -0.7510    1.1530 o         1 0LX     -0.407100
      2 C02         1.3160   -0.0730    0.6040 c         1 0LX      0.544100
      3 N03         1.8970    1.0490    1.4770 ny        1 0LX     -0.466300
      4 O04         1.6070    0.9410    2.7900 oh        1 0LX     -0.355300
      5 C05         1.8660   -0.1500   -0.8000 c3        1 0LX     -0.108700
      6 C06         1.8790   -1.6070   -1.2600 c3        1 0LX     -0.093400
      7 C07         3.0010   -2.4210   -0.6470 c3        1 0LX     -0.083400
      8 C08         2.9830   -3.8310   -1.2100 c3        1 0LX     -0.108400
      9 C09         4.1270   -4.6460   -0.6140 c3        1 0LX      0.100800
     10 N10         4.1780   -6.0410   -1.1360 ny        1 0LX     -0.771000
     11 C11         5.3150   -6.8320   -0.5360 c3        1 0LX      0.188100
     12 C12         5.3340   -8.2130   -1.0830 ca        1 0LX     -0.233300
     13 C13         6.0990   -8.5070   -2.2200 ca        1 0LX     -0.067000
     14 C14         6.1630   -9.8040   -2.7090 ca        1 0LX     -0.162000
     15 C15         5.4530  -10.8310   -2.0510 ca        1 0LX      0.205900
     16 C16         4.6860  -10.5390   -0.9020 ca        1 0LX     -0.162000
     17 C17         4.6340   -9.2360   -0.4270 ca        1 0LX     -0.067000
     18 F18         5.5080  -12.0920   -2.5180 f         1 0LX     -0.092900
     19 C19         0.9960    0.6690   -1.7520 c3        1 0LX     -0.096400
     20 C20         0.8410    2.1540   -1.4090 c3        1 0LX      0.198400
     21 O21         2.0710    2.5790   -0.8030 os        1 0LX     -0.510600
     22 C22         2.2570    3.9920   -0.7480 c3        1 0LX      0.109700
     23 C23         0.4620    2.9200   -2.6360 ca        1 0LX     -0.187300
     24 C24        -0.8210    3.4720   -2.7390 ca        1 0LX     -0.084000
     25 C25        -1.2050    4.1620   -3.8830 ca        1 0LX     -0.160500
     26 C26        -0.2910    4.3090   -4.9450 ca        1 0LX      0.175900
     27 C27         1.0040    3.7590   -4.8450 ca        1 0LX     -0.160500
     28 C28         1.3660    3.0700   -3.6950 ca        1 0LX     -0.084000
     29 F29        -0.6530    4.9760   -6.0600 f         1 0LX     -0.106900
     30 H1          2.9340    1.0370    1.4150 hn        1 0LX      0.495300
     31 H2          0.6770    0.6200    2.8930 ho        1 0LX      0.484000
     32 H3          2.9140    0.2680   -0.8310 hc        1 0LX      0.109700
     33 H4          0.8880   -2.0830   -1.0230 hc        1 0LX      0.088200
     34 H5          1.9910   -1.6100   -2.3790 hc        1 0LX      0.088200
     35 H6          3.9900   -1.9380   -0.8710 hc        1 0LX      0.056200
     36 H7          2.8830   -2.4580    0.4680 hc        1 0LX      0.056200
     37 H8          1.9960   -4.3130   -0.9730 hc        1 0LX      0.075700
     38 H9          3.0790   -3.7860   -2.3280 hc        1 0LX      0.075700
     39 H10         4.0170   -4.7020    0.5070 hx        1 0LX      0.106200
     40 H11         5.1140   -4.1540   -0.8500 hx        1 0LX      0.106200
     41 H12         3.2950   -6.5220   -0.9300 hn        1 0LX      0.451800
     42 H14         5.1690   -6.8380    0.5820 hx        1 0LX      0.107700
     43 H15         6.2720   -6.2850   -0.7790 hx        1 0LX      0.107700
     44 H16         6.6730   -7.7130   -2.7250 ha        1 0LX      0.143000
     45 H17         6.7690  -10.0460   -3.5980 ha        1 0LX      0.183000
     46 H18         4.1450  -11.3510   -0.3880 ha        1 0LX      0.183000
     47 H19         4.0520   -9.0170    0.4820 ha        1 0LX      0.143000
     48 H20         1.4680    0.5880   -2.7710 hc        1 0LX      0.096700
     49 H21        -0.0300    0.2190   -1.8170 hc        1 0LX      0.096700
     50 H22         0.0350    2.2810   -0.6240 h1        1 0LX      0.031700
     51 H23         2.3300    4.4190   -1.7780 h1        1 0LX      0.062033
     52 H24         3.2280    4.1160   -0.2040 h1        1 0LX      0.062033
     53 H25         1.4160    4.4700   -0.1890 h1        1 0LX      0.062033
     54 H26        -1.5410    3.3650   -1.9120 ha        1 0LX      0.139000
     55 H27        -2.2130    4.5980   -3.9680 ha        1 0LX      0.172000
     56 H28         1.7140    3.8850   -5.6780 ha        1 0LX      0.172000
     57 H29         2.3800    2.6480   -3.6110 ha        1 0LX      0.139000
     58 H032        1.5760    1.9750    1.1050 hn        1 0LX      0.495300
     59 H102        4.2870   -6.0260   -2.1580 hn        1 0LX      0.451800
@<TRIPOS>BOND
     1    1    2 2   
     2    2    3 1   
     3    2    5 1   
     4    3    4 1   
     5    3   30 1   
     6    3   58 1   
     7    4   31 1   
     8    5    6 1   
     9    5   19 1   
    10    5   32 1   
    11    6    7 1   
    12    6   33 1   
    13    6   34 1   
    14    7    8 1   
    15    7   35 1   
    16    7   36 1   
    17    8    9 1   
    18    8   37 1   
    19    8   38 1   
    20    9   10 1   
    21    9   39 1   
    22    9   40 1   
    23   10   11 1   
    24   10   41 1   
    25   10   59 1   
    26   11   12 1   
    27   11   42 1   
    28   11   43 1   
    29   12   13 ar  
    30   12   17 ar  
    31   13   14 ar  
    32   13   44 1   
    33   14   15 ar  
    34   14   45 1   
    35   15   16 ar  
    36   15   18 1   
    37   16   17 ar  
    38   16   46 1   
    39   17   47 1   
    40   19   20 1   
    41   19   48 1   
    42   19   49 1   
    43   20   21 1   
    44   20   23 1   
    45   20   50 1   
    46   21   22 1   
    47   22   51 1   
    48   22   52 1   
    49   22   53 1   
    50   23   24 ar  
    51   23   28 ar  
    52   24   25 ar  
    53   24   54 1   
    54   25   26 ar  
    55   25   55 1   
    56   26   27 ar  
    57   26   29 1   
    58   27   28 ar  
    59   27   56 1   
    60   28   57 1   
@<TRIPOS>SUBSTRUCTURE
     1 0LX         1 TEMP              0 ****  ****    0 ROOT
