@<TRIPOS>MOLECULE
0LX
   59    60     1     0     0
SMALL
bcc


@<TRIPOS>ATOM
      1 O01         0.4530   -0.7550    1.1430 o         1 0LX     -0.407100
      2 C02         1.3070   -0.0760    0.6010 c         1 0LX      0.544100
      3 N03         1.8830    1.0430    1.4790 n4        1 0LX     -0.466300
      4 O04         1.5850    0.9330    2.7910 oh        1 0LX     -0.355300
      5 C05         1.8640   -0.1510   -0.8000 c3        1 0LX     -0.108700
      6 C06         1.8780   -1.6070   -1.2630 c3        1 0LX     -0.093400
      7 C07         2.9960   -2.4230   -0.6450 c3        1 0LX     -0.083400
      8 C08         2.9810   -3.8320   -1.2120 c3        1 0LX     -0.108400
      9 C09         4.1180   -4.6500   -0.6090 c3        1 0LX      0.100800
     10 N10         4.1730   -6.0430   -1.1360 n4        1 0LX     -0.771000
     11 C11         5.3040   -6.8380   -0.5270 c3        1 0LX      0.188100
     12 C12         5.3280   -8.2160   -1.0800 ca        1 0LX     -0.233300
     13 C13         6.1060   -8.5040   -2.2110 ca        1 0LX     -0.067000
     14 C14         6.1750   -9.7990   -2.7060 ca        1 0LX     -0.162000
     15 C15         5.4570  -10.8290   -2.0610 ca        1 0LX      0.205900
     16 C16         4.6770  -10.5430   -0.9190 ca        1 0LX     -0.162000
     17 C17         4.6200   -9.2420   -0.4380 ca        1 0LX     -0.067000
     18 F18         5.5180  -12.0870   -2.5330 f         1 0LX     -0.092900
     19 C19         1.0000    0.6700   -1.7550 c3        1 0LX     -0.096400
     20 C20         0.8440    2.1550   -1.4090 c3        1 0LX      0.198400
     21 O21         2.0710    2.5780   -0.7960 os        1 0LX     -0.511600
     22 C22         2.2590    3.9910   -0.7390 c3        1 0LX      0.109700
     23 C23         0.4710    2.9250   -2.6370 ca        1 0LX     -0.187300
     24 C24        -0.8100    3.4780   -2.7440 ca        1 0LX     -0.084000
     25 C25        -1.1880    4.1710   -3.8890 ca        1 0LX     -0.160500
     26 C26        -0.2690    4.3190   -4.9470 ca        1 0LX      0.175900
     27 C27         1.0250    3.7670   -4.8420 ca        1 0LX     -0.160500
     28 C28         1.3810    3.0750   -3.6920 ca        1 0LX     -0.084000
     29 F29        -0.6250    4.9880   -6.0620 f         1 0LX     -0.106900
     30 H1          1.5650    1.9700    1.1080 hn        1 0LX      0.495300
     31 H2          0.6550    0.6130    2.8870 ho        1 0LX      0.484000
     32 H3          2.9130    0.2660   -0.8240 hc        1 0LX      0.109700
     33 H4          0.8860   -2.0820   -1.0340 hc        1 0LX      0.088200
     34 H5          1.9980   -1.6070   -2.3820 hc        1 0LX      0.088200
     35 H6          3.9870   -1.9410   -0.8590 hc        1 0LX      0.056200
     36 H7          2.8700   -2.4640    0.4690 hc        1 0LX      0.056200
     37 H8          3.0870   -3.7830   -2.3290 hc        1 0LX      0.075700
     38 H9          1.9920   -4.3140   -0.9850 hc        1 0LX      0.075700
     39 H10         5.1080   -4.1580   -0.8340 hx        1 0LX      0.106200
     40 H11         3.9980   -4.7100    0.5110 hx        1 0LX      0.106200
     41 H12         3.2870   -6.5240   -0.9400 hn        1 0LX      0.451800
     42 H14         5.1440   -6.8500    0.5890 hx        1 0LX      0.107700
     43 H15         6.2630   -6.2900   -0.7560 hx        1 0LX      0.107700
     44 H16         6.6860   -7.7080   -2.7050 ha        1 0LX      0.143000
     45 H17         6.7910  -10.0360   -3.5890 ha        1 0LX      0.183000
     46 H18         4.1310  -11.3580   -0.4150 ha        1 0LX      0.183000
     47 H19         4.0280   -9.0280    0.4660 ha        1 0LX      0.143000
     48 H20        -0.0260    0.2220   -1.8260 hc        1 0LX      0.096700
     49 H21         1.4770    0.5920   -2.7720 hc        1 0LX      0.096700
     50 H22         0.0350    2.2810   -0.6290 h1        1 0LX      0.031700
     51 H23         3.2260    4.1130   -0.1880 h1        1 0LX      0.062367
     52 H24         2.3390    4.4180   -1.7680 h1        1 0LX      0.062367
     53 H25         1.4140    4.4690   -0.1850 h1        1 0LX      0.062367
     54 H26        -1.5340    3.3700   -1.9210 ha        1 0LX      0.139000
     55 H27        -2.1950    4.6080   -3.9780 ha        1 0LX      0.172000
     56 H28         1.7380    3.8930   -5.6710 ha        1 0LX      0.172000
     57 H29         2.3940    2.6510   -3.6030 ha        1 0LX      0.139000
     58 H032        2.9210    1.0300    1.4230 hn        1 0LX      0.495300
     59 H102        4.2930   -6.0240   -2.1560 hn        1 0LX      0.451800
@<TRIPOS>BOND
     1    1    2 2   
     2    2    3 1   
     3    2    5 1   
     4    3    4 1   
     5    3   30 1   
     6    3   58 1   
     7    4   31 1   
     8    5    6 1   
     9    5   19 1   
    10    5   32 1   
    11    6    7 1   
    12    6   33 1   
    13    6   34 1   
    14    7    8 1   
    15    7   35 1   
    16    7   36 1   
    17    8    9 1   
    18    8   37 1   
    19    8   38 1   
    20    9   10 1   
    21    9   39 1   
    22    9   40 1   
    23   10   11 1   
    24   10   41 1   
    25   10   59 1   
    26   11   12 1   
    27   11   42 1   
    28   11   43 1   
    29   12   13 ar  
    30   12   17 ar  
    31   13   14 ar  
    32   13   44 1   
    33   14   15 ar  
    34   14   45 1   
    35   15   16 ar  
    36   15   18 1   
    37   16   17 ar  
    38   16   46 1   
    39   17   47 1   
    40   19   20 1   
    41   19   48 1   
    42   19   49 1   
    43   20   21 1   
    44   20   23 1   
    45   20   50 1   
    46   21   22 1   
    47   22   51 1   
    48   22   52 1   
    49   22   53 1   
    50   23   24 ar  
    51   23   28 ar  
    52   24   25 ar  
    53   24   54 1   
    54   25   26 ar  
    55   25   55 1   
    56   26   27 ar  
    57   26   29 1   
    58   27   28 ar  
    59   27   56 1   
    60   28   57 1   
@<TRIPOS>SUBSTRUCTURE
     1 0LX         1 TEMP              0 ****  ****    0 ROOT
