@<TRIPOS>MOLECULE
0LX
   57    51     1     0     0
SMALL
bcc


@<TRIPOS>ATOM
      1 O01        -2.9660    1.3380    2.5630 o         1 0LX     -0.327000
      2 C02        -1.7740    1.5390    2.5230 c1        1 0LX      0.237000
      3 N03        -1.0430    1.7490    3.7340 n3        1 0LX     -0.199000
      4 O04        -1.7240    2.0460    4.9210 oh        1 0LX     -0.250000
      5 C05        -1.0320    1.4720    1.1840 c2        1 0LX     -0.119000
      6 C06        -1.1840    0.0840    0.5930 c3        1 0LX     -0.154000
      7 C07         0.1820   -0.7130    0.7550 c3        1 0LX     -0.160000
      8 C08         0.1660   -1.9330   -0.1430 c3        1 0LX     -0.161000
      9 C09         1.4960   -2.6560   -0.0410 c3        1 0LX     -0.073000
     10 N10         1.4440   -3.8610   -0.8120 n3        1 0LX     -0.304000
     11 C11         2.6390   -4.6720   -0.5430 c3        1 0LX     -0.033000
     12 C12         2.4490   -6.0780   -1.1460 c2        1 0LX     -0.102000
     13 C13         1.6880   -7.0140   -0.4850 c2        1 0LX     -0.085000
     14 C14         1.5540   -8.2950   -1.0090 c1        1 0LX     -0.169000
     15 C15         2.1800   -8.6240   -2.1850 c1        1 0LX      0.094000
     16 C16         2.9410   -7.6860   -2.8450 c1        1 0LX     -0.168000
     17 C17         3.0750   -6.4090   -2.3230 c1        1 0LX     -0.102000
     18 F18         2.0760   -9.9140   -2.6890 f         1 0LX     -0.105500
     19 C19        -1.6110    2.4850    0.2450 c3        1 0LX     -0.148000
     20 C20        -0.8780    3.7930    0.4030 c3        1 0LX      0.059000
     21 O21         0.3610    3.7300   -0.2920 os        1 0LX     -0.292000
     22 C22         1.3370    4.6830    0.1650 c3        1 0LX     -0.086000
     23 C23        -1.7470    4.9540   -0.1770 c2        1 0LX     -0.132000
     24 C24        -1.8020    5.1600   -1.5580 c2        1 0LX     -0.087000
     25 C25        -2.4760    6.2520   -2.0680 c1        1 0LX     -0.169000
     26 C26        -3.0960    7.1430   -1.2140 c1        1 0LX      0.094000
     27 C27        -3.0420    6.9410    0.1470 c1        1 0LX     -0.168000
     28 C28        -2.3570    5.8300    0.6650 c1        1 0LX     -0.093000
     29 F29        -3.8610    8.1650   -1.7250 f         1 0LX     -0.105500
     30 H1         -0.1290    1.7160    3.7260 hn        1 0LX      0.224000
     31 H2         -1.1760    1.9590    5.6040 ho        1 0LX      0.233000
     32 H3         -0.1030    1.6600    1.3230 ha        1 0LX      0.123000
     33 H4         -1.4070    0.1560   -0.3450 hc        1 0LX      0.097000
     34 H5         -1.8940   -0.3910    1.0610 hc        1 0LX      0.097000
     35 H6          0.2810   -0.9880    1.6580 hc        1 0LX      0.084500
     36 H7          0.9410   -0.1260    0.5030 hc        1 0LX      0.084500
     37 H8         -0.5340   -2.5170    0.1280 hc        1 0LX      0.088500
     38 H9          0.0200   -1.6570   -1.0570 hc        1 0LX      0.088500
     39 H10         1.6740   -2.8720    0.8810 h1        1 0LX      0.069000
     40 H11         2.2210   -2.0670   -0.3910 h1        1 0LX      0.069000
     41 H12         1.4100   -3.6590   -1.6770 hn        1 0LX      0.156000
     42 H14         3.4280   -4.2440   -0.9540 h1        1 0LX      0.077500
     43 H15         2.7720   -4.7440    0.4110 h1        1 0LX      0.077500
     44 H16         1.2280   -6.7720    0.3770 ha        1 0LX      0.154000
     45 H17         1.0090   -8.9660   -0.5360 ha        1 0LX      0.149000
     46 H18         3.3850   -7.9200   -3.6790 ha        1 0LX      0.150000
     47 H19         3.6350   -5.7180   -2.8110 ha        1 0LX      0.136000
     48 H20        -1.5190    2.1740   -0.6580 hc        1 0LX      0.106500
     49 H21        -2.5450    2.6130    0.4480 hc        1 0LX      0.106500
     50 H22        -0.7070    3.9620    1.3710 h1        1 0LX      0.092000
     51 H23         1.6060    5.2670   -0.5920 h1        1 0LX      0.082333
     52 H24         0.9380    5.2490    0.9020 h1        1 0LX      0.082333
     53 H25         2.1540    4.1880    0.5220 h1        1 0LX      0.082333
     54 H26        -1.3640    4.5310   -2.1640 ha        1 0LX      0.150000
     55 H27        -2.5150    6.3970   -3.0550 ha        1 0LX      0.151000
     56 H28        -3.4830    7.5740    0.7550 ha        1 0LX      0.150000
     57 H29        -2.3190    5.6890    1.6090 ha        1 0LX      0.143000
@<TRIPOS>BOND
     1    1    2 1   
     2    2    3 1   
     3    3    4 1   
     4    3   30 1   
     5    4   31 1   
     6    5    6 1   
     7    5   19 1   
     8    5   32 1   
     9    6    7 1   
    10    6   33 1   
    11    6   34 1   
    12    7    8 1   
    13    7   35 1   
    14    7   36 1   
    15    8    9 1   
    16    8   37 1   
    17    8   38 1   
    18    9   10 1   
    19    9   39 1   
    20    9   40 1   
    21   10   11 1   
    22   10   41 1   
    23   11   12 1   
    24   11   42 1   
    25   11   43 1   
    26   12   13 1   
    27   12   17 1   
    28   13   14 1   
    29   13   44 1   
    30   14   45 1   
    31   15   16 1   
    32   16   46 1   
    33   17   47 1   
    34   19   20 1   
    35   19   48 1   
    36   19   49 1   
    37   20   21 1   
    38   20   23 1   
    39   20   50 1   
    40   21   22 1   
    41   22   51 1   
    42   22   52 1   
    43   22   53 1   
    44   23   24 1   
    45   23   28 1   
    46   24   25 1   
    47   24   54 1   
    48   25   55 1   
    49   26   27 1   
    50   27   56 1   
    51   28   57 1   
@<TRIPOS>SUBSTRUCTURE
     1 0LX         1 TEMP              0 ****  ****    0 ROOT
