@<TRIPOS>MOLECULE
0LY
   48    49     1     0     0
SMALL
bcc


@<TRIPOS>ATOM
      1 C2          0.5860    1.4890    0.8230 ca        1 0LY     -0.022900
      2 C7          1.7820    0.7820    0.6510 ca        1 0LY     -0.078000
      3 C6          2.2300   -0.0980    1.6280 ca        1 0LY     -0.139000
      4 C5          1.4760   -0.2850    2.8100 ca        1 0LY      0.017600
      5 N8          1.9860   -1.1900    3.7770 ns        1 0LY     -0.392100
      6 C9          1.3770   -1.5400    4.9390 c         1 0LY      0.614100
      7 O23         0.2940   -1.1410    5.4010 o         1 0LY     -0.561100
      8 C10         2.1630   -2.5760    5.7840 c         1 0LY      0.442100
      9 O22         3.1750   -3.1740    5.4540 o         1 0LY     -0.397100
     10 N11         1.5740   -2.8590    7.1280 ny        1 0LY     -0.670800
     11 C12         2.2060   -2.0030    8.2160 c3        1 0LY      0.139500
     12 C17         1.3120   -1.9870    9.4550 c3        1 0LY     -0.102400
     13 C16         1.9350   -1.1040   10.5640 c3        1 0LY      0.210200
     14 C21         1.1180   -1.3860   11.8460 c3        1 0LY     -0.114600
     15 C20         1.6920    0.3740   10.2140 c3        1 0LY     -0.114600
     16 N15         3.3290   -1.4670   10.8100 n7        1 0LY     -0.832200
     17 C14         4.2360   -1.6290    9.6750 c3        1 0LY      0.210200
     18 C19         4.7310   -0.3200    9.0370 c3        1 0LY     -0.114600
     19 C18         5.4980   -2.3820   10.1550 c3        1 0LY     -0.114600
     20 C13         3.6000   -2.5110    8.5750 c3        1 0LY     -0.102400
     21 C4          0.2750    0.4260    2.9810 ca        1 0LY     -0.139000
     22 C3         -0.1590    1.3040    1.9890 ca        1 0LY     -0.078000
     23 Br         -0.0050    2.6680   -0.4980 br        1 0LY     -0.034100
     24 H1          2.3820    0.9160   -0.2660 ha        1 0LY      0.167500
     25 H2          3.1750   -0.6410    1.4620 ha        1 0LY      0.158500
     26 H3          2.8550   -1.6310    3.5420 hn        1 0LY      0.353500
     27 H4          1.7070   -3.8490    7.3670 hn        1 0LY      0.472800
     28 H5          2.2690   -0.9580    7.7840 hx        1 0LY      0.109700
     29 H6          0.3000   -1.5720    9.2090 hc        1 0LY      0.073450
     30 H7          1.1860   -3.0290    9.8540 hc        1 0LY      0.073450
     31 H8          1.2600   -2.4380   12.1900 hc        1 0LY      0.051700
     32 H9          0.0350   -1.2150   11.6370 hc        1 0LY      0.051700
     33 H10         1.4370   -0.6970   12.6640 hc        1 0LY      0.051700
     34 H11         2.1760    1.0360   10.9720 hc        1 0LY      0.051700
     35 H12         2.0940    0.6360    9.2080 hc        1 0LY      0.051700
     36 H13         0.5950    0.5860   10.2180 hc        1 0LY      0.051700
     37 H14         3.7320   -0.8530   11.4920 hn        1 0LY      0.396800
     38 H16         5.5380   -0.5440    8.2990 hc        1 0LY      0.051700
     39 H17         3.9130    0.2220    8.5080 hc        1 0LY      0.051700
     40 H18         5.1540    0.3560    9.8190 hc        1 0LY      0.051700
     41 H19         6.1470   -2.6070    9.2760 hc        1 0LY      0.051700
     42 H20         6.0730   -1.7490   10.8720 hc        1 0LY      0.051700
     43 H21         5.2270   -3.3390   10.6600 hc        1 0LY      0.051700
     44 H22         4.2700   -2.4960    7.6760 hc        1 0LY      0.073450
     45 H23         3.5400   -3.5670    8.9530 hc        1 0LY      0.073450
     46 H24        -0.3420    0.3050    3.8870 ha        1 0LY      0.158500
     47 H25        -1.1050    1.8510    2.1410 ha        1 0LY      0.167500
     48 H112        0.5650   -2.6450    7.0940 hn        1 0LY      0.472800
@<TRIPOS>BOND
     1    1    2 ar  
     2    1   22 ar  
     3    1   23 1   
     4    2    3 ar  
     5    2   24 1   
     6    3    4 ar  
     7    3   25 1   
     8    4    5 1   
     9    4   21 ar  
    10    5    6 1   
    11    5   26 1   
    12    6    7 2   
    13    6    8 1   
    14    8    9 2   
    15    8   10 1   
    16   10   11 1   
    17   10   27 1   
    18   10   48 1   
    19   11   12 1   
    20   11   20 1   
    21   11   28 1   
    22   12   13 1   
    23   12   29 1   
    24   12   30 1   
    25   13   14 1   
    26   13   15 1   
    27   13   16 1   
    28   14   31 1   
    29   14   32 1   
    30   14   33 1   
    31   15   34 1   
    32   15   35 1   
    33   15   36 1   
    34   16   17 1   
    35   16   37 1   
    36   17   18 1   
    37   17   19 1   
    38   17   20 1   
    39   18   38 1   
    40   18   39 1   
    41   18   40 1   
    42   19   41 1   
    43   19   42 1   
    44   19   43 1   
    45   20   44 1   
    46   20   45 1   
    47   21   22 ar  
    48   21   46 1   
    49   22   47 1   
@<TRIPOS>SUBSTRUCTURE
     1 0LY         1 TEMP              0 ****  ****    0 ROOT
