@<TRIPOS>MOLECULE
0LY
   49    50     1     0     0
SMALL
bcc


@<TRIPOS>ATOM
      1 C2         -0.3350    0.3590    0.8220 ca        1 0LY      0.035100
      2 C7          0.2780   -0.9020    0.7530 ca        1 0LY     -0.081000
      3 C6          1.3290   -1.2310    1.6030 ca        1 0LY     -0.091500
      4 C5          1.7720   -0.2790    2.5400 ca        1 0LY     -0.113400
      5 N8          2.9320   -0.5870    3.3920 n4        1 0LY     -0.500200
      6 C9          2.5390   -1.4050    4.5750 c         1 0LY      0.452100
      7 O23         2.6140   -2.6220    4.5370 o         1 0LY     -0.336100
      8 C10         2.0460   -0.6280    5.8010 c         1 0LY      0.470100
      9 O22         2.1290    0.5880    5.8860 o         1 0LY     -0.343100
     10 N11         1.4740   -1.4380    6.8950 n4        1 0LY     -0.669800
     11 C12         2.1640   -1.1780    8.2550 c3        1 0LY      0.151500
     12 C17         1.2780   -1.7320    9.3670 c3        1 0LY     -0.111900
     13 C16         1.9520   -1.5080   10.7510 c3        1 0LY      0.221200
     14 C21         1.1310   -2.3420   11.7620 c3        1 0LY     -0.119100
     15 C20         1.7730   -0.0360   11.1520 c3        1 0LY     -0.119100
     16 N15         3.3240   -2.0030   10.7350 n3        1 0LY     -0.843200
     17 C14         4.2210   -1.5850    9.6650 c3        1 0LY      0.221200
     18 C19         4.7250   -0.1350    9.7370 c3        1 0LY     -0.119100
     19 C18         5.4750   -2.4880    9.6820 c3        1 0LY     -0.119100
     20 C13         3.5480   -1.8090    8.2800 c3        1 0LY     -0.111900
     21 C4          1.1670    0.9900    2.6240 ca        1 0LY     -0.091500
     22 C3          0.1200    1.2970    1.7630 ca        1 0LY     -0.081000
     23 BR         -1.7310    0.7870   -0.3270 br        1 0LY      0.060900
     24 H1         -0.0640   -1.6490    0.0100 ha        1 0LY      0.200500
     25 H2          1.8000   -2.2260    1.5160 ha        1 0LY      0.169500
     26 H3          3.6180   -1.1230    2.8280 hn        1 0LY      0.497800
     27 H4          1.5480   -2.4440    6.6810 hn        1 0LY      0.487300
     28 H5          2.2360   -0.0500    8.3400 hx        1 0LY      0.124700
     29 H6          1.1150   -2.8340    9.2300 hc        1 0LY      0.072200
     30 H7          0.2830   -1.2160    9.3830 hc        1 0LY      0.072200
     31 H8          1.4830   -2.1320   12.8020 hc        1 0LY      0.058200
     32 H9          1.2360   -3.4350   11.5650 hc        1 0LY      0.058200
     33 H10         0.0550   -2.0580   11.6870 hc        1 0LY      0.058200
     34 H11         2.3350    0.1780   12.0950 hc        1 0LY      0.058200
     35 H12         0.6930    0.1760   11.3410 hc        1 0LY      0.058200
     36 H13         2.1340    0.6630   10.3630 hc        1 0LY      0.058200
     37 H14         3.7570   -1.8950   11.6320 hn        1 0LY      0.416800
     38 H16         5.1170    0.0850   10.7610 hc        1 0LY      0.058200
     39 H17         3.9230    0.6020    9.5040 hc        1 0LY      0.058200
     40 H18         5.5610    0.0110    9.0110 hc        1 0LY      0.058200
     41 H19         6.0760   -2.2860   10.6020 hc        1 0LY      0.058200
     42 H20         6.1050   -2.2620    8.7890 hc        1 0LY      0.058200
     43 H21         5.1970   -3.5680    9.6690 hc        1 0LY      0.058200
     44 H22         3.4830   -2.9160    8.1000 hc        1 0LY      0.072200
     45 H23         4.2070   -1.3510    7.4990 hc        1 0LY      0.072200
     46 H24         1.5150    1.7530    3.3430 ha        1 0LY      0.169500
     47 H25        -0.3460    2.3000    1.8210 ha        1 0LY      0.200500
     48 H82         3.3650    0.2990    3.7040 hn        1 0LY      0.497800
     49 H112        0.4750   -1.1940    7.0040 hn        1 0LY      0.487300
@<TRIPOS>BOND
     1    1    2 ar  
     2    1   22 ar  
     3    1   23 1   
     4    2    3 ar  
     5    2   24 1   
     6    3    4 ar  
     7    3   25 1   
     8    4    5 1   
     9    4   21 ar  
    10    5    6 1   
    11    5   26 1   
    12    5   48 1   
    13    6    7 2   
    14    6    8 1   
    15    8    9 2   
    16    8   10 1   
    17   10   11 1   
    18   10   27 1   
    19   10   49 1   
    20   11   12 1   
    21   11   20 1   
    22   11   28 1   
    23   12   13 1   
    24   12   29 1   
    25   12   30 1   
    26   13   14 1   
    27   13   15 1   
    28   13   16 1   
    29   14   31 1   
    30   14   32 1   
    31   14   33 1   
    32   15   34 1   
    33   15   35 1   
    34   15   36 1   
    35   16   17 1   
    36   16   37 1   
    37   17   18 1   
    38   17   19 1   
    39   17   20 1   
    40   18   38 1   
    41   18   39 1   
    42   18   40 1   
    43   19   41 1   
    44   19   42 1   
    45   19   43 1   
    46   20   44 1   
    47   20   45 1   
    48   21   22 ar  
    49   21   46 1   
    50   22   47 1   
@<TRIPOS>SUBSTRUCTURE
     1 0LY         1 TEMP              0 ****  ****    0 ROOT
