@<TRIPOS>MOLECULE
0LY
   48    49     1     0     0
SMALL
bcc


@<TRIPOS>ATOM
      1 C2          0.5760    1.5100    0.8330 ca        1 0LY     -0.022900
      2 C7          1.7890    0.8310    0.6660 ca        1 0LY     -0.078000
      3 C6          2.2460   -0.0490    1.6390 ca        1 0LY     -0.139000
      4 C5          1.4840   -0.2660    2.8110 ca        1 0LY      0.017600
      5 N8          2.0030   -1.1710    3.7730 n         1 0LY     -0.392100
      6 C9          1.3940   -1.5370    4.9300 c         1 0LY      0.614100
      7 O23         0.3030   -1.1590    5.3900 o         1 0LY     -0.561100
      8 C10         2.1930   -2.5660    5.7720 c         1 0LY      0.442100
      9 O22         3.2160   -3.1460    5.4420 o         1 0LY     -0.397100
     10 N11         1.6020   -2.8680    7.1110 n4        1 0LY     -0.670800
     11 C12         2.2170   -2.0110    8.2080 c3        1 0LY      0.139500
     12 C17         1.3180   -2.0190    9.4440 c3        1 0LY     -0.102400
     13 C16         1.9220   -1.1350   10.5620 c3        1 0LY      0.210200
     14 C21         1.1050   -1.4400   11.8390 c3        1 0LY     -0.114600
     15 C20         1.6570    0.3410   10.2230 c3        1 0LY     -0.114600
     16 N15         3.3210   -1.4780   10.8110 n3        1 0LY     -0.832200
     17 C14         4.2350   -1.6170    9.6790 c3        1 0LY      0.210200
     18 C19         4.7110   -0.2960    9.0530 c3        1 0LY     -0.114600
     19 C18         5.5070   -2.3540   10.1570 c3        1 0LY     -0.114600
     20 C13         3.6170   -2.5000    8.5690 c3        1 0LY     -0.102400
     21 C4          0.2650    0.4160    2.9770 ca        1 0LY     -0.139000
     22 C3         -0.1770    1.2950    1.9890 ca        1 0LY     -0.078000
     23 BR         -0.0270    2.6900   -0.4810 br        1 0LY     -0.034100
     24 H1          2.3960    0.9880   -0.2420 ha        1 0LY      0.167500
     25 H2          3.2040   -0.5690    1.4780 ha        1 0LY      0.158500
     26 H3          2.8800   -1.5950    3.5390 hn        1 0LY      0.353500
     27 H4          0.5900   -2.6690    7.0740 hn        1 0LY      0.472800
     28 H5          2.2650   -0.9620    7.7850 hx        1 0LY      0.109700
     29 H6          1.2060   -3.0660    9.8340 hc        1 0LY      0.073450
     30 H7          0.3000   -1.6180    9.1970 hc        1 0LY      0.073450
     31 H8          1.4100   -0.7530   12.6630 hc        1 0LY      0.051700
     32 H9          0.0200   -1.2850   11.6260 hc        1 0LY      0.051700
     33 H10         1.2620   -2.4930   12.1750 hc        1 0LY      0.051700
     34 H11         0.5580    0.5360   10.2250 hc        1 0LY      0.051700
     35 H12         2.0590    0.6180    9.2210 hc        1 0LY      0.051700
     36 H13         2.1290    1.0040   10.9880 hc        1 0LY      0.051700
     37 H14         3.7120   -0.8640   11.4990 hn        1 0LY      0.396800
     38 H16         3.8880    0.2380    8.5250 hc        1 0LY      0.051700
     39 H17         5.1210    0.3800    9.8420 hc        1 0LY      0.051700
     40 H18         5.5250   -0.5010    8.3160 hc        1 0LY      0.051700
     41 H19         6.1630   -2.5620    9.2790 hc        1 0LY      0.051700
     42 H20         6.0690   -1.7180   10.8820 hc        1 0LY      0.051700
     43 H21         5.2480   -3.3190   10.6540 hc        1 0LY      0.051700
     44 H22         3.5720   -3.5600    8.9380 hc        1 0LY      0.073450
     45 H23         4.2900   -2.4680    7.6730 hc        1 0LY      0.073450
     46 H24        -0.3590    0.2730    3.8740 ha        1 0LY      0.158500
     47 H25        -1.1370    1.8200    2.1370 ha        1 0LY      0.167500
     48 H112        1.7490   -3.8580    7.3440 hn        1 0LY      0.472800
@<TRIPOS>BOND
     1    1    2 ar  
     2    1   22 ar  
     3    1   23 1   
     4    2    3 ar  
     5    2   24 1   
     6    3    4 ar  
     7    3   25 1   
     8    4    5 1   
     9    4   21 ar  
    10    5    6 1   
    11    5   26 1   
    12    6    7 2   
    13    6    8 1   
    14    8    9 2   
    15    8   10 1   
    16   10   11 1   
    17   10   27 1   
    18   10   48 1   
    19   11   12 1   
    20   11   20 1   
    21   11   28 1   
    22   12   13 1   
    23   12   29 1   
    24   12   30 1   
    25   13   14 1   
    26   13   15 1   
    27   13   16 1   
    28   14   31 1   
    29   14   32 1   
    30   14   33 1   
    31   15   34 1   
    32   15   35 1   
    33   15   36 1   
    34   16   17 1   
    35   16   37 1   
    36   17   18 1   
    37   17   19 1   
    38   17   20 1   
    39   18   38 1   
    40   18   39 1   
    41   18   40 1   
    42   19   41 1   
    43   19   42 1   
    44   19   43 1   
    45   20   44 1   
    46   20   45 1   
    47   21   22 ar  
    48   21   46 1   
    49   22   47 1   
@<TRIPOS>SUBSTRUCTURE
     1 0LY         1 TEMP              0 ****  ****    0 ROOT
