@<TRIPOS>MOLECULE
0LY
   47    42     1     0     0
SMALL
bcc


@<TRIPOS>ATOM
      1 C2         -3.2980   -2.0520   -6.7460 c1        1 0LY     -0.193000
      2 C7         -3.4840   -2.9760   -5.7260 c1        1 0LY     -0.127000
      3 C6         -2.7600   -2.8730   -4.5660 c1        1 0LY     -0.127000
      4 C5         -1.8410   -1.8450   -4.4120 c1        1 0LY      0.085000
      5 N8         -1.0300   -1.7950   -3.2670 n2        1 0LY     -0.296000
      6 C9         -1.2530   -0.8230   -2.2940 c1        1 0LY      0.291000
      7 O23        -2.1360   -0.0310   -2.4310 o         1 0LY     -0.345000
      8 C10        -0.3720   -0.7770   -1.0500 c1        1 0LY      0.288000
      9 O22         0.2970   -1.7390   -0.7500 o         1 0LY     -0.370000
     10 N11        -0.3170    0.4300   -0.2370 n2        1 0LY     -0.343000
     11 C12         0.5590    0.4790    0.9590 c3        1 0LY      0.020000
     12 C17         1.1000    1.8440    1.0980 c3        1 0LY     -0.164000
     13 C16         1.8640    2.0390    2.4190 c3        1 0LY      0.041000
     14 C21         3.1220    1.2310    2.3670 c3        1 0LY     -0.225500
     15 C20         2.2320    3.5340    2.5740 c3        1 0LY     -0.225500
     16 N15         1.0750    1.6190    3.5920 n3        1 0LY     -0.298000
     17 C14         0.5340    0.2630    3.4600 c3        1 0LY      0.041000
     18 C19        -0.4270   -0.0090    4.6460 c3        1 0LY     -0.225500
     19 C18         1.6910   -0.7430    3.5190 c3        1 0LY     -0.225500
     20 C13        -0.2310    0.0630    2.1470 c3        1 0LY     -0.164000
     21 C4         -1.6580   -0.9320   -5.4200 c1        1 0LY     -0.157000
     22 C3         -2.3910   -1.0380   -6.5920 c1        1 0LY     -0.078000
     23 BR         -4.3210   -2.1960   -8.3780 br        1 0LY      0.054000
     24 H1         -4.1310   -3.6990   -5.8350 ha        1 0LY      0.144000
     25 H2         -2.8940   -3.5380   -3.8310 ha        1 0LY      0.144000
     26 H3         -0.4100   -2.4440   -3.1230 hn        1 0LY      0.261000
     27 H4         -0.7620    1.1640   -0.4950 hn        1 0LY      0.250000
     28 H5          1.3110   -0.1540    0.8350 h1        1 0LY      0.129000
     29 H6          1.7140    2.0200    0.3450 hc        1 0LY      0.094000
     30 H7          0.3440    2.4970    1.0590 hc        1 0LY      0.094000
     31 H8          2.9570    0.3910    1.8550 hc        1 0LY      0.079333
     32 H9          3.8200    1.7490    1.9270 hc        1 0LY      0.079333
     33 H10         3.4060    1.0090    3.2780 hc        1 0LY      0.079333
     34 H11         2.8660    3.6390    3.3200 hc        1 0LY      0.079333
     35 H12         2.6500    3.8610    1.7360 hc        1 0LY      0.079333
     36 H13         1.4160    4.0560    2.7610 hc        1 0LY      0.079333
     37 H14         1.6090    1.6720    4.3680 hn        1 0LY      0.162000
     38 H16        -1.1150    0.6870    4.6780 hc        1 0LY      0.079333
     39 H17        -0.8460   -0.8680    4.5280 hc        1 0LY      0.079333
     40 H18         0.0740   -0.0060    5.4740 hc        1 0LY      0.079333
     41 H19         2.4140   -0.3840    4.1040 hc        1 0LY      0.079333
     42 H20         1.3720   -1.5770    3.8780 hc        1 0LY      0.079333
     43 H21         2.0440   -0.8890    2.6160 hc        1 0LY      0.079333
     44 H22        -1.0820    0.6040    2.1780 hc        1 0LY      0.094000
     45 H23        -0.4660   -0.9000    2.0550 hc        1 0LY      0.094000
     46 H24        -0.9870   -0.1780   -5.3080 ha        1 0LY      0.176000
     47 H25        -2.2600   -0.3850   -7.3140 ha        1 0LY      0.150000
@<TRIPOS>BOND
     1    1   22 1   
     2    1   23 1   
     3    2    3 1   
     4    2   24 1   
     5    3   25 1   
     6    4   21 1   
     7    5    6 1   
     8    5   26 1   
     9    6    7 1   
    10    8    9 1   
    11   10   11 1   
    12   10   27 1   
    13   11   12 1   
    14   11   20 1   
    15   11   28 1   
    16   12   13 1   
    17   12   29 1   
    18   12   30 1   
    19   13   14 1   
    20   13   15 1   
    21   13   16 1   
    22   14   31 1   
    23   14   32 1   
    24   14   33 1   
    25   15   34 1   
    26   15   35 1   
    27   15   36 1   
    28   16   17 1   
    29   16   37 1   
    30   17   18 1   
    31   17   19 1   
    32   17   20 1   
    33   18   38 1   
    34   18   39 1   
    35   18   40 1   
    36   19   41 1   
    37   19   42 1   
    38   19   43 1   
    39   20   44 1   
    40   20   45 1   
    41   21   46 1   
    42   22   47 1   
@<TRIPOS>SUBSTRUCTURE
     1 0LY         1 TEMP              0 ****  ****    0 ROOT
