@<TRIPOS>MOLECULE
0LY
   47    48     1     0     0
SMALL
bcc


@<TRIPOS>ATOM
      1 C2          5.3020   -0.1560    0.1950 ca        1 0LY     -0.052900
      2 C7          4.7440   -0.8050    1.3000 ca        1 0LY     -0.077500
      3 C6          3.3660   -0.8810    1.4510 ca        1 0LY     -0.167000
      4 C5          2.5040   -0.3020    0.4870 ca        1 0LY      0.077600
      5 N8          1.1180   -0.4140    0.6850 n         1 0LY     -0.442100
      6 C9          0.1170    0.1180   -0.0960 c         1 0LY      0.596100
      7 O23         0.2970    0.7820   -1.1320 o         1 0LY     -0.585100
      8 C10        -1.3200   -0.1740    0.4090 c         1 0LY      0.594100
      9 O22        -1.5050   -0.7130    1.5200 o         1 0LY     -0.607100
     10 N11        -2.3280    0.1850   -0.4390 n         1 0LY     -0.535900
     11 C12        -3.7320    0.0190   -0.1110 c3        1 0LY      0.100700
     12 C17        -4.4530    1.3660    0.0200 c3        1 0LY     -0.119900
     13 C16        -5.9390    1.1790    0.4040 c3        1 0LY      0.195700
     14 C21        -6.6010    2.5660    0.2350 c3        1 0LY     -0.091600
     15 C20        -6.0240    0.8420    1.9020 c3        1 0LY     -0.091600
     16 N15        -6.6530    0.1910   -0.4110 n3        1 0LY     -0.806200
     17 C14        -5.9460   -1.0370   -0.7900 c3        1 0LY      0.195700
     18 C19        -6.0330   -2.1020    0.3170 c3        1 0LY     -0.091600
     19 C18        -6.6150   -1.6570   -2.0380 c3        1 0LY     -0.091600
     20 C13        -4.4610   -0.8280   -1.1620 c3        1 0LY     -0.119900
     21 C4          3.0780    0.3510   -0.6240 ca        1 0LY     -0.167000
     22 C3          4.4610    0.4180   -0.7600 ca        1 0LY     -0.077500
     23 BR          7.1600   -0.0590   -0.0000 br        1 0LY     -0.086100
     24 H1          5.3930   -1.2640    2.0640 ha        1 0LY      0.149500
     25 H2          2.9540   -1.3980    2.3320 ha        1 0LY      0.158000
     26 H3          0.8290   -0.9030    1.5100 hn        1 0LY      0.347500
     27 H4         -2.0990    0.6450   -1.2910 hn        1 0LY      0.334500
     28 H5         -3.7810   -0.5180    0.8860 h1        1 0LY      0.095700
     29 H6         -3.9590    1.9920    0.8070 hc        1 0LY      0.050700
     30 H7         -4.3910    1.9240   -0.9500 hc        1 0LY      0.050700
     31 H8         -6.0510    3.3120    0.8560 hc        1 0LY      0.041450
     32 H9         -6.5720    2.9000   -0.8290 hc        1 0LY      0.041450
     33 H10        -7.6640    2.5310    0.5740 hc        1 0LY      0.041450
     34 H11        -7.0840    0.6650    2.2010 hc        1 0LY      0.041450
     35 H12        -5.4260   -0.0650    2.1530 hc        1 0LY      0.041450
     36 H13        -5.6230    1.7010    2.4930 hc        1 0LY      0.041450
     37 H14        -6.9810    0.6420   -1.2470 hn        1 0LY      0.358800
     38 H16        -5.6350   -3.0690   -0.0750 hc        1 0LY      0.041450
     39 H17        -5.4340   -1.8130    1.2110 hc        1 0LY      0.041450
     40 H18        -7.0930   -2.2510    0.6300 hc        1 0LY      0.041450
     41 H19        -6.5840   -0.9530   -2.9040 hc        1 0LY      0.041450
     42 H20        -6.0710   -2.5890   -2.3200 hc        1 0LY      0.041450
     43 H21        -7.6790   -1.9150   -1.8190 hc        1 0LY      0.041450
     44 H22        -4.3990   -0.3240   -2.1620 hc        1 0LY      0.050700
     45 H23        -3.9720   -1.8310   -1.2540 hc        1 0LY      0.050700
     46 H24         2.4430    0.8160   -1.3970 ha        1 0LY      0.158000
     47 H25         4.8840    0.9340   -1.6370 ha        1 0LY      0.149500
@<TRIPOS>BOND
     1    1    2 ar  
     2    1   22 ar  
     3    1   23 1   
     4    2    3 ar  
     5    2   24 1   
     6    3    4 ar  
     7    3   25 1   
     8    4    5 1   
     9    4   21 ar  
    10    5    6 1   
    11    5   26 1   
    12    6    7 2   
    13    6    8 1   
    14    8    9 2   
    15    8   10 1   
    16   10   11 1   
    17   10   27 1   
    18   11   12 1   
    19   11   20 1   
    20   11   28 1   
    21   12   13 1   
    22   12   29 1   
    23   12   30 1   
    24   13   14 1   
    25   13   15 1   
    26   13   16 1   
    27   14   31 1   
    28   14   32 1   
    29   14   33 1   
    30   15   34 1   
    31   15   35 1   
    32   15   36 1   
    33   16   17 1   
    34   16   37 1   
    35   17   18 1   
    36   17   19 1   
    37   17   20 1   
    38   18   38 1   
    39   18   39 1   
    40   18   40 1   
    41   19   41 1   
    42   19   42 1   
    43   19   43 1   
    44   20   44 1   
    45   20   45 1   
    46   21   22 ar  
    47   21   46 1   
    48   22   47 1   
@<TRIPOS>SUBSTRUCTURE
     1 0LY         1 TEMP              0 ****  ****    0 ROOT
