@<TRIPOS>MOLECULE
0LZ
   43    45     1     0     0
SMALL
bcc


@<TRIPOS>ATOM
      1 N01        -0.6190   -1.2480    0.4630 n4        1 0LZ     -0.651800
      2 C02         0.8650   -1.4120    0.5510 c         1 0LZ      0.441100
      3 C03         1.5680   -0.4610    1.5540 c         1 0LZ      0.616100
      4 N04         2.9200   -0.5880    1.5900 n         1 0LZ     -0.396100
      5 C05         3.8020    0.1450    2.4260 ca        1 0LZ      0.038600
      6 O06         0.8430    0.3070    2.2080 o         1 0LZ     -0.552100
      7 O07         1.3970   -2.2610   -0.1470 o         1 0LZ     -0.399100
      8 C08         5.1770   -0.1830    2.3750 ca        1 0LZ     -0.155000
      9 C09         6.0840    0.5060    3.1670 ca        1 0LZ     -0.076000
     10 C10         5.6650    1.5300    4.0250 ca        1 0LZ     -0.018600
     11 C11         4.2940    1.8600    4.0780 ca        1 0LZ      0.163900
     12 C12         3.3630    1.1670    3.2790 ca        1 0LZ     -0.171000
     13 CL1         6.8090    2.3380    4.9680 cl        1 0LZ     -0.019400
     14 F14         3.8370    2.8390    4.8880 f         1 0LZ     -0.104900
     15 C15        -1.0380   -0.6640   -0.8490 c3        1 0LZ      0.107800
     16 C16        -2.5770   -0.7690   -1.0780 c3        1 0LZ      0.213800
     17 N17        -3.3060   -0.3680    0.1170 n3        1 0LZ     -0.843200
     18 C18        -3.4670    1.0690    0.2400 c3        1 0LZ      0.147800
     19 C19        -4.0830    1.7640   -0.9720 c3        1 0LZ     -0.078100
     20 C20        -3.5710    1.2300   -2.2620 ca        1 0LZ     -0.054300
     21 C21        -2.8680    0.0190   -2.3280 ca        1 0LZ     -0.156300
     22 C22        -3.8320    1.9340   -3.4460 ca        1 0LZ     -0.120000
     23 C23        -3.4040    1.4360   -4.6730 ca        1 0LZ     -0.094000
     24 C24        -2.7130    0.2240   -4.7350 ca        1 0LZ     -0.119000
     25 C25        -2.4480   -0.4830   -3.5650 ca        1 0LZ     -0.118000
     26 H1         -0.9380   -0.6230    1.2270 hn        1 0LZ      0.483300
     27 H2          3.3530   -1.2730    1.0000 hn        1 0LZ      0.355500
     28 H3          5.5480   -0.9830    1.7140 ha        1 0LZ      0.151000
     29 H4          7.1550    0.2410    3.1190 ha        1 0LZ      0.173000
     30 H5          2.3010    1.4580    3.3540 ha        1 0LZ      0.186000
     31 H7         -0.5150   -1.2260   -1.6740 hx        1 0LZ      0.112200
     32 H6         -0.7190    0.4160   -0.8640 hx        1 0LZ      0.112200
     33 H8         -2.8170   -1.8590   -1.2780 h1        1 0LZ      0.078700
     34 H9         -4.2040   -0.8200    0.1270 hn        1 0LZ      0.393800
     35 H11        -4.1070    1.2680    1.1460 h1        1 0LZ      0.062700
     36 H12        -2.4480    1.5080    0.4360 h1        1 0LZ      0.062700
     37 H13        -5.2010    1.6410   -0.9530 hc        1 0LZ      0.077700
     38 H14        -3.8720    2.8650   -0.9000 hc        1 0LZ      0.077700
     39 H15        -4.3850    2.8860   -3.3990 ha        1 0LZ      0.151000
     40 H16        -3.6150    1.9970   -5.5980 ha        1 0LZ      0.154000
     41 H17        -2.3850   -0.1750   -5.7070 ha        1 0LZ      0.152000
     42 H18        -1.9180   -1.4460   -3.6180 ha        1 0LZ      0.129000
     43 H012       -1.0760   -2.1610    0.5820 hn        1 0LZ      0.483300
@<TRIPOS>BOND
     1    1    2 1   
     2    1   15 1   
     3    1   26 1   
     4    1   43 1   
     5    2    3 1   
     6    2    7 2   
     7    3    4 1   
     8    3    6 2   
     9    4    5 1   
    10    4   27 1   
    11    5    8 ar  
    12    5   12 ar  
    13    8    9 ar  
    14    8   28 1   
    15    9   10 ar  
    16    9   29 1   
    17   10   11 ar  
    18   10   13 1   
    19   11   12 ar  
    20   11   14 1   
    21   12   30 1   
    22   15   16 1   
    23   15   31 1   
    24   15   32 1   
    25   16   17 1   
    26   16   21 1   
    27   16   33 1   
    28   17   18 1   
    29   17   34 1   
    30   18   19 1   
    31   18   35 1   
    32   18   36 1   
    33   19   20 1   
    34   19   37 1   
    35   19   38 1   
    36   20   21 ar  
    37   20   22 ar  
    38   21   25 ar  
    39   22   23 ar  
    40   22   39 1   
    41   23   24 ar  
    42   23   40 1   
    43   24   25 ar  
    44   24   41 1   
    45   25   42 1   
@<TRIPOS>SUBSTRUCTURE
     1 0LZ         1 TEMP              0 ****  ****    0 ROOT
