@<TRIPOS>MOLECULE
0LZ
   42    44     1     0     0
SMALL
bcc


@<TRIPOS>ATOM
      1 N01         1.3260    0.0290    0.9320 n         1 0LZ     -0.519900
      2 C02         0.3650   -0.7610    0.3540 c         1 0LZ      0.587100
      3 C03        -1.0610   -0.1590    0.3090 c         1 0LZ      0.598100
      4 N04        -2.0600   -1.0710    0.0430 n         1 0LZ     -0.444100
      5 C05        -3.4350   -0.8150   -0.0830 ca        1 0LZ      0.094600
      6 O06        -1.2400    1.0550    0.5060 o         1 0LZ     -0.573100
      7 O07         0.5800   -1.9170   -0.0630 o         1 0LZ     -0.604100
      8 C08        -4.2850   -1.8920   -0.4430 ca        1 0LZ     -0.184000
      9 C09        -5.6510   -1.6970   -0.5700 ca        1 0LZ     -0.077000
     10 C10        -6.2240   -0.4410   -0.3480 ca        1 0LZ     -0.050600
     11 C11        -5.3900    0.6380    0.0100 ca        1 0LZ      0.162900
     12 C12        -4.0010    0.4520    0.1420 ca        1 0LZ     -0.192000
     13 CL1        -7.9010   -0.2540   -0.5150 cl        1 0LZ     -0.066400
     14 F14        -5.8970    1.8720    0.2350 f         1 0LZ     -0.121900
     15 C15         2.7150   -0.3410    0.9240 c3        1 0LZ      0.082000
     16 C16         3.5830    0.4340   -0.1110 c3        1 0LZ      0.182800
     17 N17         3.4800    1.8760    0.1030 n3        1 0LZ     -0.798200
     18 C18         4.5560    2.6180   -0.5190 c3        1 0LZ      0.153800
     19 C19         5.9540    2.1990   -0.0620 c3        1 0LZ     -0.076100
     20 C20         6.1060    0.7190   -0.0830 ca        1 0LZ     -0.071300
     21 C21         4.9860   -0.1290   -0.1140 ca        1 0LZ     -0.109300
     22 C22         7.3940    0.1710   -0.0930 ca        1 0LZ     -0.128000
     23 C23         7.5770   -1.2070   -0.1570 ca        1 0LZ     -0.123000
     24 C24         6.4680   -2.0490   -0.2320 ca        1 0LZ     -0.129000
     25 C25         5.1830   -1.5120   -0.2180 ca        1 0LZ     -0.123000
     26 H1          1.1030    0.9910    1.0850 hn        1 0LZ      0.341500
     27 H2         -1.7700   -2.0120   -0.1400 hn        1 0LZ      0.347500
     28 H3         -3.8700   -2.8950   -0.6270 ha        1 0LZ      0.144000
     29 H4         -6.2950   -2.5460   -0.8510 ha        1 0LZ      0.154000
     30 H5         -3.3820    1.3220    0.4220 ha        1 0LZ      0.191000
     31 H7          3.1230   -0.1540    1.9590 h1        1 0LZ      0.073700
     32 H6          2.7910   -1.4430    0.7050 h1        1 0LZ      0.073700
     33 H8          3.1570    0.2460   -1.1450 h1        1 0LZ      0.081700
     34 H9          3.4720    2.0710    1.0910 hn        1 0LZ      0.348800
     35 H11         4.4740    2.4770   -1.6330 h1        1 0LZ      0.060200
     36 H12         4.4010    3.7100   -0.2940 h1        1 0LZ      0.060200
     37 H13         6.7160    2.6740   -0.7350 hc        1 0LZ      0.057200
     38 H14         6.1480    2.5760    0.9780 hc        1 0LZ      0.057200
     39 H15         8.2660    0.8410   -0.0570 ha        1 0LZ      0.133000
     40 H16         8.5930   -1.6290   -0.1600 ha        1 0LZ      0.134000
     41 H17         6.6050   -3.1380   -0.3050 ha        1 0LZ      0.135000
     42 H18         4.3210   -2.1910   -0.3080 ha        1 0LZ      0.138000
@<TRIPOS>BOND
     1    1    2 1   
     2    1   15 1   
     3    1   26 1   
     4    2    3 1   
     5    2    7 2   
     6    3    4 1   
     7    3    6 2   
     8    4    5 1   
     9    4   27 1   
    10    5    8 ar  
    11    5   12 ar  
    12    8    9 ar  
    13    8   28 1   
    14    9   10 ar  
    15    9   29 1   
    16   10   11 ar  
    17   10   13 1   
    18   11   12 ar  
    19   11   14 1   
    20   12   30 1   
    21   15   16 1   
    22   15   31 1   
    23   15   32 1   
    24   16   17 1   
    25   16   21 1   
    26   16   33 1   
    27   17   18 1   
    28   17   34 1   
    29   18   19 1   
    30   18   35 1   
    31   18   36 1   
    32   19   20 1   
    33   19   37 1   
    34   19   38 1   
    35   20   21 ar  
    36   20   22 ar  
    37   21   25 ar  
    38   22   23 ar  
    39   22   39 1   
    40   23   24 ar  
    41   23   40 1   
    42   24   25 ar  
    43   24   41 1   
    44   25   42 1   
@<TRIPOS>SUBSTRUCTURE
     1 0LZ         1 TEMP              0 ****  ****    0 ROOT
