@<TRIPOS>MOLECULE
0LZ
   44    46     1     0     0
SMALL
bcc


@<TRIPOS>ATOM
      1 N01        -0.0270   -0.4340    0.2710 n4        1 0LZ     -0.645800
      2 C02         1.3070    0.1990    0.2830 c         1 0LZ      0.465100
      3 C03         2.4960   -0.7420    0.5040 c         1 0LZ      0.453100
      4 N04         3.8240   -0.0890    0.6960 n4        1 0LZ     -0.502200
      5 C05         4.0460    0.2820    2.1030 ca        1 0LZ     -0.089400
      6 O06         2.3970   -1.9580    0.5260 o         1 0LZ     -0.335100
      7 O07         1.4440    1.4000    0.1070 o         1 0LZ     -0.341100
      8 C08         4.6200   -0.6480    2.9860 ca        1 0LZ     -0.087000
      9 C09         4.8880   -0.2580    4.2940 ca        1 0LZ     -0.085000
     10 C10         4.5950    1.0350    4.7480 ca        1 0LZ      0.042400
     11 C11         4.0080    1.9660    3.8430 ca        1 0LZ      0.173900
     12 C12         3.7350    1.5880    2.5180 ca        1 0LZ     -0.155000
     13 CL1         4.9430    1.4580    6.3290 cl        1 0LZ      0.072600
     14 F14         3.7030    3.2190    4.2290 f         1 0LZ     -0.069900
     15 C15        -0.7700   -0.1950   -1.0240 c3        1 0LZ      0.099800
     16 C16        -2.2500   -0.7090   -0.9370 c3        1 0LZ      0.237800
     17 N17        -2.8520   -0.2970    0.3180 n3        1 0LZ     -0.875200
     18 C18        -3.6320    0.9330    0.3170 c3        1 0LZ      0.149800
     19 C19        -3.4850    1.8350   -0.9080 c3        1 0LZ     -0.053100
     20 C20        -3.5180    1.0530   -2.1690 ca        1 0LZ     -0.065300
     21 C21        -2.8980   -0.2070   -2.1940 ca        1 0LZ     -0.175300
     22 C22        -4.1560    1.5290   -3.3170 ca        1 0LZ     -0.109000
     23 C23        -4.1740    0.7530   -4.4770 ca        1 0LZ     -0.079000
     24 C24        -3.5630   -0.5020   -4.4950 ca        1 0LZ     -0.113000
     25 C25        -2.9250   -0.9870   -3.3530 ca        1 0LZ     -0.104000
     26 H1         -0.6090   -0.0180    1.0320 hn        1 0LZ      0.499300
     27 H2          4.5680   -0.7550    0.4110 hn        1 0LZ      0.499300
     28 H3          4.8780   -1.6750    2.6690 ha        1 0LZ      0.177000
     29 H4          5.3520   -0.9870    4.9880 ha        1 0LZ      0.207000
     30 H5          3.3020    2.3400    1.8360 ha        1 0LZ      0.180000
     31 H7         -0.7650    0.9150   -1.2210 hx        1 0LZ      0.119700
     32 H6         -0.2420   -0.7450   -1.8490 hx        1 0LZ      0.119700
     33 H8         -2.2110   -1.8410   -0.9670 h1        1 0LZ      0.078700
     34 H9         -3.4170   -1.0470    0.6790 hn        1 0LZ      0.404800
     35 H11        -3.3110    1.5090    1.2330 h1        1 0LZ      0.068700
     36 H12        -4.7300    0.6950    0.4390 h1        1 0LZ      0.068700
     37 H13        -2.5190    2.4080   -0.8520 hc        1 0LZ      0.070200
     38 H14        -4.3160    2.5920   -0.8870 hc        1 0LZ      0.070200
     39 H15        -4.6530    2.5130   -3.3030 ha        1 0LZ      0.161000
     40 H16        -4.6820    1.1300   -5.3800 ha        1 0LZ      0.167000
     41 H17        -3.5930   -1.1170   -5.4090 ha        1 0LZ      0.163000
     42 H18        -2.4640   -1.9860   -3.3650 ha        1 0LZ      0.136000
     43 H012        0.0430   -1.4480    0.4390 hn        1 0LZ      0.499300
     44 H042        3.8850    0.7610    0.1110 hn        1 0LZ      0.499300
@<TRIPOS>BOND
     1    1    2 1   
     2    1   15 1   
     3    1   26 1   
     4    1   43 1   
     5    2    3 1   
     6    2    7 2   
     7    3    4 1   
     8    3    6 2   
     9    4    5 1   
    10    4   27 1   
    11    4   44 1   
    12    5    8 ar  
    13    5   12 ar  
    14    8    9 ar  
    15    8   28 1   
    16    9   10 ar  
    17    9   29 1   
    18   10   11 ar  
    19   10   13 1   
    20   11   12 ar  
    21   11   14 1   
    22   12   30 1   
    23   15   16 1   
    24   15   31 1   
    25   15   32 1   
    26   16   17 1   
    27   16   21 1   
    28   16   33 1   
    29   17   18 1   
    30   17   34 1   
    31   18   19 1   
    32   18   35 1   
    33   18   36 1   
    34   19   20 1   
    35   19   37 1   
    36   19   38 1   
    37   20   21 ar  
    38   20   22 ar  
    39   21   25 ar  
    40   22   23 ar  
    41   22   39 1   
    42   23   24 ar  
    43   23   40 1   
    44   24   25 ar  
    45   24   41 1   
    46   25   42 1   
@<TRIPOS>SUBSTRUCTURE
     1 0LZ         1 TEMP              0 ****  ****    0 ROOT
