@<TRIPOS>MOLECULE
0LZ
   43    45     1     0     0
SMALL
bcc


@<TRIPOS>ATOM
      1 N01        -0.6220   -1.2420    0.4910 ny        1 0LZ     -0.651800
      2 C02         0.8610   -1.4100    0.5740 c         1 0LZ      0.441100
      3 C03         1.5720   -0.4430    1.5560 c         1 0LZ      0.616100
      4 N04         2.9250   -0.5740    1.5870 ns        1 0LZ     -0.396100
      5 C05         3.8120    0.1700    2.4060 ca        1 0LZ      0.038600
      6 O06         0.8530    0.3390    2.2000 o         1 0LZ     -0.552100
      7 O07         1.3860   -2.2740   -0.1110 o         1 0LZ     -0.399100
      8 C08         5.1850   -0.1700    2.3630 ca        1 0LZ     -0.155000
      9 C09         6.0970    0.5290    3.1390 ca        1 0LZ     -0.076000
     10 C10         5.6880    1.5760    3.9740 ca        1 0LZ     -0.018600
     11 C11         4.3190    1.9180    4.0190 ca        1 0LZ      0.163900
     12 C12         3.3820    1.2150    3.2360 ca        1 0LZ     -0.171000
     13 Cl1         6.8380    2.3960    4.8980 cl        1 0LZ     -0.019400
     14 F14         3.8700    2.9190    4.8070 f         1 0LZ     -0.104900
     15 C15        -1.0460   -0.6760   -0.8280 c3        1 0LZ      0.107800
     16 C16        -2.5860   -0.7790   -1.0490 c3        1 0LZ      0.213800
     17 N17        -3.3080   -0.3570    0.1440 n7        1 0LZ     -0.843200
     18 C18        -3.4630    1.0820    0.2460 c3        1 0LZ      0.147800
     19 C19        -4.0810    1.7620   -0.9730 c3        1 0LZ     -0.078100
     20 C20        -3.5780    1.2070   -2.2580 ca        1 0LZ     -0.054300
     21 C21        -2.8790   -0.0080   -2.3090 ca        1 0LZ     -0.156300
     22 C22        -3.8420    1.8940   -3.4500 ca        1 0LZ     -0.120000
     23 C23        -3.4210    1.3770   -4.6720 ca        1 0LZ     -0.094000
     24 C24        -2.7360    0.1600   -4.7190 ca        1 0LZ     -0.119000
     25 C25        -2.4680   -0.5300   -3.5400 ca        1 0LZ     -0.118000
     26 H1         -1.0830   -2.1520    0.6250 hn        1 0LZ      0.483300
     27 H2          3.3520   -1.2710    1.0080 hn        1 0LZ      0.355500
     28 H3          5.5490   -0.9880    1.7200 ha        1 0LZ      0.151000
     29 H4          7.1660    0.2550    3.0970 ha        1 0LZ      0.173000
     30 H5          2.3230    1.5160    3.3050 ha        1 0LZ      0.186000
     31 H7         -0.5290   -1.2520   -1.6470 hx        1 0LZ      0.112200
     32 H6         -0.7220    0.4020   -0.8610 hx        1 0LZ      0.112200
     33 H8         -2.8310   -1.8700   -1.2320 h1        1 0LZ      0.078700
     34 H9         -4.2080   -0.8050    0.1640 hn        1 0LZ      0.393800
     35 H11        -4.0970    1.2970    1.1530 h1        1 0LZ      0.062700
     36 H12        -2.4410    1.5200    0.4310 h1        1 0LZ      0.062700
     37 H13        -3.8660    2.8630   -0.9190 hc        1 0LZ      0.077700
     38 H14        -5.1990    1.6440   -0.9470 hc        1 0LZ      0.077700
     39 H15        -4.3910    2.8490   -3.4140 ha        1 0LZ      0.151000
     40 H16        -3.6340    1.9240   -5.6040 ha        1 0LZ      0.154000
     41 H17        -2.4130   -0.2550   -5.6860 ha        1 0LZ      0.152000
     42 H18        -1.9420   -1.4960   -3.5810 ha        1 0LZ      0.129000
     43 H012       -0.9360   -0.6060    1.2460 hn        1 0LZ      0.483300
@<TRIPOS>BOND
     1    1    2 1   
     2    1   15 1   
     3    1   26 1   
     4    1   43 1   
     5    2    3 1   
     6    2    7 2   
     7    3    4 1   
     8    3    6 2   
     9    4    5 1   
    10    4   27 1   
    11    5    8 ar  
    12    5   12 ar  
    13    8    9 ar  
    14    8   28 1   
    15    9   10 ar  
    16    9   29 1   
    17   10   11 ar  
    18   10   13 1   
    19   11   12 ar  
    20   11   14 1   
    21   12   30 1   
    22   15   16 1   
    23   15   31 1   
    24   15   32 1   
    25   16   17 1   
    26   16   21 1   
    27   16   33 1   
    28   17   18 1   
    29   17   34 1   
    30   18   19 1   
    31   18   35 1   
    32   18   36 1   
    33   19   20 1   
    34   19   37 1   
    35   19   38 1   
    36   20   21 ar  
    37   20   22 ar  
    38   21   25 ar  
    39   22   23 ar  
    40   22   39 1   
    41   23   24 ar  
    42   23   40 1   
    43   24   25 ar  
    44   24   41 1   
    45   25   42 1   
@<TRIPOS>SUBSTRUCTURE
     1 0LZ         1 TEMP              0 ****  ****    0 ROOT
