@<TRIPOS>MOLECULE
0LZ
   42    39     1     0     0
SMALL
bcc


@<TRIPOS>ATOM
      1 N01         0.2210    0.7290    0.1110 n         1 0LZ     -0.321000
      2 C02         1.6270    0.5340   -0.0400 c2        1 0LZ      0.288000
      3 C03         2.4180   -0.3280    1.0240 c2        1 0LZ      0.294000
      4 N04         3.8170   -0.3850    0.9820 n         1 0LZ     -0.298000
      5 C05         4.5620   -1.0840    2.0610 c2        1 0LZ      0.101000
      6 O06         1.7860   -0.8800    1.9920 o         1 0LZ     -0.335000
      7 O07         2.2010    0.9570   -1.0430 o         1 0LZ     -0.366000
      8 C08         5.6710   -0.4240    2.6120 c1        1 0LZ     -0.184000
      9 C09         6.3430   -0.9780    3.7130 c1        1 0LZ     -0.077000
     10 C10         5.9090   -2.1930    4.2660 c1        1 0LZ     -0.129000
     11 C11         4.8010   -2.8540    3.7180 c1        1 0LZ      0.128000
     12 C12         4.1240   -2.2970    2.6100 c2        1 0LZ     -0.191000
     13 CL1         6.7550   -2.8850    5.6830 cl        1 0LZ      0.012000
     14 F14         4.5160   -4.1150    4.1100 f         1 0LZ     -0.087000
     15 C15        -0.6000    0.9020   -1.0470 c3        1 0LZ     -0.037000
     16 C16        -2.1390    0.9910   -0.6130 c3        1 0LZ     -0.019000
     17 N17        -2.4390    2.3000   -0.4190 n3        1 0LZ     -0.286000
     18 C18        -3.7900    2.6890   -0.5050 c3        1 0LZ     -0.079000
     19 C19        -4.4930    2.3070   -1.6920 c3        1 0LZ     -0.163000
     20 C20        -4.1100    0.9120   -2.3060 c2        1 0LZ     -0.059000
     21 C21        -3.0080    0.2100   -1.7110 c2        1 0LZ     -0.100000
     22 C22        -4.9120    0.2710   -3.2880 c1        1 0LZ     -0.127000
     23 C23        -4.6250   -1.0540   -3.6780 c1        1 0LZ     -0.127000
     24 C24        -3.5320   -1.7510   -3.0880 c1        1 0LZ     -0.127000
     25 C25        -2.7260   -1.1070   -2.1000 c1        1 0LZ     -0.126000
     26 H1         -0.1470    0.8180    0.9600 hn        1 0LZ      0.246000
     27 H2          4.2870    0.0620    0.2980 hn        1 0LZ      0.261000
     28 H3          5.9590    0.3760    2.2490 ha        1 0LZ      0.144000
     29 H4          7.1290   -0.5090    4.1020 ha        1 0LZ      0.154000
     30 H5          3.3240   -2.7710    2.2150 ha        1 0LZ      0.191000
     31 H7         -0.4770    0.1720   -1.6280 h1        1 0LZ      0.113000
     32 H6         -0.3400    1.7460   -1.5140 h1        1 0LZ      0.113000
     33 H8         -2.2390    0.5510    0.1980 h1        1 0LZ      0.109000
     34 H9         -1.8950    2.8570   -1.0310 hn        1 0LZ      0.167000
     35 H11        -4.2550    2.2910    0.2500 h1        1 0LZ      0.097000
     36 H12        -3.8160    3.6290   -0.4520 h1        1 0LZ      0.097000
     37 H13        -5.4450    2.2820   -1.4750 hc        1 0LZ      0.097000
     38 H14        -4.3020    3.0240   -2.4090 hc        1 0LZ      0.097000
     39 H15        -5.6810    0.7590   -3.7060 ha        1 0LZ      0.133000
     40 H16        -5.1720   -1.4910   -4.3480 ha        1 0LZ      0.133500
     41 H17        -3.3310   -2.6770   -3.3610 ha        1 0LZ      0.133500
     42 H18        -1.9760   -1.5850   -1.6970 ha        1 0LZ      0.128000
@<TRIPOS>BOND
     1    1    2 1   
     2    1   15 1   
     3    1   26 1   
     4    2    3 1   
     5    2    7 1   
     6    3    4 1   
     7    3    6 1   
     8    4    5 1   
     9    4   27 1   
    10    5    8 1   
    11    5   12 1   
    12    8   28 1   
    13    9   10 1   
    14    9   29 1   
    15   10   13 1   
    16   11   12 1   
    17   12   30 1   
    18   15   16 1   
    19   15   31 1   
    20   15   32 1   
    21   16   17 1   
    22   16   21 1   
    23   16   33 1   
    24   17   18 1   
    25   17   34 1   
    26   18   19 1   
    27   18   35 1   
    28   18   36 1   
    29   19   20 1   
    30   19   37 1   
    31   19   38 1   
    32   20   21 1   
    33   20   22 1   
    34   21   25 1   
    35   22   39 1   
    36   23   24 1   
    37   23   40 1   
    38   24   41 1   
    39   25   42 1   
@<TRIPOS>SUBSTRUCTURE
     1 0LZ         1 TEMP              0 ****  ****    0 ROOT
