@<TRIPOS>MOLECULE
0M1
   46    47     1     0     0
SMALL
bcc


@<TRIPOS>ATOM
      1 C01         1.7010   -0.4960   -0.1940 ca        1 0M1      0.052400
      2 C02         2.4700   -1.3220    0.6790 ca        1 0M1      0.174900
      3 C03         2.3900   -1.1510    2.0690 ca        1 0M1     -0.161000
      4 C04         1.5480   -0.1500    2.5870 ca        1 0M1     -0.105400
      5 C05         0.7940    0.6820    1.7400 ca        1 0M1     -0.078000
      6 C06         0.8790    0.4940    0.3640 ca        1 0M1     -0.085000
      7 CL1         1.7570   -0.6910   -1.8510 cl        1 0M1      0.094600
      8 F08         3.2810   -2.2820    0.1970 f         1 0M1     -0.066900
      9 N09         1.3910   -0.0390    4.0460 n4        1 0M1     -0.491200
     10 C10         2.3140    0.9730    4.6290 c         1 0M1      0.460100
     11 C11         3.7090    0.4720    5.0270 c         1 0M1      0.462100
     12 N12         4.6970    1.5360    5.3810 n4        1 0M1     -0.653800
     13 O13         4.0220   -0.7040    5.0760 o         1 0M1     -0.322100
     14 O14         1.9710    2.1330    4.7860 o         1 0M1     -0.327100
     15 C15         5.6680    1.1150    6.4520 c3        1 0M1      0.093800
     16 C16         6.8200    2.1370    6.5910 c3        1 0M1      0.115100
     17 C17         8.0250    1.5490    7.3560 c3        1 0M1      0.111100
     18 O18         9.0560    1.4520    6.3830 os        1 0M1     -0.442600
     19 C19         8.7400    2.1940    5.1840 c3        1 0M1      0.370600
     20 O20         7.3090    2.4150    5.2870 os        1 0M1     -0.475600
     21 C21         8.4920    2.4630    8.5070 c3        1 0M1      0.078800
     22 N22         9.8380    2.0810    9.0150 n4        1 0M1     -0.830600
     23 C23         9.4640    3.5260    5.1520 c3        1 0M1     -0.124100
     24 C24         9.0330    1.3190    3.9800 c3        1 0M1     -0.124100
     25 H1          2.9660   -1.8350    2.7150 ha        1 0M1      0.174000
     26 H2          0.1220    1.4660    2.1320 ha        1 0M1      0.181000
     27 H3          0.2690    1.1370   -0.3040 ha        1 0M1      0.214000
     28 H4          0.4120    0.2570    4.2450 hn        1 0M1      0.506800
     29 H5          5.2550    1.7720    4.5330 hn        1 0M1      0.503800
     30 H6          6.0840    0.1050    6.1590 hx        1 0M1      0.134200
     31 H7          5.1120    1.0290    7.4280 hx        1 0M1      0.134200
     32 H8          6.4450    3.0980    7.0400 h1        1 0M1      0.106700
     33 H9          7.8400    0.5040    7.7310 h1        1 0M1      0.111700
     34 H10         8.5560    3.5320    8.1450 hx        1 0M1      0.127200
     35 H11         7.7570    2.4070    9.3610 hx        1 0M1      0.127200
     36 H12        10.1790    2.7910    9.6780 hn        1 0M1      0.482467
     37 H13         9.8050    1.1710    9.4920 hn        1 0M1      0.482467
     38 H15         9.1370    4.1050    4.2520 hc        1 0M1      0.082867
     39 H16        10.5660    3.3490    5.0820 hc        1 0M1      0.082867
     40 H17         9.2410    4.1270    6.0640 hc        1 0M1      0.082867
     41 H18         8.4480    0.3710    4.0240 hc        1 0M1      0.082867
     42 H19        10.1240    1.0690    3.9670 hc        1 0M1      0.082867
     43 H20         8.7780    1.8770    3.0470 hc        1 0M1      0.082867
     44 H092        1.5600   -0.9660    4.4740 hn        1 0M1      0.506800
     45 H122        4.2010    2.3930    5.6780 hn        1 0M1      0.503800
     46 H223       10.4990    2.0090    8.2260 hn        1 0M1      0.482467
@<TRIPOS>BOND
     1    1    2 ar  
     2    1    6 ar  
     3    1    7 1   
     4    2    3 ar  
     5    2    8 1   
     6    3    4 ar  
     7    3   25 1   
     8    4    5 ar  
     9    4    9 1   
    10    5    6 ar  
    11    5   26 1   
    12    6   27 1   
    13    9   10 1   
    14    9   28 1   
    15    9   44 1   
    16   10   11 1   
    17   10   14 2   
    18   11   12 1   
    19   11   13 2   
    20   12   15 1   
    21   12   29 1   
    22   12   45 1   
    23   15   16 1   
    24   15   30 1   
    25   15   31 1   
    26   16   17 1   
    27   16   20 1   
    28   16   32 1   
    29   17   18 1   
    30   17   21 1   
    31   17   33 1   
    32   18   19 1   
    33   19   20 1   
    34   19   23 1   
    35   19   24 1   
    36   21   22 1   
    37   21   34 1   
    38   21   35 1   
    39   22   36 1   
    40   22   37 1   
    41   22   46 1   
    42   23   38 1   
    43   23   39 1   
    44   23   40 1   
    45   24   41 1   
    46   24   42 1   
    47   24   43 1   
@<TRIPOS>SUBSTRUCTURE
     1 0M1         1 TEMP              0 ****  ****    0 ROOT
