@<TRIPOS>MOLECULE
0M1
   43    44     1     0     0
SMALL
bcc


@<TRIPOS>ATOM
      1 C01         6.0950   -0.2210   -0.1950 ca        1 0M1     -0.049600
      2 C02         5.1430    0.8170   -0.1280 ca        1 0M1      0.162900
      3 C03         3.7750    0.5210    0.0170 ca        1 0M1     -0.191000
      4 C04         3.3460   -0.8160    0.0950 ca        1 0M1      0.092600
      5 C05         4.3140   -1.8510    0.0240 ca        1 0M1     -0.184000
      6 C06         5.6580   -1.5480   -0.1170 ca        1 0M1     -0.077000
      7 CL1         7.7510    0.0980   -0.3690 cl        1 0M1     -0.065400
      8 F08         5.5160    2.1150   -0.1980 f         1 0M1     -0.121900
      9 N09         1.9990   -1.1780    0.2540 n         1 0M1     -0.444100
     10 C10         0.9030   -0.3420    0.2360 c         1 0M1      0.599100
     11 C11        -0.4570   -1.0620    0.4030 c         1 0M1      0.586100
     12 N12        -1.4880   -0.2840    0.8600 n         1 0M1     -0.519900
     13 O13        -0.5590   -2.2850    0.1790 o         1 0M1     -0.602100
     14 O14         0.9480    0.8920    0.1030 o         1 0M1     -0.572100
     15 C15        -2.8350   -0.7750    0.9420 c3        1 0M1      0.074000
     16 C16        -3.7680   -0.2380   -0.1580 c3        1 0M1      0.095100
     17 C17        -5.2100   -0.7270    0.0380 c3        1 0M1      0.119100
     18 O18        -5.9690    0.4550    0.3200 os        1 0M1     -0.441600
     19 C19        -5.1870    1.6340    0.0990 c3        1 0M1      0.349600
     20 O20        -3.8320    1.1880   -0.0550 os        1 0M1     -0.445600
     21 C21        -5.7570   -1.4090   -1.2240 c3        1 0M1      0.148800
     22 N22        -7.0900   -1.9290   -1.0420 n3        1 0M1     -0.912800
     23 C23        -5.6400    2.3440   -1.1690 c3        1 0M1     -0.109600
     24 C24        -5.2840    2.5290    1.3260 c3        1 0M1     -0.109600
     25 H1          3.0610    1.3610    0.0640 ha        1 0M1      0.191000
     26 H2          4.0080   -2.9070    0.0810 ha        1 0M1      0.144000
     27 H3          6.3960   -2.3650   -0.1700 ha        1 0M1      0.154000
     28 H4          1.8110   -2.1610    0.3020 hn        1 0M1      0.347500
     29 H5         -1.3730    0.7090    0.8510 hn        1 0M1      0.345500
     30 H6         -2.8310   -1.9010    0.8800 h1        1 0M1      0.079200
     31 H7         -3.2490   -0.4620    1.9440 h1        1 0M1      0.079200
     32 H8         -3.3700   -0.4760   -1.1810 h1        1 0M1      0.077700
     33 H9         -5.3250   -1.3900    0.9380 h1        1 0M1      0.091700
     34 H10        -5.6860   -0.6660   -2.0730 h1        1 0M1      0.036200
     35 H11        -5.0810   -2.2770   -1.4710 h1        1 0M1      0.036200
     36 H12        -7.6720   -1.2610   -0.5750 hn        1 0M1      0.358300
     37 H13        -7.4940   -2.1630   -1.9270 hn        1 0M1      0.358300
     38 H15        -6.6990    2.6730   -1.0500 hc        1 0M1      0.054033
     39 H16        -4.9900    3.2320   -1.3490 hc        1 0M1      0.054033
     40 H17        -5.5660    1.6560   -2.0430 hc        1 0M1      0.054033
     41 H18        -4.9340    1.9800    2.2310 hc        1 0M1      0.054033
     42 H19        -4.6480    3.4320    1.1750 hc        1 0M1      0.054033
     43 H20        -6.3460    2.8370    1.4740 hc        1 0M1      0.054033
@<TRIPOS>BOND
     1    1    2 ar  
     2    1    6 ar  
     3    1    7 1   
     4    2    3 ar  
     5    2    8 1   
     6    3    4 ar  
     7    3   25 1   
     8    4    5 ar  
     9    4    9 1   
    10    5    6 ar  
    11    5   26 1   
    12    6   27 1   
    13    9   10 1   
    14    9   28 1   
    15   10   11 1   
    16   10   14 2   
    17   11   12 1   
    18   11   13 2   
    19   12   15 1   
    20   12   29 1   
    21   15   16 1   
    22   15   30 1   
    23   15   31 1   
    24   16   17 1   
    25   16   20 1   
    26   16   32 1   
    27   17   18 1   
    28   17   21 1   
    29   17   33 1   
    30   18   19 1   
    31   19   20 1   
    32   19   23 1   
    33   19   24 1   
    34   21   22 1   
    35   21   34 1   
    36   21   35 1   
    37   22   36 1   
    38   22   37 1   
    39   23   38 1   
    40   23   39 1   
    41   23   40 1   
    42   24   41 1   
    43   24   42 1   
    44   24   43 1   
@<TRIPOS>SUBSTRUCTURE
     1 0M1         1 TEMP              0 ****  ****    0 ROOT
