@<TRIPOS>MOLECULE
0M1
   45    46     1     0     0
SMALL
bcc


@<TRIPOS>ATOM
      1 C01         1.5480   -1.7330    0.3530 ca        1 0M1     -0.004600
      2 C02         2.8740   -1.4110    0.7210 ca        1 0M1      0.160900
      3 C03         3.1230   -0.5230    1.7850 ca        1 0M1     -0.169000
      4 C04         2.0480    0.0430    2.4850 ca        1 0M1      0.016600
      5 C05         0.7210   -0.2790    2.1180 ca        1 0M1     -0.141000
      6 C06         0.4900   -1.1540    1.0650 ca        1 0M1     -0.074000
      7 Cl1         1.2140   -2.7900   -0.9150 cl        1 0M1      0.003600
      8 F08         3.9330   -1.9390    0.0700 f         1 0M1     -0.101900
      9 N09         2.2310    0.9550    3.5610 ns        1 0M1     -0.371100
     10 C10         3.4150    1.2610    4.1400 c         1 0M1      0.623100
     11 C11         3.3050    2.2800    5.3070 c         1 0M1      0.439100
     12 N12         4.6190    2.9030    5.7220 ny        1 0M1     -0.657800
     13 O13         2.3130    2.6270    5.9180 o         1 0M1     -0.368100
     14 O14         4.5590    0.8520    3.8700 o         1 0M1     -0.582100
     15 C15         5.4440    1.9600    6.5320 c3        1 0M1      0.081800
     16 C16         6.8370    2.5410    6.8450 c3        1 0M1      0.111100
     17 C17         7.8340    1.4370    7.2490 c3        1 0M1      0.112100
     18 O18         8.7640    1.3650    6.1760 os        1 0M1     -0.461600
     19 C19         8.4440    2.2970    5.1150 c3        1 0M1      0.365600
     20 O20         7.3940    3.1180    5.6710 os        1 0M1     -0.447600
     21 C21         8.6070    1.8100    8.5300 c3        1 0M1      0.083800
     22 N22         9.8120    0.9580    8.7220 nz        1 0M1     -0.830600
     23 C23         9.6490    3.1760    4.8320 c3        1 0M1     -0.124600
     24 C24         7.9550    1.5370    3.8970 c3        1 0M1     -0.124600
     25 H1          4.1730   -0.2990    2.0350 ha        1 0M1      0.176000
     26 H2         -0.1420    0.1530    2.6500 ha        1 0M1      0.156000
     27 H3         -0.5510   -1.3980    0.7850 ha        1 0M1      0.182000
     28 H4          1.3900    1.3600    3.9300 hn        1 0M1      0.361500
     29 H5          4.4460    3.7650    6.2550 hn        1 0M1      0.478300
     30 H6          5.5530    1.0070    5.9280 hx        1 0M1      0.129200
     31 H7          4.9000    1.7400    7.4940 hx        1 0M1      0.129200
     32 H8          6.7610    3.3680    7.6030 h1        1 0M1      0.108700
     33 H9          7.3530    0.4260    7.3530 h1        1 0M1      0.103700
     34 H10         7.9340    1.6920    9.4270 hx        1 0M1      0.124700
     35 H11         8.9550    2.8830    8.4620 hx        1 0M1      0.124700
     36 H12        10.3740    1.3120    9.5060 hn        1 0M1      0.477133
     37 H13         9.5430   -0.0130    8.9120 hn        1 0M1      0.477133
     38 H15        10.0260    3.6470    5.7700 hc        1 0M1      0.079533
     39 H16         9.3550    3.9830    4.1160 hc        1 0M1      0.079533
     40 H17        10.4570    2.5560    4.3740 hc        1 0M1      0.079533
     41 H18         8.6820    0.7230    3.6540 hc        1 0M1      0.079533
     42 H19         7.8890    2.2340    3.0270 hc        1 0M1      0.079533
     43 H20         6.9510    1.0830    4.0800 hc        1 0M1      0.079533
     44 H122        5.1570    3.1400    4.8700 hn        1 0M1      0.478300
     45 H223       10.3800    0.9740    7.8600 hn        1 0M1      0.477133
@<TRIPOS>BOND
     1    1    2 ar  
     2    1    6 ar  
     3    1    7 1   
     4    2    3 ar  
     5    2    8 1   
     6    3    4 ar  
     7    3   25 1   
     8    4    5 ar  
     9    4    9 1   
    10    5    6 ar  
    11    5   26 1   
    12    6   27 1   
    13    9   10 1   
    14    9   28 1   
    15   10   11 1   
    16   10   14 2   
    17   11   12 1   
    18   11   13 2   
    19   12   15 1   
    20   12   29 1   
    21   12   44 1   
    22   15   16 1   
    23   15   30 1   
    24   15   31 1   
    25   16   17 1   
    26   16   20 1   
    27   16   32 1   
    28   17   18 1   
    29   17   21 1   
    30   17   33 1   
    31   18   19 1   
    32   19   20 1   
    33   19   23 1   
    34   19   24 1   
    35   21   22 1   
    36   21   34 1   
    37   21   35 1   
    38   22   36 1   
    39   22   37 1   
    40   22   45 1   
    41   23   38 1   
    42   23   39 1   
    43   23   40 1   
    44   24   41 1   
    45   24   42 1   
    46   24   43 1   
@<TRIPOS>SUBSTRUCTURE
     1 0M1         1 TEMP              0 ****  ****    0 ROOT
