@<TRIPOS>MOLECULE
0M1
   45    46     1     0     0
SMALL
bcc


@<TRIPOS>ATOM
      1 C01         1.6050   -1.7820    0.3360 ca        1 0M1     -0.004600
      2 C02         2.9230   -1.4180    0.6920 ca        1 0M1      0.160900
      3 C03         3.1530   -0.5430    1.7720 ca        1 0M1     -0.169000
      4 C04         2.0670   -0.0320    2.4970 ca        1 0M1      0.016600
      5 C05         0.7480   -0.3970    2.1400 ca        1 0M1     -0.141000
      6 C06         0.5350   -1.2590    1.0730 ca        1 0M1     -0.074000
      7 CL1         1.2940   -2.8260   -0.9500 cl        1 0M1      0.003600
      8 F08         3.9920   -1.8920    0.0180 f         1 0M1     -0.101900
      9 N09         2.2300    0.8650    3.5880 n         1 0M1     -0.371100
     10 C10         3.4080    1.1980    4.1620 c         1 0M1      0.623100
     11 C11         3.2760    2.1900    5.3500 c         1 0M1      0.439100
     12 N12         4.5720    2.8490    5.7650 n4        1 0M1     -0.657800
     13 O13         2.2790    2.4920    5.9780 o         1 0M1     -0.368100
     14 O14         4.5630    0.8330    3.8730 o         1 0M1     -0.582100
     15 C15         5.4370    1.9180    6.5480 c3        1 0M1      0.081800
     16 C16         6.8130    2.5380    6.8590 c3        1 0M1      0.111100
     17 C17         7.8500    1.4610    7.2320 c3        1 0M1      0.112100
     18 O18         8.7710    1.4410    6.1490 os        1 0M1     -0.461600
     19 C19         8.4100    2.3830    5.1100 c3        1 0M1      0.365600
     20 O20         7.3380    3.1570    5.6920 os        1 0M1     -0.447600
     21 C21         8.6230    1.8350    8.5130 c3        1 0M1      0.083800
     22 N22         9.8590    1.0200    8.6760 n4        1 0M1     -0.830600
     23 C23         9.5820    3.3070    4.8330 c3        1 0M1     -0.124600
     24 C24         7.9340    1.6300    3.8820 c3        1 0M1     -0.124600
     25 H1          4.1960   -0.2840    2.0130 ha        1 0M1      0.176000
     26 H2         -0.1230   -0.0090    2.6920 ha        1 0M1      0.156000
     27 H3         -0.4990   -1.5360    0.8010 ha        1 0M1      0.182000
     28 H4          1.3790    1.2330    3.9740 hn        1 0M1      0.361500
     29 H5          4.3770    3.6940    6.3170 hn        1 0M1      0.478300
     30 H6          4.9110    1.6610    7.5110 hx        1 0M1      0.129200
     31 H7          5.5710    0.9810    5.9250 hx        1 0M1      0.129200
     32 H8          6.7170    3.3480    7.6340 h1        1 0M1      0.108700
     33 H9          7.4040    0.4330    7.3210 h1        1 0M1      0.103700
     34 H10         8.9350    2.9200    8.4630 hx        1 0M1      0.124700
     35 H11         7.9640    1.6770    9.4140 hx        1 0M1      0.124700
     36 H12        10.4170    1.0720    7.8090 hn        1 0M1      0.477133
     37 H13        10.4160    1.3770    9.4610 hn        1 0M1      0.477133
     38 H15         9.9520    3.7720    5.7760 hc        1 0M1      0.079533
     39 H16        10.4060    2.7220    4.3560 hc        1 0M1      0.079533
     40 H17         9.2550    4.1160    4.1350 hc        1 0M1      0.079533
     41 H18         8.6850    0.8460    3.6150 hc        1 0M1      0.079533
     42 H19         6.9480    1.1390    4.0650 hc        1 0M1      0.079533
     43 H20         7.8350    2.3410    3.0260 hc        1 0M1      0.079533
     44 H122        5.0940    3.1200    4.9130 hn        1 0M1      0.478300
     45 H223        9.6240    0.0360    8.8490 hn        1 0M1      0.477133
@<TRIPOS>BOND
     1    1    2 ar  
     2    1    6 ar  
     3    1    7 1   
     4    2    3 ar  
     5    2    8 1   
     6    3    4 ar  
     7    3   25 1   
     8    4    5 ar  
     9    4    9 1   
    10    5    6 ar  
    11    5   26 1   
    12    6   27 1   
    13    9   10 1   
    14    9   28 1   
    15   10   11 1   
    16   10   14 2   
    17   11   12 1   
    18   11   13 2   
    19   12   15 1   
    20   12   29 1   
    21   12   44 1   
    22   15   16 1   
    23   15   30 1   
    24   15   31 1   
    25   16   17 1   
    26   16   20 1   
    27   16   32 1   
    28   17   18 1   
    29   17   21 1   
    30   17   33 1   
    31   18   19 1   
    32   19   20 1   
    33   19   23 1   
    34   19   24 1   
    35   21   22 1   
    36   21   34 1   
    37   21   35 1   
    38   22   36 1   
    39   22   37 1   
    40   22   45 1   
    41   23   38 1   
    42   23   39 1   
    43   23   40 1   
    44   24   41 1   
    45   24   42 1   
    46   24   43 1   
@<TRIPOS>SUBSTRUCTURE
     1 0M1         1 TEMP              0 ****  ****    0 ROOT
