@<TRIPOS>MOLECULE
0M1
   43    37     1     0     0
SMALL
bcc


@<TRIPOS>ATOM
      1 C01        -0.7370   -4.5210   -6.0660 c1        1 0M1     -0.128000
      2 C02        -0.0180   -3.4280   -5.5980 c1        1 0M1      0.114000
      3 C03        -0.3250   -2.8760   -4.3730 c1        1 0M1     -0.187500
      4 C04        -1.3490   -3.4100   -3.6060 c1        1 0M1      0.114000
      5 C05        -2.0640   -4.4970   -4.0700 c1        1 0M1     -0.187500
      6 C06        -1.7570   -5.0540   -5.3040 c1        1 0M1     -0.077000
      7 CL1        -0.2220   -5.3400   -7.5270 cl        1 0M1      0.013000
      8 F08         1.0580   -3.0240   -6.2490 f         1 0M1     -0.087000
      9 N09        -1.7280   -2.7770   -2.3740 n2        1 0M1     -0.298000
     10 C10        -0.8470   -1.7830   -1.7680 c1        1 0M1      0.293000
     11 C11        -1.2310   -1.1280   -0.4230 c1        1 0M1      0.280000
     12 N12        -0.4470   -0.0780    0.0970 n2        1 0M1     -0.329000
     13 O13        -2.2710   -1.5140    0.1990 o         1 0M1     -0.363000
     14 O14         0.2350   -1.4850   -2.3230 o         1 0M1     -0.333000
     15 C15        -0.7540    0.4720    1.3720 c3        1 0M1     -0.042000
     16 C16         0.1390    1.6280    1.6320 c3        1 0M1     -0.016000
     17 C17        -0.2130    2.2860    2.9640 c3        1 0M1      0.008000
     18 O18         0.7190    1.9740    3.7360 os        1 0M1     -0.298000
     19 C19         1.9680    1.7400    2.8330 c3        1 0M1      0.206000
     20 O20         1.5440    1.1760    1.7680 os        1 0M1     -0.302000
     21 C21        -0.2850    3.8820    2.7920 c3        1 0M1     -0.088000
     22 N22        -1.4000    4.4110    3.5850 n3        1 0M1     -0.345000
     23 C23         2.6160    3.0610    2.5020 c3        1 0M1     -0.227500
     24 C24         2.9630    0.8370    3.5400 c3        1 0M1     -0.227500
     25 H1          0.1660   -2.1310   -4.0530 ha        1 0M1      0.167500
     26 H2         -2.7820   -4.8720   -3.5330 ha        1 0M1      0.167500
     27 H3         -2.2650   -5.8270   -5.6350 ha        1 0M1      0.154000
     28 H4         -2.5640   -2.9460   -2.0010 hn        1 0M1      0.261000
     29 H5          0.3240    0.1910   -0.3500 hn        1 0M1      0.259000
     30 H6         -0.6170   -0.2130    2.0670 h1        1 0M1      0.118500
     31 H7         -1.7310    0.7810    1.3860 h1        1 0M1      0.118500
     32 H8          0.0630    2.2900    0.8930 h1        1 0M1      0.117000
     33 H9         -1.0820    1.9330    3.3080 h1        1 0M1      0.131000
     34 H10         0.5920    4.3020    3.1150 h1        1 0M1      0.075500
     35 H11        -0.4260    4.1040    1.8350 h1        1 0M1      0.075500
     36 H12        -2.0270    4.8410    3.0060 hn        1 0M1      0.153500
     37 H13        -1.0700    5.0370    4.2150 hn        1 0M1      0.153500
     38 H15         2.5400    3.6530    3.2570 hc        1 0M1      0.093333
     39 H16         2.1800    3.4470    1.7530 hc        1 0M1      0.093333
     40 H17         3.5830    2.9160    2.2880 hc        1 0M1      0.093333
     41 H18         2.5270   -0.0060    3.7860 hc        1 0M1      0.093333
     42 H19         3.2970    1.2940    4.3670 hc        1 0M1      0.093333
     43 H20         3.6990    0.6560    2.9550 hc        1 0M1      0.093333
@<TRIPOS>BOND
     1    1    6 1   
     2    1    7 1   
     3    2    3 1   
     4    3   25 1   
     5    4    5 1   
     6    5   26 1   
     7    6   27 1   
     8    9   10 1   
     9    9   28 1   
    10   10   14 1   
    11   11   13 1   
    12   12   15 1   
    13   12   29 1   
    14   15   16 1   
    15   15   30 1   
    16   15   31 1   
    17   16   17 1   
    18   16   20 1   
    19   16   32 1   
    20   17   18 1   
    21   17   21 1   
    22   17   33 1   
    23   18   19 1   
    24   19   20 1   
    25   19   23 1   
    26   19   24 1   
    27   21   22 1   
    28   21   34 1   
    29   21   35 1   
    30   22   36 1   
    31   22   37 1   
    32   23   38 1   
    33   23   39 1   
    34   23   40 1   
    35   24   41 1   
    36   24   42 1   
    37   24   43 1   
@<TRIPOS>SUBSTRUCTURE
     1 0M1         1 TEMP              0 ****  ****    0 ROOT
