@<TRIPOS>MOLECULE
0M2
   42    45     1     0     0
SMALL
bcc


@<TRIPOS>ATOM
      1 C1         -0.2350    0.4070   -0.2230 cc        1 0M2     -0.082800
      2 C2          0.1720   -0.8870   -0.1430 cd        1 0M2     -0.082800
      3 C3          0.5540    1.6100   -0.1160 ca        1 0M2     -0.027000
      4 C4         -1.7340    0.4520   -0.4650 c3        1 0M2      0.189600
      5 C5          1.5020   -1.4050    0.0660 ca        1 0M2     -0.027000
      6 C6         -1.0260   -1.8040   -0.3190 c3        1 0M2      0.189600
      7 C7          1.9140    1.6340   -0.5240 ca        1 0M2      0.008800
      8 C8         -0.0240    2.7820    0.3910 ca        1 0M2     -0.102000
      9 N9         -2.2100   -0.9430   -0.5120 n3        1 0M2     -0.714600
     10 C10         2.6450   -0.6930   -0.3850 ca        1 0M2      0.008800
     11 C11         1.6810   -2.6340    0.7170 ca        1 0M2     -0.102000
     12 N12         2.5210    0.5050   -1.1360 na        1 0M2     -0.181300
     13 C13         2.6400    2.8400   -0.4070 ca        1 0M2     -0.179000
     14 C14         0.7050    3.9620    0.4960 ca        1 0M2     -0.149500
     15 C15        -3.2770   -1.2440    0.4270 c3        1 0M2      0.164800
     16 C16         3.9260   -1.2480   -0.1630 ca        1 0M2     -0.179000
     17 C17         2.9490   -3.1680    0.9220 ca        1 0M2     -0.149500
     18 C18         2.0380    3.9900    0.0910 ca        1 0M2     -0.104500
     19 C19        -4.5880   -0.4890    0.1280 c3        1 0M2      0.136100
     20 C20         4.0710   -2.4730    0.4760 ca        1 0M2     -0.104500
     21 C21        -5.7720   -1.2620    0.6790 c3        1 0M2     -0.131100
     22 O22        -4.4720    0.7790    0.7660 oh        1 0M2     -0.609800
     23 H1         -2.2580    1.0570    0.3260 h1        1 0M2      0.063200
     24 H2         -1.9460    0.9150   -1.4670 h1        1 0M2      0.063200
     25 H3         -0.9040   -2.4240   -1.2500 h1        1 0M2      0.063200
     26 H4         -1.1310   -2.4970    0.5600 h1        1 0M2      0.063200
     27 H5         -1.0770    2.7660    0.7130 ha        1 0M2      0.136500
     28 H7          0.7980   -3.1880    1.0720 ha        1 0M2      0.136500
     29 H8          3.3970    0.7550   -1.5620 hn        1 0M2      0.236700
     30 H9          3.6950    2.8830   -0.7210 ha        1 0M2      0.130000
     31 H10         0.2290    4.8690    0.8960 ha        1 0M2      0.134000
     32 H11        -3.4930   -2.3460    0.3420 h1        1 0M2      0.044700
     33 H12        -2.9920   -1.0230    1.4970 h1        1 0M2      0.044700
     34 H13         4.8260   -0.7150   -0.5070 ha        1 0M2      0.130000
     35 H14         3.0630   -4.1340    1.4340 ha        1 0M2      0.134000
     36 H15         2.6190    4.9210    0.1670 ha        1 0M2      0.132500
     37 H16        -4.7190   -0.3330   -0.9810 h1        1 0M2      0.052700
     38 H17         5.0770   -2.8910    0.6320 ha        1 0M2      0.132500
     39 H18        -6.7140   -0.6810    0.5260 hc        1 0M2      0.043700
     40 H19        -5.8690   -2.2420    0.1560 hc        1 0M2      0.043700
     41 H20        -5.6440   -1.4440    1.7730 hc        1 0M2      0.043700
     42 H21        -5.3050    1.2420    0.6220 ho        1 0M2      0.400000
@<TRIPOS>BOND
     1    1    2 2   
     2    1    3 1   
     3    1    4 1   
     4    2    5 1   
     5    2    6 1   
     6    3    7 ar  
     7    3    8 ar  
     8    4    9 1   
     9    4   23 1   
    10    4   24 1   
    11    5   10 ar  
    12    5   11 ar  
    13    6    9 1   
    14    6   25 1   
    15    6   26 1   
    16    7   12 1   
    17    7   13 ar  
    18    8   14 ar  
    19    8   27 1   
    20    9   15 1   
    21   10   12 1   
    22   10   16 ar  
    23   11   17 ar  
    24   11   28 1   
    25   12   29 1   
    26   13   18 ar  
    27   13   30 1   
    28   14   18 ar  
    29   14   31 1   
    30   15   19 1   
    31   15   32 1   
    32   15   33 1   
    33   16   20 ar  
    34   16   34 1   
    35   17   20 ar  
    36   17   35 1   
    37   18   36 1   
    38   19   21 1   
    39   19   22 1   
    40   19   37 1   
    41   20   38 1   
    42   21   39 1   
    43   21   40 1   
    44   21   41 1   
    45   22   42 1   
@<TRIPOS>SUBSTRUCTURE
     1 0M2         1 TEMP              0 ****  ****    0 ROOT
