@<TRIPOS>MOLECULE
0M2
   42    37     1     0     0
SMALL
bcc


@<TRIPOS>ATOM
      1 C1         -0.7000    0.2740   -0.0020 c1        1 0M2     -0.074000
      2 C2          0.7250    0.1840    0.0410 c1        1 0M2     -0.075000
      3 C3         -1.5150    0.3610    1.3170 c2        1 0M2     -0.029000
      4 C4         -1.2120    0.4340   -1.2370 c2        1 0M2     -0.047500
      5 C5          1.4710    0.1710    1.4210 c1        1 0M2     -0.028000
      6 C6          1.2780   -0.2720   -1.0680 c2        1 0M2     -0.047500
      7 C7         -1.1610    1.4910    2.0480 c1        1 0M2      0.055000
      8 C8         -2.7440   -0.2600    1.5430 c1        1 0M2     -0.102000
      9 N9          0.0490   -0.0420   -2.1390 n3        1 0M2     -0.246000
     10 C10         1.1990    1.3230    2.1470 c1        1 0M2      0.055000
     11 C11         2.5240   -0.6890    1.8240 c1        1 0M2     -0.125750
     12 N12         0.0940    2.0350    1.5860 n1        1 0M2     -0.223000
     13 C13        -2.0370    2.0040    3.0090 c1        1 0M2     -0.178000
     14 C14        -3.6160    0.2510    2.4980 c1        1 0M2     -0.125750
     15 C15        -0.2680   -1.2930   -2.7900 c3        1 0M2     -0.073000
     16 C16         1.9720    1.6380    3.2870 c2        1 0M2     -0.178000
     17 C17         3.2870   -0.3770    2.9520 c1        1 0M2     -0.125750
     18 C18        -3.2620    1.3850    3.2330 c1        1 0M2     -0.125750
     19 C19         0.0580   -1.1830   -4.3050 c3        1 0M2      0.028000
     20 C20         3.0130    0.7870    3.6850 c1        1 0M2     -0.103000
     21 C21         0.8830   -2.3390   -4.7180 c3        1 0M2     -0.249000
     22 O22        -1.1510   -1.1710   -5.0510 oh        1 0M2     -0.336000
     23 H1         -2.1250    0.0620   -1.3530 h4        1 0M2      0.097250
     24 H2         -1.3650    1.3740   -1.4430 h4        1 0M2      0.097250
     25 H3          1.6340   -1.1730   -1.1390 h4        1 0M2      0.097250
     26 H4          2.0650    0.2640   -1.2460 h4        1 0M2      0.097250
     27 H5         -2.9930   -1.0550    1.0280 ha        1 0M2      0.135000
     28 H7          2.7200   -1.5190    1.3010 ha        1 0M2      0.134500
     29 H8          0.1510    2.9540    1.8340 hn        1 0M2      0.188000
     30 H9         -1.7840    2.8140    3.5340 ha        1 0M2      0.131000
     31 H10        -4.4600   -0.1760    2.6530 ha        1 0M2      0.134500
     32 H11         0.2660   -2.0120   -2.3930 h1        1 0M2      0.087500
     33 H12        -1.2540   -1.4970   -2.6680 h1        1 0M2      0.087500
     34 H13         1.7820    2.4390    3.7940 ha        1 0M2      0.131000
     35 H14         4.0200   -0.9760    3.2320 ha        1 0M2      0.134500
     36 H15        -3.8810    1.7470    3.9090 ha        1 0M2      0.134500
     37 H16         0.5700   -0.3260   -4.4800 h1        1 0M2      0.090000
     38 H17         3.5580    1.0090    4.4910 ha        1 0M2      0.134000
     39 H18         1.5020   -2.5640   -4.0100 hc        1 0M2      0.082000
     40 H19         1.3880   -2.1070   -5.5370 hc        1 0M2      0.082000
     41 H20         0.3030   -3.1060   -4.8980 hc        1 0M2      0.082000
     42 H21        -0.9850   -0.8640   -5.8920 ho        1 0M2      0.200000
@<TRIPOS>BOND
     1    1    2 1   
     2    1    3 1   
     3    2    5 1   
     4    3    7 1   
     5    3    8 1   
     6    4    9 1   
     7    4   23 1   
     8    4   24 1   
     9    5   10 1   
    10    6    9 1   
    11    6   25 1   
    12    6   26 1   
    13    7   13 1   
    14    8   27 1   
    15    9   15 1   
    16   10   16 1   
    17   11   17 1   
    18   11   28 1   
    19   12   29 1   
    20   13   30 1   
    21   14   18 1   
    22   14   31 1   
    23   15   19 1   
    24   15   32 1   
    25   15   33 1   
    26   16   20 1   
    27   16   34 1   
    28   17   35 1   
    29   18   36 1   
    30   19   21 1   
    31   19   22 1   
    32   19   37 1   
    33   20   38 1   
    34   21   39 1   
    35   21   40 1   
    36   21   41 1   
    37   22   42 1   
@<TRIPOS>SUBSTRUCTURE
     1 0M2         1 TEMP              0 ****  ****    0 ROOT
