@<TRIPOS>MOLECULE
0M2
   42    45     1     0     0
SMALL
bcc


@<TRIPOS>ATOM
      1 C1         -0.0310   -0.2970    0.2870 cc        1 0M2     -0.082800
      2 C2          1.3270   -0.3420    0.2800 cd        1 0M2     -0.082800
      3 C3         -0.9190   -0.0120    1.3880 ca        1 0M2     -0.027000
      4 C4         -0.5550   -0.5970   -1.1070 c3        1 0M2      0.189600
      5 C5          2.2450   -0.1130    1.3690 ca        1 0M2     -0.027000
      6 C6          1.8130   -0.6810   -1.1190 c3        1 0M2      0.189600
      7 C7         -0.5230    0.8500    2.4450 ca        1 0M2      0.008800
      8 C8         -2.1980   -0.5850    1.4200 ca        1 0M2     -0.102000
      9 N9          0.6170   -0.8430   -1.9680 n3        1 0M2     -0.714600
     10 C10         1.9180    0.7730    2.4300 ca        1 0M2      0.008800
     11 C11         3.4870   -0.7640    1.3870 ca        1 0M2     -0.102000
     12 N12         0.7200    1.5350    2.4130 na        1 0M2     -0.181300
     13 C13        -1.4340    1.1030    3.4950 ca        1 0M2     -0.179000
     14 C14        -3.0830   -0.3220    2.4610 ca        1 0M2     -0.149500
     15 C15         0.5920   -2.1210   -2.6600 c3        1 0M2      0.164800
     16 C16         2.8560    0.9690    3.4680 ca        1 0M2     -0.179000
     17 C17         4.4000   -0.5550    2.4150 ca        1 0M2     -0.149500
     18 C18        -2.7000    0.5280    3.4960 ca        1 0M2     -0.104500
     19 C19        -0.5460   -2.2370   -3.6930 c3        1 0M2      0.136100
     20 C20         4.0830    0.3170    3.4540 ca        1 0M2     -0.104500
     21 C21        -0.1720   -3.2380   -4.7710 c3        1 0M2     -0.131100
     22 O22        -1.6940   -2.6770   -2.9740 oh        1 0M2     -0.609800
     23 H1         -1.2700   -1.4650   -1.0970 h1        1 0M2      0.063200
     24 H2         -1.0910    0.3040   -1.5150 h1        1 0M2      0.063200
     25 H3          2.4110    0.1740   -1.5380 h1        1 0M2      0.063200
     26 H4          2.4630   -1.5980   -1.1040 h1        1 0M2      0.063200
     27 H5         -2.5060   -1.2580    0.6050 ha        1 0M2      0.136500
     28 H7          3.7440   -1.4550    0.5690 ha        1 0M2      0.136500
     29 H8          0.7470    2.2620    3.1070 hn        1 0M2      0.236700
     30 H9         -1.1510    1.7710    4.3240 ha        1 0M2      0.130000
     31 H10        -4.0810   -0.7820    2.4630 ha        1 0M2      0.134000
     32 H11         0.5040   -2.9980   -1.9540 h1        1 0M2      0.044700
     33 H12         1.5670   -2.2150   -3.2160 h1        1 0M2      0.044700
     34 H13         2.6250    1.6540    4.2990 ha        1 0M2      0.130000
     35 H14         5.3680   -1.0770    2.4050 ha        1 0M2      0.134000
     36 H15        -3.3960    0.7450    4.3190 ha        1 0M2      0.132500
     37 H16        -0.7680   -1.2380   -4.1640 h1        1 0M2      0.052700
     38 H17         4.8030    0.4900    4.2680 ha        1 0M2      0.132500
     39 H18        -1.0240   -3.3770   -5.4790 hc        1 0M2      0.043700
     40 H19         0.0730   -4.2280   -4.3160 hc        1 0M2      0.043700
     41 H20         0.7130   -2.8740   -5.3450 hc        1 0M2      0.043700
     42 H21        -2.4010   -2.7950   -3.6190 ho        1 0M2      0.400000
@<TRIPOS>BOND
     1    1    2 2   
     2    1    3 1   
     3    1    4 1   
     4    2    5 1   
     5    2    6 1   
     6    3    7 ar  
     7    3    8 ar  
     8    4    9 1   
     9    4   23 1   
    10    4   24 1   
    11    5   10 ar  
    12    5   11 ar  
    13    6    9 1   
    14    6   25 1   
    15    6   26 1   
    16    7   12 1   
    17    7   13 ar  
    18    8   14 ar  
    19    8   27 1   
    20    9   15 1   
    21   10   12 1   
    22   10   16 ar  
    23   11   17 ar  
    24   11   28 1   
    25   12   29 1   
    26   13   18 ar  
    27   13   30 1   
    28   14   18 ar  
    29   14   31 1   
    30   15   19 1   
    31   15   32 1   
    32   15   33 1   
    33   16   20 ar  
    34   16   34 1   
    35   17   20 ar  
    36   17   35 1   
    37   18   36 1   
    38   19   21 1   
    39   19   22 1   
    40   19   37 1   
    41   20   38 1   
    42   21   39 1   
    43   21   40 1   
    44   21   41 1   
    45   22   42 1   
@<TRIPOS>SUBSTRUCTURE
     1 0M2         1 TEMP              0 ****  ****    0 ROOT
