@<TRIPOS>MOLECULE
0M2
   42    45     1     0     0
SMALL
bcc


@<TRIPOS>ATOM
      1 C1         -0.0320   -0.2980    0.2870 cc        1 0M2     -0.082800
      2 C2          1.3260   -0.3380    0.2780 cd        1 0M2     -0.082800
      3 C3         -0.9200   -0.0160    1.3890 ca        1 0M2     -0.027000
      4 C4         -0.5570   -0.6020   -1.1050 c3        1 0M2      0.189600
      5 C5          2.2450   -0.1030    1.3660 ca        1 0M2     -0.027000
      6 C6          1.8110   -0.6760   -1.1210 c3        1 0M2      0.189600
      7 C7         -0.5270    0.8490    2.4440 ca        1 0M2      0.008800
      8 C8         -2.1970   -0.5950    1.4240 ca        1 0M2     -0.102000
      9 N9          0.6140   -0.8450   -1.9690 n3        1 0M2     -0.714600
     10 C10         1.9150    0.7820    2.4260 ca        1 0M2      0.008800
     11 C11         3.4890   -0.7490    1.3830 ca        1 0M2     -0.102000
     12 N12         0.7140    1.5390    2.4100 na        1 0M2     -0.181300
     13 C13        -1.4370    1.0990    3.4960 ca        1 0M2     -0.179000
     14 C14        -3.0810   -0.3340    2.4650 ca        1 0M2     -0.149500
     15 C15         0.5940   -2.1240   -2.6580 c3        1 0M2      0.164800
     16 C16         2.8540    0.9840    3.4630 ca        1 0M2     -0.179000
     17 C17         4.4030   -0.5350    2.4090 ca        1 0M2     -0.149500
     18 C18        -2.7000    0.5190    3.4990 ca        1 0M2     -0.104500
     19 C19        -0.5460   -2.2460   -3.6890 c3        1 0M2      0.136100
     20 C20         4.0840    0.3370    3.4470 ca        1 0M2     -0.104500
     21 C21        -0.1690   -3.2470   -4.7680 c3        1 0M2     -0.131100
     22 O22        -1.6900   -2.6920   -2.9670 oh        1 0M2     -0.609800
     23 H1         -1.2680   -1.4730   -1.0940 h1        1 0M2      0.063200
     24 H2         -1.0970    0.2960   -1.5140 h1        1 0M2      0.063200
     25 H3          2.4050    0.1810   -1.5420 h1        1 0M2      0.063200
     26 H4          2.4650   -1.5900   -1.1060 h1        1 0M2      0.063200
     27 H5         -2.5030   -1.2700    0.6090 ha        1 0M2      0.136500
     28 H7          3.7470   -1.4400    0.5660 ha        1 0M2      0.136500
     29 H8          0.7390    2.2670    3.1030 hn        1 0M2      0.236700
     30 H9         -1.1550    1.7700    4.3230 ha        1 0M2      0.130000
     31 H10        -4.0770   -0.7990    2.4700 ha        1 0M2      0.134000
     32 H11         0.5110   -3.0000   -1.9510 h1        1 0M2      0.044700
     33 H12         1.5690   -2.2130   -3.2170 h1        1 0M2      0.044700
     34 H13         2.6210    1.6690    4.2930 ha        1 0M2      0.130000
     35 H14         5.3730   -1.0520    2.3990 ha        1 0M2      0.134000
     36 H15        -3.3970    0.7330    4.3230 ha        1 0M2      0.132500
     37 H16        -0.7730   -1.2480   -4.1600 h1        1 0M2      0.052700
     38 H17         4.8030    0.5150    4.2610 ha        1 0M2      0.132500
     39 H18        -1.0220   -3.3900   -5.4740 hc        1 0M2      0.043700
     40 H19         0.7130   -2.8770   -5.3430 hc        1 0M2      0.043700
     41 H20         0.0830   -4.2340   -4.3120 hc        1 0M2      0.043700
     42 H21        -2.3970   -2.8150   -3.6100 ho        1 0M2      0.400000
@<TRIPOS>BOND
     1    1    2 2   
     2    1    3 1   
     3    1    4 1   
     4    2    5 1   
     5    2    6 1   
     6    3    7 ar  
     7    3    8 ar  
     8    4    9 1   
     9    4   23 1   
    10    4   24 1   
    11    5   10 ar  
    12    5   11 ar  
    13    6    9 1   
    14    6   25 1   
    15    6   26 1   
    16    7   12 1   
    17    7   13 ar  
    18    8   14 ar  
    19    8   27 1   
    20    9   15 1   
    21   10   12 1   
    22   10   16 ar  
    23   11   17 ar  
    24   11   28 1   
    25   12   29 1   
    26   13   18 ar  
    27   13   30 1   
    28   14   18 ar  
    29   14   31 1   
    30   15   19 1   
    31   15   32 1   
    32   15   33 1   
    33   16   20 ar  
    34   16   34 1   
    35   17   20 ar  
    36   17   35 1   
    37   18   36 1   
    38   19   21 1   
    39   19   22 1   
    40   19   37 1   
    41   20   38 1   
    42   21   39 1   
    43   21   40 1   
    44   21   41 1   
    45   22   42 1   
@<TRIPOS>SUBSTRUCTURE
     1 0M2         1 TEMP              0 ****  ****    0 ROOT
