@<TRIPOS>MOLECULE
0M2
   42    45     1     0     0
SMALL
bcc


@<TRIPOS>ATOM
      1 C1         -0.0280   -0.2920    0.2820 cc        1 0M2     -0.082800
      2 C2          1.3290   -0.3430    0.2770 cd        1 0M2     -0.082800
      3 C3         -0.9170    0.0010    1.3810 ca        1 0M2     -0.027000
      4 C4         -0.5520   -0.5970   -1.1110 c3        1 0M2      0.189600
      5 C5          2.2470   -0.1120    1.3670 ca        1 0M2     -0.027000
      6 C6          1.8170   -0.6900   -1.1190 c3        1 0M2      0.189600
      7 C7         -0.5200    0.8660    2.4340 ca        1 0M2      0.008800
      8 C8         -2.1990   -0.5680    1.4130 ca        1 0M2     -0.102000
      9 N9          0.6210   -0.8520   -1.9700 n3        1 0M2     -0.714600
     10 C10         1.9210    0.7800    2.4230 ca        1 0M2      0.008800
     11 C11         3.4860   -0.7680    1.3900 ca        1 0M2     -0.102000
     12 N12         0.7260    1.5460    2.4010 na        1 0M2     -0.181300
     13 C13        -1.4320    1.1280    3.4820 ca        1 0M2     -0.179000
     14 C14        -3.0840   -0.2960    2.4500 ca        1 0M2     -0.149500
     15 C15         0.5920   -2.1330   -2.6550 c3        1 0M2      0.164800
     16 C16         2.8580    0.9770    3.4620 ca        1 0M2     -0.179000
     17 C17         4.3980   -0.5580    2.4190 ca        1 0M2     -0.149500
     18 C18        -2.6990    0.5570    3.4820 ca        1 0M2     -0.104500
     19 C19        -0.5460   -2.2500   -3.6890 c3        1 0M2      0.136100
     20 C20         4.0830    0.3200    3.4530 ca        1 0M2     -0.104500
     21 C21        -0.1730   -3.2560   -4.7630 c3        1 0M2     -0.131100
     22 O22        -1.6950   -2.6850   -2.9680 oh        1 0M2     -0.609800
     23 H1         -1.2700   -1.4620   -1.0990 h1        1 0M2      0.063200
     24 H2         -1.0830    0.3040   -1.5240 h1        1 0M2      0.063200
     25 H3          2.4180    0.1610   -1.5410 h1        1 0M2      0.063200
     26 H4          2.4630   -1.6090   -1.0990 h1        1 0M2      0.063200
     27 H5         -2.5080   -1.2430    0.6000 ha        1 0M2      0.136500
     28 H7          3.7410   -1.4640    0.5760 ha        1 0M2      0.136500
     29 H8          0.7550    2.2760    3.0910 hn        1 0M2      0.236700
     30 H9         -1.1470    1.7980    4.3070 ha        1 0M2      0.130000
     31 H10        -4.0840   -0.7530    2.4540 ha        1 0M2      0.134000
     32 H11         0.5010   -3.0060   -1.9450 h1        1 0M2      0.044700
     33 H12         1.5670   -2.2320   -3.2110 h1        1 0M2      0.044700
     34 H13         2.6280    1.6670    4.2900 ha        1 0M2      0.130000
     35 H14         5.3640   -1.0830    2.4140 ha        1 0M2      0.134000
     36 H15        -3.3970    0.7800    4.3040 ha        1 0M2      0.132500
     37 H16        -0.7640   -1.2520   -4.1630 h1        1 0M2      0.052700
     38 H17         4.8010    0.4950    4.2680 ha        1 0M2      0.132500
     39 H18         0.0690   -4.2440   -4.3040 hc        1 0M2      0.043700
     40 H19        -1.0250   -3.3950   -5.4710 hc        1 0M2      0.043700
     41 H20         0.7130   -2.8950   -5.3370 hc        1 0M2      0.043700
     42 H21        -2.4010   -2.8040   -3.6140 ho        1 0M2      0.400000
@<TRIPOS>BOND
     1    1    2 2   
     2    1    3 1   
     3    1    4 1   
     4    2    5 1   
     5    2    6 1   
     6    3    7 ar  
     7    3    8 ar  
     8    4    9 1   
     9    4   23 1   
    10    4   24 1   
    11    5   10 ar  
    12    5   11 ar  
    13    6    9 1   
    14    6   25 1   
    15    6   26 1   
    16    7   12 1   
    17    7   13 ar  
    18    8   14 ar  
    19    8   27 1   
    20    9   15 1   
    21   10   12 1   
    22   10   16 ar  
    23   11   17 ar  
    24   11   28 1   
    25   12   29 1   
    26   13   18 ar  
    27   13   30 1   
    28   14   18 ar  
    29   14   31 1   
    30   15   19 1   
    31   15   32 1   
    32   15   33 1   
    33   16   20 ar  
    34   16   34 1   
    35   17   20 ar  
    36   17   35 1   
    37   18   36 1   
    38   19   21 1   
    39   19   22 1   
    40   19   37 1   
    41   20   38 1   
    42   21   39 1   
    43   21   40 1   
    44   21   41 1   
    45   22   42 1   
@<TRIPOS>SUBSTRUCTURE
     1 0M2         1 TEMP              0 ****  ****    0 ROOT
