@<TRIPOS>MOLECULE
0M3
   67    69     1     0     0
SMALL
bcc


@<TRIPOS>ATOM
      1 C1          2.0370    3.7350    2.4300 c3        1 0M3     -0.108800
      2 C2          2.7930    2.8250    1.5510 ca        1 0M3      0.117700
      3 C3          4.0350    2.2970    1.9610 ca        1 0M3     -0.164500
      4 C4          4.7540    1.4670    1.1280 ca        1 0M3      0.035500
      5 C5          4.2790    1.1100   -0.1660 ca        1 0M3     -0.644500
      6 C6          3.0200    1.6510   -0.5550 ca        1 0M3      0.035500
      7 C7          2.2990    2.4810    0.2760 ca        1 0M3     -0.164500
      8 S8          5.1220    0.2380   -1.1290 s4        1 0M3      1.684300
      9 O9          4.6730    0.0650   -2.4000 o         1 0M3     -0.439900
     10 O10         6.3820   -0.1040   -0.7480 o         1 0M3     -0.439900
     11 N11         4.2470   -1.8820   -0.4600 n8        1 0M3     -0.994800
     12 C12         4.8000   -2.9500   -1.2990 c3        1 0M3      0.133500
     13 C13         6.2410   -3.3360   -0.8540 c3        1 0M3      0.149800
     14 N14         6.7960   -4.3340   -1.7400 n7        1 0M3     -0.824200
     15 C15         6.0260   -5.5540   -1.8040 c3        1 0M3      0.168800
     16 C16         4.5800   -5.2550   -2.2550 c3        1 0M3     -0.135700
     17 C17         3.9400   -4.2230   -1.3310 c3        1 0M3     -0.103400
     18 C18         3.7590   -6.5220   -2.2370 c         1 0M3      0.541100
     19 O19         2.8170   -6.7820   -1.5040 o         1 0M3     -0.400100
     20 N20         4.1250   -7.5750   -3.2500 ny        1 0M3     -0.678800
     21 C21         4.7550   -8.7710   -2.6030 c3        1 0M3      0.107800
     22 C22         5.0740   -9.8810   -3.6230 c3        1 0M3      0.035900
     23 C23         5.5630  -11.0700   -2.8540 ca        1 0M3     -0.138300
     24 C24         6.9250  -11.3930   -2.8900 ca        1 0M3     -0.128750
     25 C25         7.4010  -12.5020   -2.1940 ca        1 0M3     -0.113250
     26 C26         6.5210  -13.2970   -1.4570 ca        1 0M3     -0.097500
     27 C27         5.1630  -12.9800   -1.4210 ca        1 0M3     -0.113250
     28 C28         4.6840  -11.8720   -2.1180 ca        1 0M3     -0.128750
     29 C29         3.9070  -10.1810   -4.5110 ca        1 0M3     -0.138300
     30 C30         2.5880  -10.1880   -4.0370 ca        1 0M3     -0.128750
     31 C31         1.5330  -10.4970   -4.8940 ca        1 0M3     -0.113250
     32 C32         1.7830  -10.8070   -6.2310 ca        1 0M3     -0.097500
     33 C33         3.0940  -10.8090   -6.7080 ca        1 0M3     -0.113250
     34 C34         4.1520  -10.4970   -5.8540 ca        1 0M3     -0.128750
     35 H1          0.9360    3.6670    2.2400 hc        1 0M3      0.093367
     36 H2          2.3570    4.7940    2.2300 hc        1 0M3      0.093367
     37 H3          2.2320    3.5160    3.5110 hc        1 0M3      0.093367
     38 H4          4.4330    2.5610    2.9580 ha        1 0M3      0.185000
     39 H5          5.7360    1.0760    1.4610 ha        1 0M3      0.170500
     40 H6          2.6240    1.4050   -1.5600 ha        1 0M3      0.170500
     41 H7          1.3290    2.8900   -0.0570 ha        1 0M3      0.185000
     42 H8          3.2450   -1.8570   -0.5640 hn        1 0M3      0.398800
     43 H9          4.8440   -2.5270   -2.3510 h1        1 0M3      0.103700
     44 H10         6.2020   -3.6840    0.2200 h1        1 0M3      0.068200
     45 H11         6.9100   -2.4280   -0.9070 h1        1 0M3      0.068200
     46 H12         7.7590   -4.5180   -1.5270 hn        1 0M3      0.419800
     47 H14         6.5280   -6.2270   -2.5550 h1        1 0M3      0.050700
     48 H15         5.9790   -6.1010   -0.8150 h1        1 0M3      0.050700
     49 H16         4.5940   -4.8430   -3.3070 hc        1 0M3      0.114700
     50 H17         2.9060   -3.9870   -1.6980 hc        1 0M3      0.077700
     51 H18         3.8440   -4.6540   -0.2990 hc        1 0M3      0.077700
     52 H19         4.7670   -7.1890   -3.9490 hn        1 0M3      0.469800
     53 H20         4.0380   -9.1580   -1.8210 hx        1 0M3      0.110200
     54 H21         5.7050   -8.4350   -2.0990 hx        1 0M3      0.110200
     55 H22         5.9220   -9.5120   -4.2770 hc        1 0M3      0.070700
     56 H23         7.6260  -10.7830   -3.4810 ha        1 0M3      0.133750
     57 H24         8.4720  -12.7570   -2.2330 ha        1 0M3      0.155750
     58 H25         6.8970  -14.1770   -0.9120 ha        1 0M3      0.159500
     59 H26         4.4640  -13.6120   -0.8500 ha        1 0M3      0.155750
     60 H27         3.6070  -11.6450   -2.1060 ha        1 0M3      0.133750
     61 H28         2.3730  -10.0010   -2.9730 ha        1 0M3      0.133750
     62 H29         0.5010  -10.5150   -4.5090 ha        1 0M3      0.155750
     63 H30         0.9490  -11.0630   -6.9040 ha        1 0M3      0.159500
     64 H31         3.2990  -11.0710   -7.7590 ha        1 0M3      0.155750
     65 H32         5.1850  -10.5240   -6.2360 ha        1 0M3      0.133750
     66 H112        4.4620   -2.0500    0.5090 hn        1 0M3      0.398800
     67 H202        3.2710   -7.9020   -3.7390 hn        1 0M3      0.469800
@<TRIPOS>BOND
     1    1    2 1   
     2    1   35 1   
     3    1   36 1   
     4    1   37 1   
     5    2    3 ar  
     6    2    7 ar  
     7    3    4 ar  
     8    3   38 1   
     9    4    5 ar  
    10    4   39 1   
    11    5    6 ar  
    12    5    8 1   
    13    6    7 ar  
    14    6   40 1   
    15    7   41 1   
    16    8    9 1   
    17    8   10 1   
    18   11   12 1   
    19   11   42 1   
    20   11   66 1   
    21   12   13 1   
    22   12   17 1   
    23   12   43 1   
    24   13   14 1   
    25   13   44 1   
    26   13   45 1   
    27   14   15 1   
    28   14   46 1   
    29   15   16 1   
    30   15   47 1   
    31   15   48 1   
    32   16   17 1   
    33   16   18 1   
    34   16   49 1   
    35   17   50 1   
    36   17   51 1   
    37   18   19 2   
    38   18   20 1   
    39   20   21 1   
    40   20   52 1   
    41   20   67 1   
    42   21   22 1   
    43   21   53 1   
    44   21   54 1   
    45   22   23 1   
    46   22   29 1   
    47   22   55 1   
    48   23   24 ar  
    49   23   28 ar  
    50   24   25 ar  
    51   24   56 1   
    52   25   26 ar  
    53   25   57 1   
    54   26   27 ar  
    55   26   58 1   
    56   27   28 ar  
    57   27   59 1   
    58   28   60 1   
    59   29   30 ar  
    60   29   34 ar  
    61   30   31 ar  
    62   30   61 1   
    63   31   32 ar  
    64   31   62 1   
    65   32   33 ar  
    66   32   63 1   
    67   33   34 ar  
    68   33   64 1   
    69   34   65 1   
@<TRIPOS>SUBSTRUCTURE
     1 0M3         1 TEMP              0 ****  ****    0 ROOT
