@<TRIPOS>MOLECULE
0M3
   67    69     1     0     0
SMALL
bcc


@<TRIPOS>ATOM
      1 C1          1.9520    3.7230    2.4030 c3        1 0M3     -0.108800
      2 C2          2.7230    2.8170    1.5330 ca        1 0M3      0.117700
      3 C3          3.9610    2.2930    1.9580 ca        1 0M3     -0.164500
      4 C4          4.6940    1.4660    1.1330 ca        1 0M3      0.035500
      5 C5          4.2350    1.1070   -0.1660 ca        1 0M3     -0.644500
      6 C6          2.9790    1.6430   -0.5700 ca        1 0M3      0.035500
      7 C7          2.2450    2.4700    0.2530 ca        1 0M3     -0.164500
      8 S8          5.0930    0.2380   -1.1180 s4        1 0M3      1.684300
      9 O9          4.6600    0.0640   -2.3950 o         1 0M3     -0.439900
     10 O10         6.3490   -0.0990   -0.7230 o         1 0M3     -0.439900
     11 N11         4.2190   -1.8850   -0.4590 n3        1 0M3     -0.994800
     12 C12         4.7850   -2.9510   -1.2920 c3        1 0M3      0.133500
     13 C13         6.2230   -3.3310   -0.8320 c3        1 0M3      0.149800
     14 N14         6.7910   -4.3270   -1.7120 n3        1 0M3     -0.824200
     15 C15         6.0260   -5.5500   -1.7840 c3        1 0M3      0.168800
     16 C16         4.5840   -5.2560   -2.2510 c3        1 0M3     -0.135700
     17 C17         3.9300   -4.2280   -1.3340 c3        1 0M3     -0.103400
     18 C18         3.7680   -6.5270   -2.2430 c         1 0M3      0.541100
     19 O19         2.8190   -6.7900   -1.5200 o         1 0M3     -0.400100
     20 N20         4.1480   -7.5770   -3.2520 n4        1 0M3     -0.678800
     21 C21         4.7760   -8.7720   -2.5980 c3        1 0M3      0.107800
     22 C22         5.1090   -9.8800   -3.6150 c3        1 0M3      0.035900
     23 C23         5.5940  -11.0680   -2.8430 ca        1 0M3     -0.138300
     24 C24         6.9590  -11.3860   -2.8650 ca        1 0M3     -0.128750
     25 C25         7.4310  -12.4940   -2.1640 ca        1 0M3     -0.113000
     26 C26         6.5460  -13.2920   -1.4360 ca        1 0M3     -0.097500
     27 C27         5.1860  -12.9800   -1.4140 ca        1 0M3     -0.113000
     28 C28         4.7110  -11.8730   -2.1150 ca        1 0M3     -0.128750
     29 C29         3.9530  -10.1840   -4.5160 ca        1 0M3     -0.138300
     30 C30         2.6300  -10.1950   -4.0560 ca        1 0M3     -0.128750
     31 C31         1.5850  -10.5080   -4.9240 ca        1 0M3     -0.113000
     32 C32         1.8500  -10.8160   -6.2590 ca        1 0M3     -0.097500
     33 C33         3.1660  -10.8140   -6.7220 ca        1 0M3     -0.113000
     34 C34         4.2130  -10.4980   -5.8570 ca        1 0M3     -0.128750
     35 H1          2.1350    3.5060    3.4860 hc        1 0M3      0.093367
     36 H2          0.8540    3.6510    2.2000 hc        1 0M3      0.093367
     37 H3          2.2700    4.7840    2.2060 hc        1 0M3      0.093367
     38 H4          4.3470    2.5590    2.9590 ha        1 0M3      0.185000
     39 H5          5.6730    1.0790    1.4780 ha        1 0M3      0.170500
     40 H6          2.5960    1.3950   -1.5800 ha        1 0M3      0.170500
     41 H7          1.2770    2.8760   -0.0920 ha        1 0M3      0.185000
     42 H8          3.2180   -1.8630   -0.5740 hn        1 0M3      0.398800
     43 H9          4.8390   -2.5280   -2.3440 h1        1 0M3      0.103700
     44 H10         6.8890   -2.4210   -0.8780 h1        1 0M3      0.068200
     45 H11         6.1730   -3.6790    0.2420 h1        1 0M3      0.068200
     46 H12         7.7520   -4.5070   -1.4890 hn        1 0M3      0.419800
     47 H14         6.5380   -6.2210   -2.5300 h1        1 0M3      0.051200
     48 H15         5.9700   -6.0970   -0.7970 h1        1 0M3      0.051200
     49 H16         4.6080   -4.8440   -3.3030 hc        1 0M3      0.114700
     50 H17         2.8990   -3.9950   -1.7130 hc        1 0M3      0.077700
     51 H18         3.8250   -4.6580   -0.3030 hc        1 0M3      0.077700
     52 H19         3.3000   -7.9080   -3.7490 hn        1 0M3      0.469800
     53 H20         5.7190   -8.4330   -2.0840 hx        1 0M3      0.110200
     54 H21         4.0520   -9.1620   -1.8250 hx        1 0M3      0.110200
     55 H22         5.9630   -9.5080   -4.2600 hc        1 0M3      0.070700
     56 H23         7.6630  -10.7730   -3.4480 ha        1 0M3      0.133750
     57 H24         8.5030  -12.7450   -2.1920 ha        1 0M3      0.155750
     58 H25         6.9200  -14.1710   -0.8880 ha        1 0M3      0.159500
     59 H26         4.4840  -13.6140   -0.8500 ha        1 0M3      0.155750
     60 H27         3.6330  -11.6490   -2.1150 ha        1 0M3      0.133750
     61 H28         2.4020  -10.0100   -2.9940 ha        1 0M3      0.133750
     62 H29         0.5490  -10.5300   -4.5500 ha        1 0M3      0.155750
     63 H30         1.0240  -11.0750   -6.9410 ha        1 0M3      0.159500
     64 H31         3.3820  -11.0740   -7.7710 ha        1 0M3      0.155750
     65 H32         5.2500  -10.5210   -6.2280 ha        1 0M3      0.133750
     66 H112        4.4240   -2.0530    0.5120 hn        1 0M3      0.398800
     67 H202        4.7960   -7.1890   -3.9440 hn        1 0M3      0.469800
@<TRIPOS>BOND
     1    1    2 1   
     2    1   35 1   
     3    1   36 1   
     4    1   37 1   
     5    2    3 ar  
     6    2    7 ar  
     7    3    4 ar  
     8    3   38 1   
     9    4    5 ar  
    10    4   39 1   
    11    5    6 ar  
    12    5    8 1   
    13    6    7 ar  
    14    6   40 1   
    15    7   41 1   
    16    8    9 1   
    17    8   10 1   
    18   11   12 1   
    19   11   42 1   
    20   11   66 1   
    21   12   13 1   
    22   12   17 1   
    23   12   43 1   
    24   13   14 1   
    25   13   44 1   
    26   13   45 1   
    27   14   15 1   
    28   14   46 1   
    29   15   16 1   
    30   15   47 1   
    31   15   48 1   
    32   16   17 1   
    33   16   18 1   
    34   16   49 1   
    35   17   50 1   
    36   17   51 1   
    37   18   19 2   
    38   18   20 1   
    39   20   21 1   
    40   20   52 1   
    41   20   67 1   
    42   21   22 1   
    43   21   53 1   
    44   21   54 1   
    45   22   23 1   
    46   22   29 1   
    47   22   55 1   
    48   23   24 ar  
    49   23   28 ar  
    50   24   25 ar  
    51   24   56 1   
    52   25   26 ar  
    53   25   57 1   
    54   26   27 ar  
    55   26   58 1   
    56   27   28 ar  
    57   27   59 1   
    58   28   60 1   
    59   29   30 ar  
    60   29   34 ar  
    61   30   31 ar  
    62   30   61 1   
    63   31   32 ar  
    64   31   62 1   
    65   32   33 ar  
    66   32   63 1   
    67   33   34 ar  
    68   33   64 1   
    69   34   65 1   
@<TRIPOS>SUBSTRUCTURE
     1 0M3         1 TEMP              0 ****  ****    0 ROOT
