@<TRIPOS>MOLECULE
0M3
   67    69     1     0     0
SMALL
bcc


@<TRIPOS>ATOM
      1 C1          2.0110    3.7130    2.4660 c3        1 0M3     -0.108800
      2 C2          2.7680    2.8100    1.5820 ca        1 0M3      0.117700
      3 C3          4.0120    2.2840    1.9870 ca        1 0M3     -0.164500
      4 C4          4.7330    1.4610    1.1490 ca        1 0M3      0.035500
      5 C5          4.2560    1.1070   -0.1460 ca        1 0M3     -0.644500
      6 C6          2.9940    1.6440   -0.5300 ca        1 0M3      0.035500
      7 C7          2.2720    2.4690    0.3070 ca        1 0M3     -0.164500
      8 S8          5.1000    0.2410   -1.1130 s4        1 0M3      1.684300
      9 O9          4.6490    0.0720   -2.3840 o         1 0M3     -0.439900
     10 O10         6.3620   -0.0980   -0.7360 o         1 0M3     -0.439900
     11 N11         4.2340   -1.8840   -0.4510 n3        1 0M3     -0.994800
     12 C12         4.7910   -2.9480   -1.2930 c3        1 0M3      0.133500
     13 C13         6.2340   -3.3290   -0.8500 c3        1 0M3      0.149800
     14 N14         6.7920   -4.3220   -1.7390 n3        1 0M3     -0.824200
     15 C15         6.0260   -5.5450   -1.8070 c3        1 0M3      0.168800
     16 C16         4.5800   -5.2500   -2.2570 c3        1 0M3     -0.135700
     17 C17         3.9350   -4.2240   -1.3300 c3        1 0M3     -0.103400
     18 C18         3.7630   -6.5200   -2.2440 c         1 0M3      0.541100
     19 O19         2.8210   -6.7850   -1.5130 o         1 0M3     -0.400100
     20 N20         4.1340   -7.5690   -3.2590 n4        1 0M3     -0.678800
     21 C21         4.7670   -8.7650   -2.6130 c3        1 0M3      0.107800
     22 C22         5.0930   -9.8700   -3.6360 c3        1 0M3      0.035900
     23 C23         5.5830  -11.0610   -2.8700 ca        1 0M3     -0.138300
     24 C24         6.9470  -11.3790   -2.9030 ca        1 0M3     -0.128750
     25 C25         7.4240  -12.4890   -2.2090 ca        1 0M3     -0.113000
     26 C26         6.5450  -13.2880   -1.4760 ca        1 0M3     -0.097500
     27 C27         5.1850  -12.9760   -1.4430 ca        1 0M3     -0.113000
     28 C28         4.7050  -11.8670   -2.1370 ca        1 0M3     -0.128750
     29 C29         3.9300  -10.1720   -4.5290 ca        1 0M3     -0.138300
     30 C30         2.6090  -10.1840   -4.0580 ca        1 0M3     -0.128750
     31 C31         1.5580  -10.4940   -4.9190 ca        1 0M3     -0.113000
     32 C32         1.8130  -10.7990   -6.2570 ca        1 0M3     -0.097500
     33 C33         3.1250  -10.7950   -6.7300 ca        1 0M3     -0.113000
     34 C34         4.1790  -10.4820   -5.8720 ca        1 0M3     -0.128750
     35 H1          2.3250    4.7750    2.2680 hc        1 0M3      0.093367
     36 H2          2.2090    3.4920    3.5450 hc        1 0M3      0.093367
     37 H3          0.9090    3.6420    2.2790 hc        1 0M3      0.093367
     38 H4          4.4120    2.5460    2.9830 ha        1 0M3      0.185000
     39 H5          5.7160    1.0720    1.4780 ha        1 0M3      0.170500
     40 H6          2.5970    1.4010   -1.5340 ha        1 0M3      0.170500
     41 H7          1.3000    2.8760   -0.0230 ha        1 0M3      0.185000
     42 H8          4.4500   -2.0550    0.5180 hn        1 0M3      0.398800
     43 H9          4.8330   -2.5210   -2.3440 h1        1 0M3      0.103700
     44 H10         6.1960   -3.6810    0.2230 h1        1 0M3      0.068200
     45 H11         6.8990   -2.4190   -0.9000 h1        1 0M3      0.068200
     46 H12         7.7560   -4.5030   -1.5270 hn        1 0M3      0.419800
     47 H14         6.5310   -6.2140   -2.5600 h1        1 0M3      0.050700
     48 H15         5.9810   -6.0950   -0.8200 h1        1 0M3      0.050700
     49 H16         4.5920   -4.8350   -3.3070 hc        1 0M3      0.114700
     50 H17         2.9010   -3.9900   -1.6960 hc        1 0M3      0.077700
     51 H18         3.8410   -4.6580   -0.2980 hc        1 0M3      0.077700
     52 H19         3.2820   -7.8980   -3.7500 hn        1 0M3      0.469800
     53 H20         4.0500   -9.1570   -1.8350 hx        1 0M3      0.110200
     54 H21         5.7140   -8.4270   -2.1060 hx        1 0M3      0.110200
     55 H22         5.9410   -9.4970   -4.2860 hc        1 0M3      0.070700
     56 H23         7.6470  -10.7650   -3.4900 ha        1 0M3      0.133750
     57 H24         8.4950  -12.7400   -2.2460 ha        1 0M3      0.155750
     58 H25         6.9220  -14.1690   -0.9320 ha        1 0M3      0.159500
     59 H26         4.4870  -13.6110   -0.8750 ha        1 0M3      0.155750
     60 H27         3.6270  -11.6430   -2.1280 ha        1 0M3      0.133750
     61 H28         2.3900  -10.0020   -2.9950 ha        1 0M3      0.133750
     62 H29         0.5250  -10.5170   -4.5370 ha        1 0M3      0.155750
     63 H30         0.9820  -11.0560   -6.9330 ha        1 0M3      0.159500
     64 H31         3.3340  -11.0530   -7.7820 ha        1 0M3      0.155750
     65 H32         5.2130  -10.5040   -6.2510 ha        1 0M3      0.133750
     66 H112        3.2320   -1.8630   -0.5540 hn        1 0M3      0.398800
     67 H202        4.7760   -7.1790   -3.9560 hn        1 0M3      0.469800
@<TRIPOS>BOND
     1    1    2 1   
     2    1   35 1   
     3    1   36 1   
     4    1   37 1   
     5    2    3 ar  
     6    2    7 ar  
     7    3    4 ar  
     8    3   38 1   
     9    4    5 ar  
    10    4   39 1   
    11    5    6 ar  
    12    5    8 1   
    13    6    7 ar  
    14    6   40 1   
    15    7   41 1   
    16    8    9 1   
    17    8   10 1   
    18   11   12 1   
    19   11   42 1   
    20   11   66 1   
    21   12   13 1   
    22   12   17 1   
    23   12   43 1   
    24   13   14 1   
    25   13   44 1   
    26   13   45 1   
    27   14   15 1   
    28   14   46 1   
    29   15   16 1   
    30   15   47 1   
    31   15   48 1   
    32   16   17 1   
    33   16   18 1   
    34   16   49 1   
    35   17   50 1   
    36   17   51 1   
    37   18   19 2   
    38   18   20 1   
    39   20   21 1   
    40   20   52 1   
    41   20   67 1   
    42   21   22 1   
    43   21   53 1   
    44   21   54 1   
    45   22   23 1   
    46   22   29 1   
    47   22   55 1   
    48   23   24 ar  
    49   23   28 ar  
    50   24   25 ar  
    51   24   56 1   
    52   25   26 ar  
    53   25   57 1   
    54   26   27 ar  
    55   26   58 1   
    56   27   28 ar  
    57   27   59 1   
    58   28   60 1   
    59   29   30 ar  
    60   29   34 ar  
    61   30   31 ar  
    62   30   61 1   
    63   31   32 ar  
    64   31   62 1   
    65   32   33 ar  
    66   32   63 1   
    67   33   34 ar  
    68   33   64 1   
    69   34   65 1   
@<TRIPOS>SUBSTRUCTURE
     1 0M3         1 TEMP              0 ****  ****    0 ROOT
