@<TRIPOS>MOLECULE
0M3
   65    68     1     0     0
SMALL
bcc


@<TRIPOS>ATOM
      1 C1         -5.7290    3.1340   -3.8710 c3        1 0M3     -0.068800
      2 C2         -5.6440    2.2270   -2.7050 ca        1 0M3     -0.006300
      3 C3         -6.1980    0.9420   -2.7620 ca        1 0M3     -0.160000
      4 C4         -6.0980    0.0870   -1.6690 ca        1 0M3     -0.011500
      5 C5         -5.4450    0.4870   -0.4970 ca        1 0M3     -0.394500
      6 C6         -4.9030    1.7770   -0.4450 ca        1 0M3     -0.011500
      7 C7         -4.9980    2.6400   -1.5320 ca        1 0M3     -0.160000
      8 S8         -5.3480   -0.5460    0.8300 sy        1 0M3      1.518200
      9 O9         -5.2280    0.2310    2.0050 o         1 0M3     -0.655800
     10 O10        -6.4280   -1.4530    0.7650 o         1 0M3     -0.655800
     11 N11        -3.9750   -1.3620    0.5680 n3        1 0M3     -0.909100
     12 C12        -2.7150   -1.0760    1.1980 c3        1 0M3      0.202500
     13 C13        -2.1780   -2.2960    2.0100 c3        1 0M3      0.139800
     14 N14        -0.9140   -2.0540    2.6700 n3        1 0M3     -0.793200
     15 C15         0.1050   -1.5460    1.7770 c3        1 0M3      0.154800
     16 C16        -0.3310   -0.3350    0.9330 c3        1 0M3     -0.172700
     17 C17        -1.6260   -0.6460    0.1990 c3        1 0M3     -0.088400
     18 C18         0.7680    0.0020   -0.0700 c         1 0M3      0.656100
     19 O19         0.6440   -0.2360   -1.2870 o         1 0M3     -0.601100
     20 N20         1.8930    0.6310    0.4330 n         1 0M3     -0.561900
     21 C21         3.0680    0.8590   -0.3600 c3        1 0M3      0.090000
     22 C22         4.2670   -0.0380    0.0270 c3        1 0M3     -0.003100
     23 C23         5.3840    0.1030   -0.9610 ca        1 0M3     -0.077300
     24 C24         6.1460   -1.0290   -1.2800 ca        1 0M3     -0.127750
     25 C25         7.1900   -0.9430   -2.1990 ca        1 0M3     -0.127250
     26 C26         7.4830    0.2740   -2.8140 ca        1 0M3     -0.128000
     27 C27         6.7290    1.4040   -2.5030 ca        1 0M3     -0.127250
     28 C28         5.6860    1.3210   -1.5810 ca        1 0M3     -0.127750
     29 C29         4.6960    0.2560    1.4320 ca        1 0M3     -0.077300
     30 C30         5.5660    1.3120    1.7270 ca        1 0M3     -0.127750
     31 C31         5.9330    1.5750    3.0460 ca        1 0M3     -0.127250
     32 C32         5.4340    0.7890    4.0830 ca        1 0M3     -0.128000
     33 C33         4.5650   -0.2640    3.7980 ca        1 0M3     -0.127250
     34 C34         4.1960   -0.5290    2.4800 ca        1 0M3     -0.127750
     35 H1         -5.7650    4.2030   -3.5460 hc        1 0M3      0.054033
     36 H2         -4.8290    2.9950   -4.5230 hc        1 0M3      0.054033
     37 H3         -6.6400    2.9180   -4.4820 hc        1 0M3      0.054033
     38 H4         -6.7180    0.6100   -3.6740 ha        1 0M3      0.141000
     39 H5         -6.5560   -0.9170   -1.7150 ha        1 0M3      0.151000
     40 H6         -4.4080    2.1160    0.4820 ha        1 0M3      0.151000
     41 H7         -4.5680    3.6510   -1.4710 ha        1 0M3      0.141000
     42 H8         -3.9330   -2.1220   -0.0680 hn        1 0M3      0.447800
     43 H9         -2.8860   -0.2220    1.9250 h1        1 0M3      0.071700
     44 H10        -2.9330   -2.5870    2.7910 h1        1 0M3      0.064200
     45 H11        -2.0390   -3.1660    1.3100 h1        1 0M3      0.064200
     46 H12        -1.0440   -1.4210    3.4410 hn        1 0M3      0.357800
     47 H14         1.0090   -1.2740    2.3890 h1        1 0M3      0.059700
     48 H15         0.3930   -2.3830    1.0780 h1        1 0M3      0.059700
     49 H16        -0.5000    0.5500    1.6080 hc        1 0M3      0.068700
     50 H17        -1.4420   -1.4600   -0.5500 hc        1 0M3      0.066200
     51 H18        -1.9540    0.2610   -0.3720 hc        1 0M3      0.066200
     52 H19         2.0180    0.6570    1.4190 hn        1 0M3      0.309500
     53 H20         2.8250    0.6870   -1.4470 h1        1 0M3      0.070700
     54 H21         3.3650    1.9390   -0.2200 h1        1 0M3      0.070700
     55 H22         3.9180   -1.1130   -0.0150 hc        1 0M3      0.067700
     56 H23         5.9200   -1.9940   -0.8000 ha        1 0M3      0.133750
     57 H24         7.7810   -1.8390   -2.4400 ha        1 0M3      0.133000
     58 H25         8.3050    0.3410   -3.5420 ha        1 0M3      0.133500
     59 H26         6.9540    2.3660   -2.9870 ha        1 0M3      0.133000
     60 H27         5.1010    2.2240   -1.3490 ha        1 0M3      0.133750
     61 H28         5.9670    1.9300    0.9080 ha        1 0M3      0.133750
     62 H29         6.6210    2.4050    3.2660 ha        1 0M3      0.133000
     63 H30         5.7260    0.9960    5.1230 ha        1 0M3      0.133500
     64 H31         4.1720   -0.8900    4.6130 ha        1 0M3      0.133000
     65 H32         3.5160   -1.3670    2.2620 ha        1 0M3      0.133750
@<TRIPOS>BOND
     1    1    2 1   
     2    1   35 1   
     3    1   36 1   
     4    1   37 1   
     5    2    3 ar  
     6    2    7 ar  
     7    3    4 ar  
     8    3   38 1   
     9    4    5 ar  
    10    4   39 1   
    11    5    6 ar  
    12    5    8 1   
    13    6    7 ar  
    14    6   40 1   
    15    7   41 1   
    16    8    9 2   
    17    8   10 2   
    18    8   11 1   
    19   11   12 1   
    20   11   42 1   
    21   12   13 1   
    22   12   17 1   
    23   12   43 1   
    24   13   14 1   
    25   13   44 1   
    26   13   45 1   
    27   14   15 1   
    28   14   46 1   
    29   15   16 1   
    30   15   47 1   
    31   15   48 1   
    32   16   17 1   
    33   16   18 1   
    34   16   49 1   
    35   17   50 1   
    36   17   51 1   
    37   18   19 2   
    38   18   20 1   
    39   20   21 1   
    40   20   52 1   
    41   21   22 1   
    42   21   53 1   
    43   21   54 1   
    44   22   23 1   
    45   22   29 1   
    46   22   55 1   
    47   23   24 ar  
    48   23   28 ar  
    49   24   25 ar  
    50   24   56 1   
    51   25   26 ar  
    52   25   57 1   
    53   26   27 ar  
    54   26   58 1   
    55   27   28 ar  
    56   27   59 1   
    57   28   60 1   
    58   29   30 ar  
    59   29   34 ar  
    60   30   31 ar  
    61   30   61 1   
    62   31   32 ar  
    63   31   62 1   
    64   32   33 ar  
    65   32   63 1   
    66   33   34 ar  
    67   33   64 1   
    68   34   65 1   
@<TRIPOS>SUBSTRUCTURE
     1 0M3         1 TEMP              0 ****  ****    0 ROOT
