@<TRIPOS>MOLECULE
0M3
   65    58     1     0     0
SMALL
bcc


@<TRIPOS>ATOM
      1 C1         -4.3430    0.1380   -7.4770 c3        1 0M3     -0.194000
      2 C2         -3.4380   -0.1150   -6.2890 c1        1 0M3      0.000000
      3 C3         -3.9660   -0.6200   -5.1060 c1        1 0M3     -0.120375
      4 C4         -3.1120   -0.9160   -4.0260 c1        1 0M3     -0.120375
      5 C5         -1.7370   -0.7030   -4.1450 c1        1 0M3     -0.837000
      6 C6         -1.2080   -0.1940   -5.3390 c1        1 0M3     -0.011000
      7 C7         -2.0480    0.0990   -6.4050 c1        1 0M3     -0.164000
      8 S8         -0.6070   -1.1890   -2.7800 ss        1 0M3      2.868000
      9 O9          0.2600   -2.2500   -3.1840 o         1 0M3     -0.955000
     10 O10        -1.3140   -1.8010   -1.7100 o         1 0M3     -0.955000
     11 N11         0.2620    0.1450   -2.2470 n2        1 0M3     -0.897000
     12 C12         1.1770    0.7710   -3.1030 c3        1 0M3      0.038000
     13 C13         0.9890    2.2090   -3.0200 c3        1 0M3     -0.081000
     14 N14         1.9010    2.7790   -2.2480 n3        1 0M3     -0.310000
     15 C15         2.3980    2.3340   -1.0790 c3        1 0M3     -0.070000
     16 C16         2.6280    0.8340   -1.0870 c3        1 0M3     -0.120000
     17 C17         2.6850    0.3020   -2.6870 c3        1 0M3     -0.175000
     18 C18         1.6190    0.0870   -0.2550 c2        1 0M3      0.301000
     19 O19         0.6290   -0.3560   -0.7650 o         1 0M3     -0.404000
     20 N20         1.8940   -0.1730    1.1830 n         1 0M3     -0.345000
     21 C21         0.8020   -0.5900    2.0780 c3        1 0M3     -0.030000
     22 C22         1.2920   -0.5360    3.5740 c3        1 0M3     -0.074000
     23 C23         0.6590    0.7020    4.2910 c1        1 0M3     -0.078000
     24 C24         1.0310    1.0110    5.6070 c1        1 0M3     -0.120375
     25 C25         0.3760    2.0200    6.2940 c1        1 0M3     -0.120375
     26 C26        -0.6510    2.7280    5.6790 c1        1 0M3     -0.120375
     27 C27        -1.0200    2.4230    4.3740 c1        1 0M3     -0.120375
     28 C28        -0.3610    1.4050    3.6800 c1        1 0M3     -0.127000
     29 C29         0.8590   -1.8180    4.2920 c2        1 0M3     -0.058000
     30 C30         1.7710   -2.5230    5.0590 c2        1 0M3     -0.117000
     31 C31         1.3430   -3.5790    5.8480 c1        1 0M3     -0.131000
     32 C32         0.0030   -3.9290    5.8700 c1        1 0M3     -0.120375
     33 C33        -0.9090   -3.2240    5.1030 c1        1 0M3     -0.120375
     34 C34        -0.4850   -2.1720    4.3160 c1        1 0M3     -0.131000
     35 H1         -5.0290   -0.5760   -7.5280 hc        1 0M3      0.092333
     36 H2         -4.7900    1.0240   -7.3730 hc        1 0M3      0.092333
     37 H3         -3.8090    0.1360   -8.3000 hc        1 0M3      0.092333
     38 H4         -4.9650   -0.7760   -5.0210 ha        1 0M3      0.140875
     39 H5         -3.4770   -1.2690   -3.2000 ha        1 0M3      0.140875
     40 H6         -0.2020   -0.0380   -5.4250 ha        1 0M3      0.161000
     41 H7         -1.6700    0.4580   -7.2490 ha        1 0M3      0.141000
     42 H8          0.0760    0.5120   -1.4320 hn        1 0M3      0.258000
     43 H9          0.9990    0.4870   -4.0100 h1        1 0M3      0.113000
     44 H10         1.0510    2.5900   -3.9240 h1        1 0M3      0.085000
     45 H11         0.0840    2.3980   -2.6490 h1        1 0M3      0.085000
     46 H12         1.7300    3.6590   -2.1830 hn        1 0M3      0.166000
     47 H14         1.7650    2.5550   -0.3610 h1        1 0M3      0.087000
     48 H15         3.2710    2.7970   -0.8980 h1        1 0M3      0.087000
     49 H16         3.4520    0.6090   -0.6210 hc        1 0M3      0.114000
     50 H17         3.3930    0.7960   -3.2220 hc        1 0M3      0.104500
     51 H18         2.7910   -0.6810   -2.7440 hc        1 0M3      0.104500
     52 H19         2.7580   -0.0830    1.5140 hn        1 0M3      0.222000
     53 H20         0.0390    0.0100    1.9620 h1        1 0M3      0.105500
     54 H21         0.5280   -1.5270    1.8520 h1        1 0M3      0.105500
     55 H22         2.2610   -0.4630    3.5960 hc        1 0M3      0.143000
     56 H23         1.7820    0.4940    6.0580 ha        1 0M3      0.140875
     57 H24         0.6410    2.2390    7.2300 ha        1 0M3      0.140875
     58 H25        -1.1210    3.4510    6.1720 ha        1 0M3      0.140875
     59 H26        -1.7330    2.9150    3.9470 ha        1 0M3      0.140875
     60 H27        -0.6300    1.1840    2.7320 ha        1 0M3      0.129000
     61 H28         2.7290   -2.2730    5.0440 ha        1 0M3      0.147000
     62 H29         2.0100   -4.0960    6.4090 ha        1 0M3      0.131000
     63 H30        -0.3010   -4.6770    6.4300 ha        1 0M3      0.140875
     64 H31        -1.8790   -3.4780    5.1200 ha        1 0M3      0.140875
     65 H32        -1.1310   -1.6760    3.7750 ha        1 0M3      0.126000
@<TRIPOS>BOND
     1    1    2 1   
     2    1   35 1   
     3    1   36 1   
     4    1   37 1   
     5    2    7 1   
     6    3    4 1   
     7    3   38 1   
     8    4   39 1   
     9    5    6 1   
    10    6   40 1   
    11    7   41 1   
    12    8    9 1   
    13    8   10 1   
    14   11   12 1   
    15   11   42 1   
    16   12   13 1   
    17   12   17 1   
    18   12   43 1   
    19   13   14 1   
    20   13   44 1   
    21   13   45 1   
    22   14   15 1   
    23   14   46 1   
    24   15   16 1   
    25   15   47 1   
    26   15   48 1   
    27   16   17 1   
    28   16   18 1   
    29   16   49 1   
    30   17   50 1   
    31   17   51 1   
    32   18   19 1   
    33   18   20 1   
    34   20   21 1   
    35   20   52 1   
    36   21   22 1   
    37   21   53 1   
    38   21   54 1   
    39   22   23 1   
    40   22   29 1   
    41   22   55 1   
    42   23   28 1   
    43   24   25 1   
    44   24   56 1   
    45   25   57 1   
    46   26   27 1   
    47   26   58 1   
    48   27   59 1   
    49   28   60 1   
    50   29   30 1   
    51   29   34 1   
    52   30   31 1   
    53   30   61 1   
    54   31   62 1   
    55   32   33 1   
    56   32   63 1   
    57   33   64 1   
    58   34   65 1   
@<TRIPOS>SUBSTRUCTURE
     1 0M3         1 TEMP              0 ****  ****    0 ROOT
