@<TRIPOS>MOLECULE
0M4
   43    45     1     0     0
SMALL
bcc


@<TRIPOS>ATOM
      1 C01         0.0260   -1.0990    0.0870 ca        1 0M4     -0.016600
      2 C02         1.3810   -0.7170   -0.0290 ca        1 0M4      0.164900
      3 C03         2.0570   -0.1480    1.0680 ca        1 0M4     -0.170000
      4 C04         1.3800    0.0420    2.2810 ca        1 0M4      0.035600
      5 C05         0.0230   -0.3420    2.3950 ca        1 0M4     -0.153000
      6 C06        -0.6310   -0.9020    1.3070 ca        1 0M4     -0.076000
      7 CL1        -0.8160   -1.7840   -1.2060 cl        1 0M4     -0.017400
      8 F08         2.0620   -0.8850   -1.1830 f         1 0M4     -0.103900
      9 N09         2.0030    0.6010    3.4270 n         1 0M4     -0.393100
     10 C10         3.2520    1.1330    3.4700 c         1 0M4      0.617100
     11 C11         3.6590    1.6940    4.8590 c         1 0M4      0.442100
     12 N12         5.0580    2.2250    4.9300 n4        1 0M4     -0.667800
     13 O13         2.9640    1.7530    5.8600 o         1 0M4     -0.393100
     14 O14         4.0930    1.2230    2.5600 o         1 0M4     -0.553100
     15 C15         5.8690    1.5390    5.9880 c3        1 0M4      0.125800
     16 C16         7.2640    2.1430    6.1330 c3        1 0M4     -0.116000
     17 C17         8.1140    1.9020    4.8540 c3        1 0M4      0.153800
     18 N18         9.3030    1.1380    5.1910 n3        1 0M4     -0.789200
     19 C19         9.1660    0.6390    6.5530 c3        1 0M4      0.147800
     20 C20         8.0230    1.3900    7.2650 c3        1 0M4     -0.075700
     21 C21         7.2110    3.6150    6.5420 c3        1 0M4     -0.088400
     22 C22         8.5020    2.4440    8.2570 c3        1 0M4     -0.082400
     23 C23         8.2590    3.8090    7.6310 c3        1 0M4     -0.077400
     24 H1          3.1140    0.1360    0.9310 ha        1 0M4      0.186000
     25 H2         -0.5310   -0.2040    3.3370 ha        1 0M4      0.151000
     26 H3         -1.6900   -1.1980    1.4080 ha        1 0M4      0.173000
     27 H4          1.4420    0.6240    4.2570 hn        1 0M4      0.356500
     28 H5          5.0310    3.2330    5.1370 hn        1 0M4      0.478300
     29 H6          5.3020    1.6310    6.9600 hx        1 0M4      0.113700
     30 H7          5.9510    0.4500    5.7060 hx        1 0M4      0.113700
     31 H9          8.3740    2.8770    4.3580 h1        1 0M4      0.048700
     32 H8          7.5380    1.2830    4.1100 h1        1 0M4      0.048700
     33 H10        10.1300    1.6980    5.0920 hn        1 0M4      0.375800
     34 H12         8.9090   -0.4550    6.4850 h1        1 0M4      0.069700
     35 H13        10.1300    0.7270    7.1230 h1        1 0M4      0.069700
     36 H14         7.3620    0.6510    7.7840 hc        1 0M4      0.067700
     37 H15         6.2010    3.8740    6.9550 hc        1 0M4      0.045200
     38 H16         7.4090    4.2930    5.6750 hc        1 0M4      0.045200
     39 H18         7.9290    2.3500    9.2150 hc        1 0M4      0.066200
     40 H17         9.5840    2.3090    8.5070 hc        1 0M4      0.066200
     41 H20         9.2060    4.2090    7.1870 hc        1 0M4      0.065700
     42 H19         7.9090    4.5480    8.3940 hc        1 0M4      0.065700
     43 H122        5.5130    2.0940    4.0090 hn        1 0M4      0.478300
@<TRIPOS>BOND
     1    1    2 ar  
     2    1    6 ar  
     3    1    7 1   
     4    2    3 ar  
     5    2    8 1   
     6    3    4 ar  
     7    3   24 1   
     8    4    5 ar  
     9    4    9 1   
    10    5    6 ar  
    11    5   25 1   
    12    6   26 1   
    13    9   10 1   
    14    9   27 1   
    15   10   11 1   
    16   10   14 2   
    17   11   12 1   
    18   11   13 2   
    19   12   15 1   
    20   12   28 1   
    21   12   43 1   
    22   15   16 1   
    23   15   29 1   
    24   15   30 1   
    25   16   17 1   
    26   16   20 1   
    27   16   21 1   
    28   17   18 1   
    29   17   31 1   
    30   17   32 1   
    31   18   19 1   
    32   18   33 1   
    33   19   20 1   
    34   19   34 1   
    35   19   35 1   
    36   20   22 1   
    37   20   36 1   
    38   21   23 1   
    39   21   37 1   
    40   21   38 1   
    41   22   23 1   
    42   22   39 1   
    43   22   40 1   
    44   23   41 1   
    45   23   42 1   
@<TRIPOS>SUBSTRUCTURE
     1 0M4         1 TEMP              0 ****  ****    0 ROOT
