@<TRIPOS>MOLECULE
0M4
   43    45     1     0     0
SMALL
bcc


@<TRIPOS>ATOM
      1 C01        -0.0110   -1.1790    0.2130 ca        1 0M4     -0.016600
      2 C02         1.3670   -0.8960    0.0900 ca        1 0M4      0.164900
      3 C03         2.0600   -0.2610    1.1390 ca        1 0M4     -0.170000
      4 C04         1.3770    0.0930    2.3110 ca        1 0M4      0.035600
      5 C05        -0.0040   -0.1920    2.4310 ca        1 0M4     -0.153000
      6 C06        -0.6750   -0.8190    1.3910 ca        1 0M4     -0.076000
      7 Cl1        -0.8730   -1.9390   -1.0240 cl        1 0M4     -0.017400
      8 F08         2.0550   -1.2230   -1.0250 f         1 0M4     -0.103900
      9 N09         2.0150    0.7270    3.4090 ns        1 0M4     -0.393100
     10 C10         3.2950    1.1800    3.4280 c         1 0M4      0.617100
     11 C11         3.7130    1.8530    4.7620 c         1 0M4      0.442100
     12 N12         5.1420    2.3020    4.8120 ny        1 0M4     -0.667800
     13 O13         3.0060    2.0560    5.7360 o         1 0M4     -0.393100
     14 O14         4.1560    1.1210    2.5340 o         1 0M4     -0.553100
     15 C15         5.8900    1.6660    5.9450 c3        1 0M4      0.126800
     16 C16         7.3290    2.1670    6.0650 c3        1 0M4     -0.118000
     17 C17         8.1470    1.8570    4.7800 c3        1 0M4      0.149800
     18 N18         9.3450    1.1140    5.1330 n7        1 0M4     -0.784200
     19 C19         9.1740    0.5860    6.4810 c3        1 0M4      0.146800
     20 C20         8.0390    1.3530    7.1900 c3        1 0M4     -0.077700
     21 C21         7.3960    3.6380    6.4800 c3        1 0M4     -0.082400
     22 C22         8.5320    2.3530    8.2270 c3        1 0M4     -0.082400
     23 C23         7.8500    3.6800    7.9340 c3        1 0M4     -0.081400
     24 H1          3.1350   -0.0590    0.9990 ha        1 0M4      0.186000
     25 H2         -0.5640    0.0750    3.3420 ha        1 0M4      0.151000
     26 H3         -1.7520   -1.0360    1.4960 ha        1 0M4      0.173000
     27 H4          1.4420    0.8710    4.2190 hn        1 0M4      0.356500
     28 H5          5.1730    3.3250    4.9230 hn        1 0M4      0.478300
     29 H6          5.8890    0.5520    5.7650 hx        1 0M4      0.112700
     30 H7          5.3250    1.8940    6.8950 hx        1 0M4      0.112700
     31 H9          7.5550    1.1890    4.0920 h1        1 0M4      0.050200
     32 H8          8.3940    2.7980    4.2200 h1        1 0M4      0.050200
     33 H10        10.1600    1.6970    5.0750 hn        1 0M4      0.373800
     34 H12        10.1300    0.6360    7.0670 h1        1 0M4      0.071700
     35 H13         8.8880   -0.4990    6.3830 h1        1 0M4      0.071700
     36 H14         7.3380    0.6230    7.6690 hc        1 0M4      0.066700
     37 H15         8.1320    4.1880    5.8380 hc        1 0M4      0.047200
     38 H16         6.4120    4.1580    6.3750 hc        1 0M4      0.047200
     39 H18         8.2920    2.0010    9.2620 hc        1 0M4      0.066700
     40 H17         9.6450    2.4710    8.1680 hc        1 0M4      0.066700
     41 H20         6.9690    3.8230    8.6100 hc        1 0M4      0.063200
     42 H19         8.5460    4.5380    8.1080 hc        1 0M4      0.063200
     43 H122        5.6010    2.0590    3.9160 hn        1 0M4      0.478300
@<TRIPOS>BOND
     1    1    2 ar  
     2    1    6 ar  
     3    1    7 1   
     4    2    3 ar  
     5    2    8 1   
     6    3    4 ar  
     7    3   24 1   
     8    4    5 ar  
     9    4    9 1   
    10    5    6 ar  
    11    5   25 1   
    12    6   26 1   
    13    9   10 1   
    14    9   27 1   
    15   10   11 1   
    16   10   14 2   
    17   11   12 1   
    18   11   13 2   
    19   12   15 1   
    20   12   28 1   
    21   12   43 1   
    22   15   16 1   
    23   15   29 1   
    24   15   30 1   
    25   16   17 1   
    26   16   20 1   
    27   16   21 1   
    28   17   18 1   
    29   17   31 1   
    30   17   32 1   
    31   18   19 1   
    32   18   33 1   
    33   19   20 1   
    34   19   34 1   
    35   19   35 1   
    36   20   22 1   
    37   20   36 1   
    38   21   23 1   
    39   21   37 1   
    40   21   38 1   
    41   22   23 1   
    42   22   39 1   
    43   22   40 1   
    44   23   41 1   
    45   23   42 1   
@<TRIPOS>SUBSTRUCTURE
     1 0M4         1 TEMP              0 ****  ****    0 ROOT
