@<TRIPOS>MOLECULE
0M4
   44    46     1     0     0
SMALL
bcc


@<TRIPOS>ATOM
      1 C01         0.8340   -0.1900   -0.0620 ca        1 0M4      0.043400
      2 C02         1.7880   -1.0720    0.5220 ca        1 0M4      0.174900
      3 C03         2.0390   -1.0260    1.9030 ca        1 0M4     -0.155000
      4 C04         1.3410   -0.0980    2.6940 ca        1 0M4     -0.092400
      5 C05         0.4010    0.7820    2.1310 ca        1 0M4     -0.086000
      6 C06         0.1600    0.7220    0.7610 ca        1 0M4     -0.085000
      7 CL1         0.5020   -0.2280   -1.7020 cl        1 0M4      0.074600
      8 F08         2.4640   -1.9640   -0.2240 f         1 0M4     -0.068900
      9 N09         1.5520   -0.1020    4.1510 n4        1 0M4     -0.500200
     10 C10         2.5870    0.8910    4.5590 c         1 0M4      0.454100
     11 C11         4.0420    0.4160    4.4910 c         1 0M4      0.464100
     12 N12         5.0740    1.4510    4.7250 n4        1 0M4     -0.657800
     13 O13         4.3480   -0.7450    4.2720 o         1 0M4     -0.330100
     14 O14         2.2630    2.0100    4.9230 o         1 0M4     -0.333100
     15 C15         6.0550    1.0440    5.8090 c3        1 0M4      0.131800
     16 C16         7.1630    2.0780    5.9820 c3        1 0M4     -0.109000
     17 C17         8.1100    2.1090    4.7560 c3        1 0M4      0.162800
     18 N18         9.1850    1.1660    5.0210 n3        1 0M4     -0.822200
     19 C19         9.3430    1.0320    6.4670 c3        1 0M4      0.146800
     20 C20         8.0810    1.5950    7.1520 c3        1 0M4     -0.054700
     21 C21         6.6450    3.4590    6.3690 c3        1 0M4     -0.089400
     22 C22         8.3240    2.8090    8.0400 c3        1 0M4     -0.085400
     23 C23         7.6130    4.0020    7.4150 c3        1 0M4     -0.077400
     24 H1          2.7660   -1.7400    2.3290 ha        1 0M4      0.180000
     25 H2         -0.1620    1.5090    2.7420 ha        1 0M4      0.177000
     26 H3         -0.5900    1.4070    0.3170 ha        1 0M4      0.207000
     27 H4          1.8390   -1.0520    4.4450 hn        1 0M4      0.500800
     28 H5          4.6440    2.3530    4.9880 hn        1 0M4      0.493300
     29 H6          5.4680    0.9340    6.7640 hx        1 0M4      0.125200
     30 H7          6.5040    0.0510    5.5070 hx        1 0M4      0.125200
     31 H9          7.6020    1.7860    3.8060 h1        1 0M4      0.040200
     32 H8          8.4700    3.1660    4.5990 h1        1 0M4      0.040200
     33 H10        10.0390    1.4390    4.5720 hn        1 0M4      0.401800
     34 H12         9.4540   -0.0650    6.6910 h1        1 0M4      0.074200
     35 H13        10.2640    1.5510    6.8510 h1        1 0M4      0.074200
     36 H14         7.5910    0.7830    7.7470 hc        1 0M4      0.066700
     37 H15         5.6190    3.3840    6.8140 hc        1 0M4      0.043200
     38 H16         6.5910    4.1430    5.4860 hc        1 0M4      0.043200
     39 H18         7.9230    2.6120    9.0690 hc        1 0M4      0.077200
     40 H17         9.4180    3.0210    8.1530 hc        1 0M4      0.077200
     41 H20         8.3560    4.6860    6.9290 hc        1 0M4      0.075700
     42 H19         7.0680    4.5980    8.1880 hc        1 0M4      0.075700
     43 H092        0.6550    0.1420    4.6130 hn        1 0M4      0.500800
     44 H122        5.6140    1.5900    3.8490 hn        1 0M4      0.493300
@<TRIPOS>BOND
     1    1    2 ar  
     2    1    6 ar  
     3    1    7 1   
     4    2    3 ar  
     5    2    8 1   
     6    3    4 ar  
     7    3   24 1   
     8    4    5 ar  
     9    4    9 1   
    10    5    6 ar  
    11    5   25 1   
    12    6   26 1   
    13    9   10 1   
    14    9   27 1   
    15    9   43 1   
    16   10   11 1   
    17   10   14 2   
    18   11   12 1   
    19   11   13 2   
    20   12   15 1   
    21   12   28 1   
    22   12   44 1   
    23   15   16 1   
    24   15   29 1   
    25   15   30 1   
    26   16   17 1   
    27   16   20 1   
    28   16   21 1   
    29   17   18 1   
    30   17   31 1   
    31   17   32 1   
    32   18   19 1   
    33   18   33 1   
    34   19   20 1   
    35   19   34 1   
    36   19   35 1   
    37   20   22 1   
    38   20   36 1   
    39   21   23 1   
    40   21   37 1   
    41   21   38 1   
    42   22   23 1   
    43   22   39 1   
    44   22   40 1   
    45   23   41 1   
    46   23   42 1   
@<TRIPOS>SUBSTRUCTURE
     1 0M4         1 TEMP              0 ****  ****    0 ROOT
