@<TRIPOS>MOLECULE
0M4
   42    44     1     0     0
SMALL
bcc


@<TRIPOS>ATOM
      1 C01         5.5380   -0.2600   -0.1680 ca        1 0M4     -0.049600
      2 C02         4.6560    0.7900    0.1590 ca        1 0M4      0.162900
      3 C03         3.2720    0.5540    0.2580 ca        1 0M4     -0.191000
      4 C04         2.7580   -0.7340    0.0320 ca        1 0M4      0.091600
      5 C05         3.6560   -1.7820   -0.2970 ca        1 0M4     -0.183000
      6 C06         5.0170   -1.5380   -0.3910 ca        1 0M4     -0.077000
      7 CL1         7.2100   -0.0130   -0.2960 cl        1 0M4     -0.065400
      8 F08         5.1120    2.0440    0.3840 f         1 0M4     -0.121900
      9 N09         1.3910   -1.0400    0.1310 n         1 0M4     -0.443100
     10 C10         0.3520   -0.1560    0.3240 c         1 0M4      0.596100
     11 C11        -1.0530   -0.8080    0.3480 c         1 0M4      0.586100
     12 N12        -2.0200   -0.1000    1.0110 n         1 0M4     -0.525900
     13 O13        -1.2390   -1.9270   -0.1700 o         1 0M4     -0.600100
     14 O14         0.4750    1.0720    0.4740 o         1 0M4     -0.577100
     15 C15        -3.4030   -0.5000    1.0140 c3        1 0M4      0.096000
     16 C16        -4.3160    0.2770    0.0540 c3        1 0M4     -0.105000
     17 C17        -4.2910    1.7970    0.3580 c3        1 0M4      0.147800
     18 N18        -5.6590    2.2990    0.4350 n3        1 0M4     -0.788200
     19 C19        -6.5320    1.1530    0.6740 c3        1 0M4      0.145800
     20 C20        -5.7950   -0.1440    0.2800 c3        1 0M4     -0.085700
     21 C21        -3.9930   -0.0380   -1.4070 c3        1 0M4     -0.074400
     22 C22        -6.3000   -0.7610   -1.0180 c3        1 0M4     -0.076400
     23 C23        -5.0970   -0.9460   -1.9300 c3        1 0M4     -0.080400
     24 H1          2.6150    1.4030    0.5140 ha        1 0M4      0.191000
     25 H2          3.2830   -2.8020   -0.4810 ha        1 0M4      0.144000
     26 H3          5.6990   -2.3650   -0.6480 ha        1 0M4      0.154000
     27 H4          1.1400   -1.9930   -0.0450 hn        1 0M4      0.347500
     28 H5         -1.8180    0.8470    1.2540 hn        1 0M4      0.333500
     29 H6         -3.4630   -1.5970    0.7560 h1        1 0M4      0.071700
     30 H7         -3.7850   -0.3540    2.0660 h1        1 0M4      0.071700
     31 H9         -3.8260    1.9810    1.3670 h1        1 0M4      0.051200
     32 H8         -3.6900    2.3560   -0.4060 h1        1 0M4      0.051200
     33 H10        -5.9100    2.7480   -0.4280 hn        1 0M4      0.348800
     34 H12        -6.7600    1.1320    1.7760 h1        1 0M4      0.052700
     35 H13        -7.5040    1.2580    0.1250 h1        1 0M4      0.052700
     36 H14        -5.8780   -0.8870    1.1120 hc        1 0M4      0.060700
     37 H15        -3.9550    0.9040   -2.0110 hc        1 0M4      0.050200
     38 H16        -2.9970   -0.5400   -1.5070 hc        1 0M4      0.050200
     39 H18        -6.8020   -1.7410   -0.8200 hc        1 0M4      0.044700
     40 H17        -7.0560   -0.0960   -1.5090 hc        1 0M4      0.044700
     41 H20        -5.3520   -0.6970   -2.9890 hc        1 0M4      0.046700
     42 H19        -4.7570   -2.0130   -1.9090 hc        1 0M4      0.046700
@<TRIPOS>BOND
     1    1    2 ar  
     2    1    6 ar  
     3    1    7 1   
     4    2    3 ar  
     5    2    8 1   
     6    3    4 ar  
     7    3   24 1   
     8    4    5 ar  
     9    4    9 1   
    10    5    6 ar  
    11    5   25 1   
    12    6   26 1   
    13    9   10 1   
    14    9   27 1   
    15   10   11 1   
    16   10   14 2   
    17   11   12 1   
    18   11   13 2   
    19   12   15 1   
    20   12   28 1   
    21   15   16 1   
    22   15   29 1   
    23   15   30 1   
    24   16   17 1   
    25   16   20 1   
    26   16   21 1   
    27   17   18 1   
    28   17   31 1   
    29   17   32 1   
    30   18   19 1   
    31   18   33 1   
    32   19   20 1   
    33   19   34 1   
    34   19   35 1   
    35   20   22 1   
    36   20   36 1   
    37   21   23 1   
    38   21   37 1   
    39   21   38 1   
    40   22   23 1   
    41   22   39 1   
    42   22   40 1   
    43   23   41 1   
    44   23   42 1   
@<TRIPOS>SUBSTRUCTURE
     1 0M4         1 TEMP              0 ****  ****    0 ROOT
