@<TRIPOS>MOLECULE
0M4
   42    37     1     0     0
SMALL
bcc


@<TRIPOS>ATOM
      1 C01         0.7520   -6.4950   -3.0860 c1        1 0M4     -0.125000
      2 C02        -0.6170   -6.4220   -2.9500 c1        1 0M4      0.113500
      3 C03        -1.1940   -5.3600   -2.2360 c1        1 0M4     -0.187500
      4 C04        -0.3820   -4.3800   -1.6650 c1        1 0M4      0.113500
      5 C05         0.9980   -4.4550   -1.8030 c1        1 0M4     -0.187500
      6 C06         1.5700   -5.5070   -2.5100 c1        1 0M4     -0.079000
      7 CL1         1.4830   -7.8870   -3.8880 cl        1 0M4      0.013000
      8 F08        -1.4140   -7.2940   -3.6330 f         1 0M4     -0.089000
      9 N09        -0.9930   -3.2390   -0.9670 n2        1 0M4     -0.296000
     10 C10        -0.2670   -1.9820   -0.8430 c1        1 0M4      0.292000
     11 C11        -0.8620   -0.8410   -0.0170 c1        1 0M4      0.280000
     12 N12        -0.1460    0.4030    0.1110 n2        1 0M4     -0.335000
     13 O13        -2.0020   -0.9450    0.4390 o         1 0M4     -0.359000
     14 O14         0.8580   -1.8710   -1.3210 o         1 0M4     -0.341000
     15 C15        -0.8680    1.6210    0.3270 c3        1 0M4     -0.020000
     16 C16         0.1080    2.7160    0.9400 c3        1 0M4     -0.105000
     17 C17         1.1190    3.0200    0.1240 c3        1 0M4     -0.089000
     18 N18         0.9240    3.8780   -0.1660 n3        1 0M4     -0.267000
     19 C19         0.0090    4.4970    0.9500 c3        1 0M4     -0.091000
     20 C20        -0.5150    3.8970    1.1810 c3        1 0M4     -0.125000
     21 C21         0.6970    2.3020    2.2360 c3        1 0M4     -0.153000
     22 C22        -0.8610    3.9040    2.3220 c3        1 0M4     -0.155000
     23 C23         0.0610    2.8810    3.0890 c3        1 0M4     -0.159000
     24 H1         -2.1560   -5.3060   -2.1390 ha        1 0M4      0.168000
     25 H2          1.5690   -3.7660   -1.4020 ha        1 0M4      0.168000
     26 H3          2.5470   -5.5600   -2.6070 ha        1 0M4      0.156000
     27 H4         -1.8150   -3.3310   -0.5790 hn        1 0M4      0.261000
     28 H5          0.7600    0.4270   -0.0330 hn        1 0M4      0.247000
     29 H6         -1.6210    1.4530    0.9610 h1        1 0M4      0.111000
     30 H7         -1.2230    1.9420   -0.5220 h1        1 0M4      0.111000
     31 H9          1.1450    2.3960   -0.6380 h1        1 0M4      0.090500
     32 H8          1.9840    3.0070    0.6170 h1        1 0M4      0.090500
     33 H10         1.7070    4.3670   -0.2280 hn        1 0M4      0.144000
     34 H12         0.5550    4.7800    1.7160 h1        1 0M4      0.092000
     35 H13        -0.4810    5.2470    0.5970 h1        1 0M4      0.092000
     36 H14        -1.3130    3.9480    0.6150 hc        1 0M4      0.101000
     37 H15         1.6440    2.5650    2.2800 hc        1 0M4      0.089500
     38 H16         0.6120    1.3630    2.3460 hc        1 0M4      0.089500
     39 H18        -0.7530    4.7870    2.6940 hc        1 0M4      0.084000
     40 H17        -1.8130    3.6200    2.3910 hc        1 0M4      0.084000
     41 H20        -0.4850    2.2460    3.5920 hc        1 0M4      0.086500
     42 H19         0.6770    3.3700    3.7050 hc        1 0M4      0.086500
@<TRIPOS>BOND
     1    1    6 1   
     2    1    7 1   
     3    2    3 1   
     4    3   24 1   
     5    4    5 1   
     6    5   25 1   
     7    6   26 1   
     8    9   10 1   
     9    9   27 1   
    10   10   14 1   
    11   11   13 1   
    12   12   15 1   
    13   12   28 1   
    14   15   16 1   
    15   15   29 1   
    16   15   30 1   
    17   16   17 1   
    18   16   20 1   
    19   16   21 1   
    20   17   18 1   
    21   17   31 1   
    22   17   32 1   
    23   18   19 1   
    24   18   33 1   
    25   19   20 1   
    26   19   34 1   
    27   19   35 1   
    28   20   22 1   
    29   20   36 1   
    30   21   23 1   
    31   21   37 1   
    32   21   38 1   
    33   22   23 1   
    34   22   39 1   
    35   22   40 1   
    36   23   41 1   
    37   23   42 1   
@<TRIPOS>SUBSTRUCTURE
     1 0M4         1 TEMP              0 ****  ****    0 ROOT
