@<TRIPOS>MOLECULE
0M5
   43    45     1     0     0
SMALL
bcc


@<TRIPOS>ATOM
      1 C01        -0.0070    1.5550    0.8830 ca        1 0M5      0.164900
      2 C02         1.3930    1.6550    1.0340 ca        1 0M5     -0.016600
      3 C03         2.0390    0.8110    1.9460 ca        1 0M5     -0.076000
      4 C04         1.3280   -0.1150    2.6960 ca        1 0M5     -0.153000
      5 C05        -0.0750   -0.2170    2.5470 ca        1 0M5      0.035600
      6 C06        -0.7400    0.6200    1.6400 ca        1 0M5     -0.170000
      7 C10        -6.1410   -2.6030    5.5760 c3        1 0M5     -0.105700
      8 C11        -6.4110   -4.0870    5.8350 c3        1 0M5     -0.103400
      9 C15        -7.9290   -3.0510   10.2090 cx        1 0M5     -0.108900
     10 CL          2.3040    2.7630    0.1450 cl        1 0M5     -0.017400
     11 F          -0.6790    2.3450    0.0180 f         1 0M5     -0.103900
     12 N01        -0.7530   -1.1740    3.3460 n         1 0M5     -0.392100
     13 C07        -2.0750   -1.4770    3.2720 c         1 0M5      0.617100
     14 O01        -2.9470   -0.9860    2.5350 o         1 0M5     -0.555100
     15 C08        -2.5300   -2.5870    4.2550 c         1 0M5      0.441100
     16 N02        -4.0070   -2.8430    4.2640 n4        1 0M5     -0.667800
     17 O          -1.8240   -3.2590    4.9870 o         1 0M5     -0.389100
     18 C09        -4.6520   -2.2790    5.4950 c3        1 0M5      0.115800
     19 C12        -6.8770   -4.1870    7.2980 c3        1 0M5      0.160800
     20 N          -6.8550   -2.8460    7.8890 n3        1 0M5     -0.701600
     21 C13        -6.7290   -1.8690    6.8080 c3        1 0M5      0.171800
     22 C14        -7.9670   -2.5820    8.7660 cx        1 0M5      0.078500
     23 C          -7.8250   -1.5890    9.9060 cx        1 0M5     -0.108900
     24 H01         3.1340    0.8810    2.0700 ha        1 0M5      0.173000
     25 H02         1.8750   -0.7610    3.4010 ha        1 0M5      0.152000
     26 H03        -1.8320    0.5760    1.4870 ha        1 0M5      0.185000
     27 H08        -6.6640   -2.2530    4.6480 hc        1 0M5      0.077700
     28 H09        -5.5050   -4.7220    5.6820 hc        1 0M5      0.053700
     29 H10        -7.2120   -4.4610    5.1490 hc        1 0M5      0.053700
     30 H04        -0.1790   -1.6860    3.9890 hn        1 0M5      0.356500
     31 H05        -4.1830   -3.8560    4.2310 hn        1 0M5      0.475800
     32 H06        -4.1190   -2.7080    6.3940 hx        1 0M5      0.117200
     33 H07        -4.5030   -1.1610    5.4700 hx        1 0M5      0.117200
     34 H11        -6.1720   -4.8250    7.8970 h1        1 0M5      0.063700
     35 H12        -7.8960   -4.6640    7.3430 h1        1 0M5      0.063700
     36 H13        -7.7140   -1.4060    6.5140 h1        1 0M5      0.061200
     37 H14        -6.0550   -1.0460    7.1660 h1        1 0M5      0.061200
     38 H15        -8.9600   -2.6170    8.2570 h1        1 0M5      0.067700
     39 H          -6.8580   -1.0800   10.0680 hc        1 0M5      0.082450
     40 H18        -8.6830   -0.9260   10.1180 hc        1 0M5      0.082450
     41 H17        -8.8640   -3.4510   10.6420 hc        1 0M5      0.082450
     42 H022       -4.4260   -2.4040    3.4280 hn        1 0M5      0.475800
     43 H16        -7.0370   -3.5810   10.5860 hc        1 0M5      0.082450
@<TRIPOS>BOND
     1    1    2 ar  
     2    1    6 ar  
     3    1   11 1   
     4    2    3 ar  
     5    2   10 1   
     6    3    4 ar  
     7    3   24 1   
     8    4    5 ar  
     9    4   25 1   
    10    5    6 ar  
    11    5   12 1   
    12    6   26 1   
    13    7    8 1   
    14    7   18 1   
    15    7   21 1   
    16    7   27 1   
    17    8   19 1   
    18    8   28 1   
    19    8   29 1   
    20    9   22 1   
    21    9   23 1   
    22    9   41 1   
    23    9   43 1   
    24   12   13 1   
    25   12   30 1   
    26   13   14 2   
    27   13   15 1   
    28   15   16 1   
    29   15   17 2   
    30   16   18 1   
    31   16   31 1   
    32   16   42 1   
    33   18   32 1   
    34   18   33 1   
    35   19   20 1   
    36   19   34 1   
    37   19   35 1   
    38   20   21 1   
    39   20   22 1   
    40   21   36 1   
    41   21   37 1   
    42   22   23 1   
    43   22   38 1   
    44   23   39 1   
    45   23   40 1   
@<TRIPOS>SUBSTRUCTURE
     1 0M5         1 TEMP              0 ****  ****    0 ROOT
