@<TRIPOS>MOLECULE
0M5
   44    46     1     0     0
SMALL
bcc


@<TRIPOS>ATOM
      1 C01         0.0430    1.2530    1.0690 ca        1 0M5      0.174900
      2 C02         0.9650    0.3590    0.4520 ca        1 0M5      0.044400
      3 C03         1.3620   -0.7910    1.1470 ca        1 0M5     -0.085000
      4 C04         0.8780   -1.0750    2.4210 ca        1 0M5     -0.085000
      5 C05        -0.0260   -0.1810    3.0190 ca        1 0M5     -0.092400
      6 C06        -0.4520    0.9820    2.3550 ca        1 0M5     -0.155000
      7 C10        -6.3320   -2.2020    5.4170 c3        1 0M5     -0.110700
      8 C11        -6.0190   -3.7010    5.4570 c3        1 0M5     -0.104400
      9 C15        -7.2980   -3.8050   10.0360 cx        1 0M5     -0.102900
     10 CL          1.5820    0.6590   -1.0740 cl        1 0M5      0.075600
     11 F          -0.3730    2.3700    0.4430 f         1 0M5     -0.068900
     12 N01        -0.4890   -0.4240    4.3950 n4        1 0M5     -0.500200
     13 C07        -1.7000   -1.2950    4.4200 c         1 0M5      0.457100
     14 O01        -1.5920   -2.5040    4.5420 o         1 0M5     -0.330100
     15 C08        -3.0470   -0.5810    4.2780 c         1 0M5      0.465100
     16 N02        -4.2430   -1.4510    4.2180 n4        1 0M5     -0.659800
     17 O          -3.1550    0.6340    4.2310 o         1 0M5     -0.333100
     18 C09        -5.0820   -1.3310    5.4790 c3        1 0M5      0.120800
     19 C12        -6.2840   -4.1490    6.9080 c3        1 0M5      0.154800
     20 N          -6.7040   -2.9750    7.6810 n3        1 0M5     -0.705600
     21 C13        -7.1240   -1.9440    6.7300 c3        1 0M5      0.169800
     22 C14        -7.7060   -3.2670    8.6760 cx        1 0M5      0.065500
     23 C          -7.8220   -2.4080    9.9230 cx        1 0M5     -0.102900
     24 H01         2.0850   -1.4890    0.6790 ha        1 0M5      0.208000
     25 H02         1.2270   -1.9880    2.9350 ha        1 0M5      0.178000
     26 H03        -1.1460    1.7080    2.8140 ha        1 0M5      0.180000
     27 H08        -6.9630   -1.9310    4.5320 hc        1 0M5      0.088700
     28 H09        -4.9660   -3.9340    5.1690 hc        1 0M5      0.054700
     29 H10        -6.6960   -4.2530    4.7560 hc        1 0M5      0.054700
     30 H04         0.2730   -0.8980    4.9180 hn        1 0M5      0.500800
     31 H05        -3.9740   -2.4420    4.0930 hn        1 0M5      0.492300
     32 H06        -5.3660   -0.2430    5.5810 hx        1 0M5      0.125200
     33 H07        -4.4430   -1.6490    6.3530 hx        1 0M5      0.125200
     34 H11        -7.0490   -4.9750    6.9170 h1        1 0M5      0.071200
     35 H12        -5.3460   -4.5450    7.3830 h1        1 0M5      0.071200
     36 H13        -6.8960   -0.9400    7.1760 h1        1 0M5      0.072200
     37 H14        -8.2240   -1.9760    6.4890 h1        1 0M5      0.072200
     38 H15        -8.6600   -3.6600    8.2480 h1        1 0M5      0.077700
     39 H          -7.1250   -1.5650   10.0730 hc        1 0M5      0.086200
     40 H18        -8.8380   -2.1760   10.2920 hc        1 0M5      0.086200
     41 H17        -7.9330   -4.5910   10.4860 hc        1 0M5      0.086200
     42 H012       -0.6970    0.4840    4.8450 hn        1 0M5      0.500800
     43 H022       -4.8300   -1.1670    3.4140 hn        1 0M5      0.492300
     44 H16        -6.2280   -3.9570   10.2650 hc        1 0M5      0.086200
@<TRIPOS>BOND
     1    1    2 ar  
     2    1    6 ar  
     3    1   11 1   
     4    2    3 ar  
     5    2   10 1   
     6    3    4 ar  
     7    3   24 1   
     8    4    5 ar  
     9    4   25 1   
    10    5    6 ar  
    11    5   12 1   
    12    6   26 1   
    13    7    8 1   
    14    7   18 1   
    15    7   21 1   
    16    7   27 1   
    17    8   19 1   
    18    8   28 1   
    19    8   29 1   
    20    9   22 1   
    21    9   23 1   
    22    9   41 1   
    23    9   44 1   
    24   12   13 1   
    25   12   30 1   
    26   12   42 1   
    27   13   14 2   
    28   13   15 1   
    29   15   16 1   
    30   15   17 2   
    31   16   18 1   
    32   16   31 1   
    33   16   43 1   
    34   18   32 1   
    35   18   33 1   
    36   19   20 1   
    37   19   34 1   
    38   19   35 1   
    39   20   21 1   
    40   20   22 1   
    41   21   36 1   
    42   21   37 1   
    43   22   23 1   
    44   22   38 1   
    45   23   39 1   
    46   23   40 1   
@<TRIPOS>SUBSTRUCTURE
     1 0M5         1 TEMP              0 ****  ****    0 ROOT
