@<TRIPOS>MOLECULE
0M5
   42    39     1     0     0
SMALL
bcc


@<TRIPOS>ATOM
      1 C01         2.4880    3.9400   -5.1300 c1        1 0M5      0.127000
      2 C02         3.6540    3.5020   -5.7480 c2        1 0M5     -0.125000
      3 C03         4.5270    2.6600   -5.0670 c1        1 0M5     -0.079000
      4 C04         4.2330    2.2570   -3.7700 c1        1 0M5     -0.162000
      5 C05         3.0670    2.6950   -3.1520 c1        1 0M5      0.100000
      6 C06         2.1950    3.5370   -3.8320 c2        1 0M5     -0.213000
      7 C10        -1.0170   -1.5310    1.0440 c3        1 0M5     -0.153000
      8 C11        -0.6940   -2.9200    1.5510 c3        1 0M5     -0.183000
      9 C15        -4.6460   -1.1000    3.6830 cx        1 0M5     -0.199000
     10 CL          3.9980    3.9700   -7.3940 cl        1 0M5      0.013000
     11 F           1.6150    4.7020   -5.8100 f         1 0M5     -0.089000
     12 N01         2.7730    2.2920   -1.8090 n2        1 0M5     -0.296000
     13 C07         1.9200    1.1680   -1.5700 c1        1 0M5      0.292000
     14 O01         1.4430    0.5530   -2.5090 o         1 0M5     -0.342000
     15 C08         1.5600    0.7730   -0.1380 c1        1 0M5      0.282000
     16 N02         0.8810   -0.4660    0.1150 n2        1 0M5     -0.338000
     17 O           1.9210    1.4690    0.7940 o         1 0M5     -0.358000
     18 C09         0.0930   -0.6240    1.3100 c3        1 0M5     -0.030000
     19 C12        -1.4600   -3.0800    2.6390 c3        1 0M5     -0.079000
     20 N          -2.7370   -2.1440    2.4310 n3        1 0M5     -0.214000
     21 C13        -2.3050   -1.0730    1.8450 c3        1 0M5     -0.074000
     22 C14        -3.2960   -1.7980    3.7170 cx        1 0M5     -0.104000
     23 C          -4.5530   -2.5550    4.1150 cx        1 0M5     -0.199000
     24 H01         5.3490    2.3510   -5.5030 ha        1 0M5      0.156000
     25 H02         4.8500    1.6630   -3.2900 ha        1 0M5      0.180000
     26 H03         1.3720    3.8460   -3.3960 ha        1 0M5      0.156000
     27 H08        -1.2100   -1.5590    0.0800 hc        1 0M5      0.108000
     28 H09         0.2580   -2.9840    1.7910 hc        1 0M5      0.088000
     29 H10        -0.9220   -3.5940    0.8700 hc        1 0M5      0.088000
     30 H17        -4.8090   -0.4520    4.4030 hc        1 0M5      0.113750
     31 H16        -5.0240   -0.9440    2.7900 hc        1 0M5      0.113750
     32 H04         3.1100    2.7700   -1.1030 hn        1 0M5      0.262000
     33 H05         0.9740   -1.1650   -0.4680 hn        1 0M5      0.246000
     34 H06         0.6560   -0.9960    2.0270 h1        1 0M5      0.108500
     35 H07        -0.2580    0.2510    1.5890 h1        1 0M5      0.108500
     36 H11        -0.9660   -2.8040    3.4430 h1        1 0M5      0.092500
     37 H12        -1.7410   -4.0210    2.7210 h1        1 0M5      0.092500
     38 H13        -2.0670   -0.3910    2.5120 h1        1 0M5      0.094000
     39 H14        -2.9860   -0.7240    1.2250 h1        1 0M5      0.094000
     40 H15        -2.7010   -1.5410    4.4550 h1        1 0M5      0.093000
     41 H          -4.8790   -3.2140    3.4640 hc        1 0M5      0.113750
     42 H18        -4.6630   -2.7210    5.0770 hc        1 0M5      0.113750
@<TRIPOS>BOND
     1    1    2 1   
     2    1    6 1   
     3    2    3 1   
     4    2   10 1   
     5    3   24 1   
     6    4    5 1   
     7    4   25 1   
     8    5    6 1   
     9    6   26 1   
    10    7    8 1   
    11    7   18 1   
    12    7   21 1   
    13    7   27 1   
    14    8   19 1   
    15    8   28 1   
    16    8   29 1   
    17    9   22 1   
    18    9   23 1   
    19    9   30 1   
    20    9   31 1   
    21   12   13 1   
    22   12   32 1   
    23   13   14 1   
    24   15   17 1   
    25   16   18 1   
    26   16   33 1   
    27   18   34 1   
    28   18   35 1   
    29   19   20 1   
    30   19   36 1   
    31   19   37 1   
    32   20   21 1   
    33   20   22 1   
    34   21   38 1   
    35   21   39 1   
    36   22   23 1   
    37   22   40 1   
    38   23   41 1   
    39   23   42 1   
@<TRIPOS>SUBSTRUCTURE
     1 0M5         1 TEMP              0 ****  ****    0 ROOT
