@<TRIPOS>MOLECULE
0M5
   43    45     1     0     0
SMALL
bcc


@<TRIPOS>ATOM
      1 C01        -0.0300    1.5470    0.8610 ca        1 0M5      0.164900
      2 C02         1.3680    1.6690    1.0170 ca        1 0M5     -0.016600
      3 C03         2.0210    0.8480    1.9440 ca        1 0M5     -0.076000
      4 C04         1.3200   -0.0770    2.7040 ca        1 0M5     -0.153000
      5 C05        -0.0810   -0.2010    2.5500 ca        1 0M5      0.035600
      6 C06        -0.7540    0.6120    1.6270 ca        1 0M5     -0.170000
      7 C10        -6.1290   -2.6330    5.5750 c3        1 0M5     -0.105700
      8 C11        -6.3780   -4.1160    5.8580 c3        1 0M5     -0.103400
      9 C15        -7.9410   -3.0250   10.2040 cx        1 0M5     -0.108900
     10 Cl          2.2670    2.7780    0.1160 cl        1 0M5     -0.017400
     11 F          -0.7090    2.3150   -0.0190 f         1 0M5     -0.103900
     12 N01        -0.7490   -1.1570    3.3600 ns        1 0M5     -0.392100
     13 C07        -2.0650   -1.4820    3.2810 c         1 0M5      0.617100
     14 O01        -2.9400   -1.0180    2.5300 o         1 0M5     -0.555100
     15 C08        -2.5100   -2.5830    4.2780 c         1 0M5      0.441100
     16 N02        -3.9830   -2.8630    4.2820 ny        1 0M5     -0.667800
     17 O          -1.7980   -3.2330    5.0260 o         1 0M5     -0.389100
     18 C09        -4.6450   -2.2870    5.4980 c3        1 0M5      0.115800
     19 C12        -6.8530   -4.1970    7.3200 c3        1 0M5      0.160800
     20 N          -6.8550   -2.8450    7.8870 n3        1 0M5     -0.701600
     21 C13        -6.7370   -1.8860    6.7890 c3        1 0M5      0.171800
     22 C14        -7.9770   -2.5820    8.7520 cx        1 0M5      0.078500
     23 C          -7.8570   -1.5670    9.8750 cx        1 0M5     -0.108900
     24 H01         3.1140    0.9360    2.0730 ha        1 0M5      0.173000
     25 H02         1.8730   -0.7040    3.4220 ha        1 0M5      0.152000
     26 H03        -1.8440    0.5500    1.4700 ha        1 0M5      0.185000
     27 H08        -6.6510   -2.3070    4.6370 hc        1 0M5      0.077700
     28 H09        -5.4620   -4.7390    5.7230 hc        1 0M5      0.053700
     29 H10        -7.1680   -4.5150    5.1740 hc        1 0M5      0.053700
     30 H04        -0.1710   -1.6490    4.0150 hn        1 0M5      0.356500
     31 H05        -4.1430   -3.8790    4.2660 hn        1 0M5      0.475800
     32 H06        -4.5130   -1.1680    5.4540 hx        1 0M5      0.117200
     33 H07        -4.1120   -2.6920    6.4080 hx        1 0M5      0.117200
     34 H11        -6.1430   -4.8130    7.9360 h1        1 0M5      0.063700
     35 H12        -7.8650   -4.6880    7.3660 h1        1 0M5      0.063700
     36 H13        -6.0790   -1.0460    7.1370 h1        1 0M5      0.061200
     37 H14        -7.7270   -1.4440    6.4810 h1        1 0M5      0.061200
     38 H15        -8.9660   -2.6420    8.2380 h1        1 0M5      0.067700
     39 H          -8.7260   -0.9140   10.0700 hc        1 0M5      0.082450
     40 H18        -6.8990   -1.0420   10.0340 hc        1 0M5      0.082450
     41 H17        -7.0430   -3.5360   10.5960 hc        1 0M5      0.082450
     42 H022       -4.4020   -2.4460    3.4350 hn        1 0M5      0.475800
     43 H16        -8.8730   -3.4330   10.6370 hc        1 0M5      0.082450
@<TRIPOS>BOND
     1    1    2 ar  
     2    1    6 ar  
     3    1   11 1   
     4    2    3 ar  
     5    2   10 1   
     6    3    4 ar  
     7    3   24 1   
     8    4    5 ar  
     9    4   25 1   
    10    5    6 ar  
    11    5   12 1   
    12    6   26 1   
    13    7    8 1   
    14    7   18 1   
    15    7   21 1   
    16    7   27 1   
    17    8   19 1   
    18    8   28 1   
    19    8   29 1   
    20    9   22 1   
    21    9   23 1   
    22    9   41 1   
    23    9   43 1   
    24   12   13 1   
    25   12   30 1   
    26   13   14 2   
    27   13   15 1   
    28   15   16 1   
    29   15   17 2   
    30   16   18 1   
    31   16   31 1   
    32   16   42 1   
    33   18   32 1   
    34   18   33 1   
    35   19   20 1   
    36   19   34 1   
    37   19   35 1   
    38   20   21 1   
    39   20   22 1   
    40   21   36 1   
    41   21   37 1   
    42   22   23 1   
    43   22   38 1   
    44   23   39 1   
    45   23   40 1   
@<TRIPOS>SUBSTRUCTURE
     1 0M5         1 TEMP              0 ****  ****    0 ROOT
