@<TRIPOS>MOLECULE
0M5
   42    44     1     0     0
SMALL
bcc


@<TRIPOS>ATOM
      1 C01        -5.0150   -0.9510   -0.1030 ca        1 0M5      0.161900
      2 C02        -5.9540   -0.0200    0.3860 ca        1 0M5     -0.049600
      3 C03        -5.5120    1.2480    0.7760 ca        1 0M5     -0.077000
      4 C04        -4.1740    1.5970    0.6880 ca        1 0M5     -0.183000
      5 C05        -3.2190    0.6700    0.1970 ca        1 0M5      0.092600
      6 C06        -3.6530   -0.6070   -0.1970 ca        1 0M5     -0.191000
      7 C10         3.8990    0.0800   -0.1370 c3        1 0M5     -0.115700
      8 C11         4.1020   -1.2810   -0.8010 c3        1 0M5     -0.101400
      9 C15         8.6070   -1.0560    0.4100 cx        1 0M5     -0.120400
     10 CL         -7.6020   -0.3990    0.5130 cl        1 0M5     -0.065400
     11 F          -5.3930   -2.1900   -0.4920 f         1 0M5     -0.121900
     12 N01        -1.8790    1.0810    0.1140 n         1 0M5     -0.442100
     13 C07        -0.7900    0.3090   -0.2270 c         1 0M5      0.597100
     14 O01        -0.8370   -0.8900   -0.5510 o         1 0M5     -0.579100
     15 C08         0.5670    1.0540   -0.1870 c         1 0M5      0.588100
     16 N02         1.5690    0.4950   -0.9350 n         1 0M5     -0.528900
     17 O           0.6880    2.1150    0.4560 o         1 0M5     -0.598100
     18 C09         2.9240    0.9820   -0.8950 c3        1 0M5      0.088000
     19 C12         5.6210   -1.4510   -0.9680 c3        1 0M5      0.158800
     20 N           6.3140   -0.2740   -0.4340 n3        1 0M5     -0.690600
     21 C13         5.3000    0.7300   -0.1000 c3        1 0M5      0.163800
     22 C14         7.1880   -0.5830    0.6700 cx        1 0M5      0.094500
     23 C           8.3750    0.3100    0.9790 cx        1 0M5     -0.120400
     24 H01        -6.2390    1.9820    1.1600 ha        1 0M5      0.154000
     25 H02        -3.8630    2.6050    1.0060 ha        1 0M5      0.145000
     26 H03        -2.9490   -1.3640   -0.5830 ha        1 0M5      0.190000
     27 H08         3.5320   -0.0620    0.9140 hc        1 0M5      0.062700
     28 H09         3.6810   -2.0990   -0.1680 hc        1 0M5      0.049200
     29 H10         3.6010   -1.3300   -1.7990 hc        1 0M5      0.049200
     30 H16         8.9670   -1.1440   -0.6300 hc        1 0M5      0.074200
     31 H04        -1.6860    2.0160    0.4180 hn        1 0M5      0.347500
     32 H05         1.4240   -0.4210   -1.3000 hn        1 0M5      0.333500
     33 H06         2.9300    2.0050   -0.4180 h1        1 0M5      0.071700
     34 H07         3.2750    1.0860   -1.9640 h1        1 0M5      0.071700
     35 H11         5.9670   -2.4010   -0.4760 h1        1 0M5      0.051200
     36 H12         5.8840   -1.5130   -2.0590 h1        1 0M5      0.051200
     37 H13         5.3770    1.5370   -0.8810 h1        1 0M5      0.054200
     38 H14         5.4860    1.2000    0.9030 h1        1 0M5      0.054200
     39 H15         6.6720   -1.0380    1.5490 h1        1 0M5      0.056700
     40 H           8.6110    0.5020    2.0410 hc        1 0M5      0.074200
     41 H18         8.5710    1.1910    0.3430 hc        1 0M5      0.074200
     42 H17         9.0100   -1.8530    1.0590 hc        1 0M5      0.074200
@<TRIPOS>BOND
     1    1    2 ar  
     2    1    6 ar  
     3    1   11 1   
     4    2    3 ar  
     5    2   10 1   
     6    3    4 ar  
     7    3   24 1   
     8    4    5 ar  
     9    4   25 1   
    10    5    6 ar  
    11    5   12 1   
    12    6   26 1   
    13    7    8 1   
    14    7   18 1   
    15    7   21 1   
    16    7   27 1   
    17    8   19 1   
    18    8   28 1   
    19    8   29 1   
    20    9   22 1   
    21    9   23 1   
    22    9   30 1   
    23    9   42 1   
    24   12   13 1   
    25   12   31 1   
    26   13   14 2   
    27   13   15 1   
    28   15   16 1   
    29   15   17 2   
    30   16   18 1   
    31   16   32 1   
    32   18   33 1   
    33   18   34 1   
    34   19   20 1   
    35   19   35 1   
    36   19   36 1   
    37   20   21 1   
    38   20   22 1   
    39   21   37 1   
    40   21   38 1   
    41   22   23 1   
    42   22   39 1   
    43   23   40 1   
    44   23   41 1   
@<TRIPOS>SUBSTRUCTURE
     1 0M5         1 TEMP              0 ****  ****    0 ROOT
