@<TRIPOS>MOLECULE
0M6
   53    53     1     0     0
SMALL
bcc


@<TRIPOS>ATOM
      1 CAK        -0.5410    0.5040   -0.6370 ca        1 0M6     -0.108000
      2 CAI         0.5820    1.2880   -0.8990 ca        1 0M6     -0.101500
      3 CAH         1.5260    1.5380    0.0940 ca        1 0M6     -0.060000
      4 CAJ         1.3520    0.9930    1.3720 ca        1 0M6     -0.101500
      5 CAL         0.2450    0.2070    1.6590 ca        1 0M6     -0.108000
      6 CAV        -0.7200   -0.0440    0.6470 ca        1 0M6     -0.048400
      7 NAP        -1.8170   -0.8730    1.0100 n         1 0M6     -0.273100
      8 CAU        -2.9680   -1.0310    0.3290 c         1 0M6      0.326400
      9 SAG        -3.4630   -0.4490   -1.0660 s         1 0M6     -0.350400
     10 N          -4.0100   -1.9330    1.0210 n4        1 0M6     -0.645800
     11 CA         -4.9890   -2.5200    0.0330 c3        1 0M6      0.063500
     12 CB         -5.9020   -3.5410    0.7350 c3        1 0M6     -0.114400
     13 CG         -6.7530   -4.3450   -0.2430 c3        1 0M6     -0.078700
     14 CD2        -5.9180   -5.0910   -1.2600 c3        1 0M6     -0.106100
     15 CD1        -7.5940   -5.3260    0.5570 c3        1 0M6     -0.106100
     16 C          -5.8460   -1.3880   -0.5640 c         1 0M6      0.552100
     17 O          -6.3970   -0.5420    0.1350 o         1 0M6     -0.436100
     18 NAQ        -6.1530   -1.4790   -2.0180 n4        1 0M6     -0.648800
     19 CAZ        -7.2530   -0.5450   -2.4810 c3        1 0M6      0.114500
     20 CAX        -8.6210   -0.9770   -1.8980 c3        1 0M6      0.106400
     21 OAF        -8.7870   -2.3640   -2.1000 oh        1 0M6     -0.632800
     22 CAN        -7.3350   -0.5190   -4.0080 c3        1 0M6     -0.123400
     23 CAM        -6.0730   -0.0340   -4.7020 c3        1 0M6      0.115400
     24 OAE        -5.0830   -1.0460   -4.5670 oh        1 0M6     -0.671800
     25 H1         -1.2660    0.3290   -1.4510 ha        1 0M6      0.159500
     26 H2          0.7170    1.7130   -1.9080 ha        1 0M6      0.175000
     27 H3          2.4110    2.1620   -0.1220 ha        1 0M6      0.178000
     28 H4          2.0990    1.1880    2.1600 ha        1 0M6      0.175000
     29 H5          0.1350   -0.2090    2.6740 ha        1 0M6      0.159500
     30 H6         -1.6890   -1.3200    1.9050 hn        1 0M6      0.349500
     31 H7         -3.5750   -2.7170    1.5260 hn        1 0M6      0.471800
     32 H8         -4.3800   -3.0450   -0.7680 hx        1 0M6      0.146700
     33 H9         -6.5800   -3.0070    1.4560 hc        1 0M6      0.092700
     34 H10        -5.2700   -4.2670    1.3170 hc        1 0M6      0.092700
     35 H11        -7.4630   -3.6480   -0.7760 hc        1 0M6      0.064700
     36 H12        -5.1280   -5.7030   -0.7600 hc        1 0M6      0.058033
     37 H13        -5.4280   -4.3950   -1.9840 hc        1 0M6      0.058033
     38 H14        -6.5700   -5.7880   -1.8450 hc        1 0M6      0.058033
     39 H15        -8.2850   -5.8750   -0.1290 hc        1 0M6      0.058033
     40 H16        -6.9460   -6.0730    1.0760 hc        1 0M6      0.058033
     41 H17        -8.2080   -4.7900    1.3200 hc        1 0M6      0.058033
     42 H18        -5.2870   -1.2720   -2.5550 hn        1 0M6      0.493800
     43 H19        -6.9990    0.4830   -2.0850 hx        1 0M6      0.124700
     44 H20        -9.4250   -0.3640   -2.3820 h1        1 0M6      0.093700
     45 H21        -8.6390   -0.8000   -0.7860 h1        1 0M6      0.093700
     46 H22        -9.5520   -2.5070   -2.6730 ho        1 0M6      0.454000
     47 H23        -7.6120   -1.5380   -4.3920 hc        1 0M6      0.102200
     48 H24        -8.1680    0.1890   -4.2760 hc        1 0M6      0.102200
     49 H25        -5.6860    0.9100   -4.2300 h1        1 0M6      0.069700
     50 H26        -6.2980    0.1620   -5.7850 h1        1 0M6      0.069700
     51 H27        -4.4870   -0.9860   -5.3250 ho        1 0M6      0.457000
     52 H28        -4.5330   -1.3590    1.7020 hn        1 0M6      0.471800
     53 HAQ2       -6.4570   -2.4440   -2.2390 hn        1 0M6      0.493800
@<TRIPOS>BOND
     1    1    2 ar  
     2    1    6 ar  
     3    1   25 1   
     4    2    3 ar  
     5    2   26 1   
     6    3    4 ar  
     7    3   27 1   
     8    4    5 ar  
     9    4   28 1   
    10    5    6 ar  
    11    5   29 1   
    12    6    7 1   
    13    7    8 1   
    14    7   30 1   
    15    8    9 2   
    16    8   10 1   
    17   10   11 1   
    18   10   31 1   
    19   10   52 1   
    20   11   12 1   
    21   11   16 1   
    22   11   32 1   
    23   12   13 1   
    24   12   33 1   
    25   12   34 1   
    26   13   14 1   
    27   13   15 1   
    28   13   35 1   
    29   14   36 1   
    30   14   37 1   
    31   14   38 1   
    32   15   39 1   
    33   15   40 1   
    34   15   41 1   
    35   16   17 2   
    36   16   18 1   
    37   18   19 1   
    38   18   42 1   
    39   18   53 1   
    40   19   20 1   
    41   19   22 1   
    42   19   43 1   
    43   20   21 1   
    44   20   44 1   
    45   20   45 1   
    46   21   46 1   
    47   22   23 1   
    48   22   47 1   
    49   22   48 1   
    50   23   24 1   
    51   23   49 1   
    52   23   50 1   
    53   24   51 1   
@<TRIPOS>SUBSTRUCTURE
     1 0M6         1 TEMP              0 ****  ****    0 ROOT
