@<TRIPOS>MOLECULE
0M6
   53    53     1     0     0
SMALL
bcc


@<TRIPOS>ATOM
      1 CAK        -0.8510    1.0530   -0.3240 ca        1 0M6     -0.106500
      2 CAI         0.2990    1.7750   -0.6420 ca        1 0M6     -0.102000
      3 CAH         1.5060    1.5170    0.0030 ca        1 0M6     -0.060000
      4 CAJ         1.5700    0.5240    0.9870 ca        1 0M6     -0.102000
      5 CAL         0.4410   -0.2080    1.3270 ca        1 0M6     -0.106500
      6 CAV        -0.7890    0.0530    0.6650 ca        1 0M6     -0.050400
      7 NAP        -1.9120   -0.7140    1.0830 ns        1 0M6     -0.274100
      8 CAU        -3.0560   -0.8940    0.3970 c         1 0M6      0.328400
      9 SAG        -3.5540   -0.3160   -1.0000 s         1 0M6     -0.350400
     10 N          -4.0960   -1.7960    1.0910 ny        1 0M6     -0.644800
     11 CA         -5.0210   -2.4460    0.0910 c3        1 0M6      0.063500
     12 CB         -5.9230   -3.4760    0.7950 c3        1 0M6     -0.114400
     13 CG         -6.7150   -4.3350   -0.1850 c3        1 0M6     -0.078700
     14 CD2        -5.8230   -5.0860   -1.1490 c3        1 0M6     -0.106100
     15 CD1        -7.5530   -5.3170    0.6170 c3        1 0M6     -0.106100
     16 C          -5.8980   -1.3630   -0.5680 c         1 0M6      0.552100
     17 O          -6.5110   -0.5260    0.0890 o         1 0M6     -0.437100
     18 NAQ        -6.1430   -1.5040   -2.0290 ny        1 0M6     -0.649800
     19 CAZ        -7.2590   -0.6260   -2.5600 c3        1 0M6      0.114500
     20 CAX        -8.6310   -1.0960   -2.0190 c3        1 0M6      0.106400
     21 OAF        -8.7370   -2.4940   -2.1900 oh        1 0M6     -0.631800
     22 CAN        -7.2810   -0.6430   -4.0890 c3        1 0M6     -0.122400
     23 CAM        -6.0120   -0.1290   -4.7470 c3        1 0M6      0.115400
     24 OAE        -4.9920   -1.0980   -4.5450 oh        1 0M6     -0.671800
     25 H1         -1.7910    1.2890   -0.8520 ha        1 0M6      0.159500
     26 H2          0.2420    2.5610   -1.4150 ha        1 0M6      0.174500
     27 H3          2.4110    2.0930   -0.2580 ha        1 0M6      0.178000
     28 H4          2.5250    0.3190    1.5010 ha        1 0M6      0.174500
     29 H5          0.5190   -0.9810    2.1090 ha        1 0M6      0.159500
     30 H6         -1.7660   -1.1750    1.9680 hn        1 0M6      0.350500
     31 H7         -4.6570   -1.2090    1.7300 hn        1 0M6      0.471800
     32 H8         -4.3700   -2.9730   -0.6720 hx        1 0M6      0.146700
     33 H9         -5.2870   -4.1630    1.4190 hc        1 0M6      0.092700
     34 H10        -6.6410   -2.9450    1.4780 hc        1 0M6      0.092700
     35 H11        -7.4260   -3.6770   -0.7640 hc        1 0M6      0.064700
     36 H12        -5.0340   -5.6580   -0.6030 hc        1 0M6      0.057867
     37 H13        -6.4330   -5.8200   -1.7340 hc        1 0M6      0.057867
     38 H14        -5.3280   -4.3970   -1.8760 hc        1 0M6      0.057867
     39 H15        -6.9020   -6.0270    1.1810 hc        1 0M6      0.057867
     40 H16        -8.2030   -5.9090   -0.0740 hc        1 0M6      0.057867
     41 H17        -8.2100   -4.7770    1.3410 hc        1 0M6      0.057867
     42 H18        -6.4020   -2.4850   -2.2350 hn        1 0M6      0.493800
     43 H19        -7.0610    0.4210   -2.1830 hx        1 0M6      0.124700
     44 H20        -9.4380   -0.5280   -2.5500 h1        1 0M6      0.093700
     45 H21        -8.7000   -0.8930   -0.9140 h1        1 0M6      0.093700
     46 H22        -9.4710   -2.6810   -2.7910 ho        1 0M6      0.454000
     47 H23        -8.1290    0.0250   -4.4090 hc        1 0M6      0.102200
     48 H24        -7.5040   -1.6810   -4.4550 hc        1 0M6      0.102200
     49 H25        -6.2010    0.0280   -5.8440 h1        1 0M6      0.069200
     50 H26        -5.6810    0.8430   -4.2890 h1        1 0M6      0.069200
     51 H27        -4.3580   -1.0220   -5.2700 ho        1 0M6      0.457000
     52 H28        -3.6600   -2.5470    1.6430 hn        1 0M6      0.471800
     53 HAQ2       -5.2650   -1.2760   -2.5380 hn        1 0M6      0.493800
@<TRIPOS>BOND
     1    1    2 ar  
     2    1    6 ar  
     3    1   25 1   
     4    2    3 ar  
     5    2   26 1   
     6    3    4 ar  
     7    3   27 1   
     8    4    5 ar  
     9    4   28 1   
    10    5    6 ar  
    11    5   29 1   
    12    6    7 1   
    13    7    8 1   
    14    7   30 1   
    15    8    9 2   
    16    8   10 1   
    17   10   11 1   
    18   10   31 1   
    19   10   52 1   
    20   11   12 1   
    21   11   16 1   
    22   11   32 1   
    23   12   13 1   
    24   12   33 1   
    25   12   34 1   
    26   13   14 1   
    27   13   15 1   
    28   13   35 1   
    29   14   36 1   
    30   14   37 1   
    31   14   38 1   
    32   15   39 1   
    33   15   40 1   
    34   15   41 1   
    35   16   17 2   
    36   16   18 1   
    37   18   19 1   
    38   18   42 1   
    39   18   53 1   
    40   19   20 1   
    41   19   22 1   
    42   19   43 1   
    43   20   21 1   
    44   20   44 1   
    45   20   45 1   
    46   21   46 1   
    47   22   23 1   
    48   22   47 1   
    49   22   48 1   
    50   23   24 1   
    51   23   49 1   
    52   23   50 1   
    53   24   51 1   
@<TRIPOS>SUBSTRUCTURE
     1 0M6         1 TEMP              0 ****  ****    0 ROOT
