@<TRIPOS>MOLECULE
0M6
   54    54     1     0     0
SMALL
bcc


@<TRIPOS>ATOM
      1 CAK         0.1360    0.6900    1.3990 ca        1 0M6     -0.091500
      2 CAI         1.4470    0.4790    1.8200 ca        1 0M6     -0.086500
      3 CAH         1.9080   -0.8130    2.0910 ca        1 0M6     -0.016000
      4 CAJ         1.0520   -1.9100    1.9430 ca        1 0M6     -0.086500
      5 CAL        -0.2630   -1.7310    1.5240 ca        1 0M6     -0.091500
      6 CAV        -0.7200   -0.4220    1.2590 ca        1 0M6     -0.123400
      7 NAP        -2.1350   -0.2050    0.9250 n4        1 0M6     -0.457200
      8 CAU        -2.3870   -0.2460   -0.5610 c         1 0M6     -0.066600
      9 SAG        -1.3610   -0.4740   -1.6290 s         1 0M6      0.415600
     10 N          -3.8480    0.0430   -0.8970 n4        1 0M6     -0.642800
     11 CA         -4.6890   -1.1850   -1.2020 c3        1 0M6      0.049500
     12 CB         -4.6990   -2.1790   -0.0340 c3        1 0M6     -0.117400
     13 CG         -5.4650   -3.4710   -0.3170 c3        1 0M6     -0.080700
     14 CD2        -4.9310   -4.2050   -1.5270 c3        1 0M6     -0.112100
     15 CD1        -5.3610   -4.3620    0.9120 c3        1 0M6     -0.112100
     16 C          -6.1380   -0.7140   -1.4910 c         1 0M6      0.517100
     17 O          -6.6270    0.2340   -0.8870 o         1 0M6     -0.390100
     18 NAQ        -6.9060   -1.4450   -2.5140 n4        1 0M6     -0.665800
     19 CAZ        -8.3870   -1.0620   -2.5820 c3        1 0M6      0.124500
     20 CAX        -9.1720   -1.7560   -1.4430 c3        1 0M6      0.106400
     21 OAF        -8.7170   -3.0870   -1.3120 oh        1 0M6     -0.649800
     22 CAN        -8.9540   -1.4180   -3.9560 c3        1 0M6     -0.140400
     23 CAM        -8.4270   -0.5310   -5.0740 c3        1 0M6      0.114400
     24 OAE        -7.0350   -0.7670   -5.2450 oh        1 0M6     -0.690800
     25 H1         -0.2070    1.7200    1.2080 ha        1 0M6      0.157500
     26 H2          2.1230    1.3470    1.9470 ha        1 0M6      0.202000
     27 H3          2.9520   -0.9680    2.4300 ha        1 0M6      0.207000
     28 H4          1.4180   -2.9300    2.1670 ha        1 0M6      0.202000
     29 H5         -0.9230   -2.6080    1.4300 ha        1 0M6      0.157500
     30 H6         -2.6920   -0.9350    1.3990 hn        1 0M6      0.476800
     31 H7         -3.8350    0.6420   -1.7420 hn        1 0M6      0.478300
     32 H8         -4.2340   -1.6790   -2.1160 hx        1 0M6      0.149700
     33 H9         -5.1490   -1.6940    0.8750 hc        1 0M6      0.078700
     34 H10        -3.6380   -2.4730    0.1940 hc        1 0M6      0.078700
     35 H11        -6.5600   -3.2350   -0.4560 hc        1 0M6      0.075700
     36 H12        -5.0330   -3.6020   -2.4620 hc        1 0M6      0.064533
     37 H13        -3.8540   -4.4730   -1.3920 hc        1 0M6      0.064533
     38 H14        -5.4990   -5.1610   -1.6670 hc        1 0M6      0.064533
     39 H15        -5.7570   -3.8410    1.8160 hc        1 0M6      0.064533
     40 H16        -4.3030   -4.6660    1.0970 hc        1 0M6      0.064533
     41 H17        -5.9660   -5.2900    0.7520 hc        1 0M6      0.064533
     42 H18        -6.4850   -1.2790   -3.4520 hn        1 0M6      0.506300
     43 H19        -8.4490    0.0580   -2.4300 hx        1 0M6      0.129700
     44 H20        -8.9640   -1.2330   -0.4680 h1        1 0M6      0.098700
     45 H21       -10.2700   -1.6880   -1.6700 h1        1 0M6      0.098700
     46 H22        -9.4740   -3.6880   -1.3810 ho        1 0M6      0.473000
     47 H23       -10.0700   -1.2670   -3.8980 hc        1 0M6      0.112200
     48 H24        -8.7760   -2.5000   -4.1940 hc        1 0M6      0.112200
     49 H25        -8.9990   -0.7420   -6.0180 h1        1 0M6      0.091200
     50 H26        -8.5420    0.5580   -4.8150 h1        1 0M6      0.091200
     51 H27        -6.8760   -1.0270   -6.1630 ho        1 0M6      0.467000
     52 HAP2       -2.4030    0.7190    1.3060 hn        1 0M6      0.476800
     53 H28        -4.3290    0.5770   -0.1540 hn        1 0M6      0.478300
     54 HAQ2       -6.8680   -2.4660   -2.3130 hn        1 0M6      0.506300
@<TRIPOS>BOND
     1    1    2 ar  
     2    1    6 ar  
     3    1   25 1   
     4    2    3 ar  
     5    2   26 1   
     6    3    4 ar  
     7    3   27 1   
     8    4    5 ar  
     9    4   28 1   
    10    5    6 ar  
    11    5   29 1   
    12    6    7 1   
    13    7    8 1   
    14    7   30 1   
    15    7   52 1   
    16    8    9 2   
    17    8   10 1   
    18   10   11 1   
    19   10   31 1   
    20   10   53 1   
    21   11   12 1   
    22   11   16 1   
    23   11   32 1   
    24   12   13 1   
    25   12   33 1   
    26   12   34 1   
    27   13   14 1   
    28   13   15 1   
    29   13   35 1   
    30   14   36 1   
    31   14   37 1   
    32   14   38 1   
    33   15   39 1   
    34   15   40 1   
    35   15   41 1   
    36   16   17 2   
    37   16   18 1   
    38   18   19 1   
    39   18   42 1   
    40   18   54 1   
    41   19   20 1   
    42   19   22 1   
    43   19   43 1   
    44   20   21 1   
    45   20   44 1   
    46   20   45 1   
    47   21   46 1   
    48   22   23 1   
    49   22   47 1   
    50   22   48 1   
    51   23   24 1   
    52   23   49 1   
    53   23   50 1   
    54   24   51 1   
@<TRIPOS>SUBSTRUCTURE
     1 0M6         1 TEMP              0 ****  ****    0 ROOT
