@<TRIPOS>MOLECULE
0M6
   51    51     1     0     0
SMALL
bcc


@<TRIPOS>ATOM
      1 CAK         4.2720    1.6880   -0.5550 ca        1 0M6     -0.140000
      2 CAI         5.5300    2.1930   -0.8790 ca        1 0M6     -0.117000
      3 CAH         6.6660    1.7840   -0.1860 ca        1 0M6     -0.137000
      4 CAJ         6.5440    0.8520    0.8450 ca        1 0M6     -0.117000
      5 CAL         5.3020    0.3280    1.1800 ca        1 0M6     -0.140000
      6 CAV         4.1420    0.7420    0.4810 ca        1 0M6      0.040600
      7 NAP         2.8910    0.2330    0.9000 n         1 0M6     -0.416100
      8 CAU         1.8600   -0.1600    0.0510 c         1 0M6      0.575400
      9 SAG         1.7510    0.2960   -1.5040 s         1 0M6     -0.571400
     10 N           0.9020   -1.0020    0.6200 n         1 0M6     -0.503900
     11 CA         -0.3970   -1.1740    0.0010 c3        1 0M6      0.012700
     12 CB         -0.7880   -2.6590   -0.0770 c3        1 0M6     -0.080400
     13 CG         -2.0230   -2.9040   -0.9320 c3        1 0M6     -0.074700
     14 CD2        -1.7790   -2.5710   -2.3890 c3        1 0M6     -0.092100
     15 CD1        -2.4390   -4.3570   -0.7950 c3        1 0M6     -0.092100
     16 C          -1.4830   -0.4400    0.8310 c         1 0M6      0.627100
     17 O          -1.4710   -0.4950    2.0790 o         1 0M6     -0.624100
     18 NAQ        -2.4090    0.3080    0.1360 n         1 0M6     -0.526900
     19 CAZ        -3.6020    0.8100    0.7850 c3        1 0M6      0.094700
     20 CAX        -4.7060   -0.2630    0.9350 c3        1 0M6      0.098400
     21 OAF        -4.9990   -0.7800   -0.3530 oh        1 0M6     -0.609800
     22 CAN        -4.1940    2.0210    0.0550 c3        1 0M6     -0.088400
     23 CAM        -3.2040    3.1690   -0.0260 c3        1 0M6      0.133400
     24 OAE        -3.9430    4.3170   -0.4180 oh        1 0M6     -0.605800
     25 H1          3.3850    2.0150   -1.1270 ha        1 0M6      0.155000
     26 H2          5.6170    2.9270   -1.6950 ha        1 0M6      0.135500
     27 H3          7.6540    2.1890   -0.4500 ha        1 0M6      0.134000
     28 H4          7.4380    0.5230    1.3980 ha        1 0M6      0.135500
     29 H5          5.2320   -0.4080    1.9960 ha        1 0M6      0.155000
     30 H6          2.9090   -0.1400    1.8290 hn        1 0M6      0.307500
     31 H7          0.8960   -1.1540    1.6090 hn        1 0M6      0.313500
     32 H8         -0.3380   -0.7510   -1.0550 h1        1 0M6      0.133700
     33 H9          0.0700   -3.2410   -0.5080 hc        1 0M6      0.060700
     34 H10        -0.9760   -3.0440    0.9610 hc        1 0M6      0.060700
     35 H11        -2.8730   -2.2640   -0.5550 hc        1 0M6      0.055700
     36 H12        -2.6490   -2.8990   -3.0090 hc        1 0M6      0.037367
     37 H13        -1.6470   -1.4710   -2.5310 hc        1 0M6      0.037367
     38 H14        -0.8620   -3.0880   -2.7640 hc        1 0M6      0.037367
     39 H15        -2.6480   -4.6050    0.2730 hc        1 0M6      0.037367
     40 H16        -3.3620   -4.5510   -1.3930 hc        1 0M6      0.037367
     41 H17        -1.6300   -5.0320   -1.1640 hc        1 0M6      0.037367
     42 H18        -2.4940    0.1490   -0.8450 hn        1 0M6      0.318500
     43 H19        -3.3090    1.1180    1.8350 h1        1 0M6      0.087700
     44 H20        -4.3460   -1.0910    1.6040 h1        1 0M6      0.037200
     45 H21        -5.6200    0.2070    1.3840 h1        1 0M6      0.037200
     46 H22        -5.7130   -1.4170   -0.2390 ho        1 0M6      0.406000
     47 H23        -4.5270    1.7280   -0.9750 hc        1 0M6      0.068200
     48 H24        -5.1030    2.3600    0.6170 hc        1 0M6      0.068200
     49 H25        -2.7250    3.3510    0.9730 h1        1 0M6      0.029200
     50 H26        -2.4000    2.9540   -0.7800 h1        1 0M6      0.029200
     51 H27        -3.3020    5.0270   -0.5410 ho        1 0M6      0.402000
@<TRIPOS>BOND
     1    1    2 ar  
     2    1    6 ar  
     3    1   25 1   
     4    2    3 ar  
     5    2   26 1   
     6    3    4 ar  
     7    3   27 1   
     8    4    5 ar  
     9    4   28 1   
    10    5    6 ar  
    11    5   29 1   
    12    6    7 1   
    13    7    8 1   
    14    7   30 1   
    15    8    9 2   
    16    8   10 1   
    17   10   11 1   
    18   10   31 1   
    19   11   12 1   
    20   11   16 1   
    21   11   32 1   
    22   12   13 1   
    23   12   33 1   
    24   12   34 1   
    25   13   14 1   
    26   13   15 1   
    27   13   35 1   
    28   14   36 1   
    29   14   37 1   
    30   14   38 1   
    31   15   39 1   
    32   15   40 1   
    33   15   41 1   
    34   16   17 2   
    35   16   18 1   
    36   18   19 1   
    37   18   42 1   
    38   19   20 1   
    39   19   22 1   
    40   19   43 1   
    41   20   21 1   
    42   20   44 1   
    43   20   45 1   
    44   21   46 1   
    45   22   23 1   
    46   22   47 1   
    47   22   48 1   
    48   23   24 1   
    49   23   49 1   
    50   23   50 1   
    51   24   51 1   
@<TRIPOS>SUBSTRUCTURE
     1 0M6         1 TEMP              0 ****  ****    0 ROOT
