@<TRIPOS>MOLECULE
0M6
   51    47     1     0     0
SMALL
bcc


@<TRIPOS>ATOM
      1 CAK         4.2530    2.0100   -0.3350 c1        1 0M6     -0.112000
      2 CAI         5.5340    2.2870   -0.7860 c1        1 0M6     -0.132000
      3 CAH         6.6300    1.9580   -0.0050 c1        1 0M6     -0.132000
      4 CAJ         6.4450    1.3510    1.2280 c1        1 0M6     -0.132000
      5 CAL         5.1640    1.0740    1.6790 c1        1 0M6     -0.132000
      6 CAV         4.0680    1.4030    0.8970 c1        1 0M6      0.050000
      7 NAP         2.7540    1.1860    1.3900 n3        1 0M6     -0.276000
      8 CAU         1.8790    0.2990    0.7110 c1        1 0M6      0.182000
      9 SAG         2.4520   -0.6390   -0.5510 s         1 0M6     -0.328000
     10 N           0.5240    0.1870    1.1200 n2        1 0M6     -0.336000
     11 CA         -0.2770   -0.8830    0.6400 c3        1 0M6      0.000000
     12 CB         -0.3250   -1.9810    1.6780 c3        1 0M6     -0.160000
     13 CG         -0.6680   -3.2940    1.0080 c3        1 0M6     -0.104000
     14 CD2         0.5940   -4.1070    0.8180 c3        1 0M6     -0.211000
     15 CD1        -1.6380   -4.0650    1.8760 c3        1 0M6     -0.211000
     16 C          -1.6780   -0.3820    0.3700 c2        1 0M6      0.284000
     17 O          -2.4900   -0.3350    1.2720 o         1 0M6     -0.372000
     18 NAQ        -2.0540   -0.0020   -0.9450 n         1 0M6     -0.375000
     19 CAZ        -3.0590    0.9820   -1.1380 c3        1 0M6      0.018000
     20 CAX        -4.4230    0.3420   -1.0120 c3        1 0M6     -0.035000
     21 OAF        -5.4070    1.3470   -0.9040 oh        1 0M6     -0.331000
     22 CAN        -2.9130    1.5880   -2.5160 c3        1 0M6     -0.174000
     23 CAM        -3.2750    3.0560   -2.4630 c3        1 0M6     -0.022000
     24 OAE        -3.4710    3.5400   -3.7740 oh        1 0M6     -0.335000
     25 H1          3.4810    2.2420   -0.8860 ha        1 0M6      0.178000
     26 H2          5.6640    2.7140   -1.6540 ha        1 0M6      0.134750
     27 H3          7.5320    2.1530   -0.3220 ha        1 0M6      0.134750
     28 H4          7.2170    1.1190    1.7780 ha        1 0M6      0.134750
     29 H5          5.0340    0.6470    2.5470 ha        1 0M6      0.134750
     30 H6          2.4780    1.6040    2.1520 hn        1 0M6      0.225000
     31 H7          0.1760    0.7870    1.7130 hn        1 0M6      0.231000
     32 H8          0.1090   -1.2330   -0.1870 h1        1 0M6      0.157000
     33 H9         -1.0080   -1.7690    2.3460 hc        1 0M6      0.100000
     34 H10         0.5470   -2.0560    2.1150 hc        1 0M6      0.100000
     35 H11        -1.0760   -3.1190    0.1390 hc        1 0M6      0.101000
     36 H12         0.3660   -4.9780    0.4310 hc        1 0M6      0.076333
     37 H13         1.2020   -3.6310    0.2150 hc        1 0M6      0.076333
     38 H14         1.0320   -4.2390    1.6850 hc        1 0M6      0.076333
     39 H15        -2.4680   -3.5520    1.9720 hc        1 0M6      0.076333
     40 H16        -1.2410   -4.2130    2.7590 hc        1 0M6      0.076333
     41 H17        -1.8350   -4.9290    1.4570 hc        1 0M6      0.076333
     42 H18        -1.6670   -0.4060   -1.6650 hn        1 0M6      0.258000
     43 H19        -2.9640    1.6830   -0.4630 h1        1 0M6      0.144000
     44 H20        -4.6020   -0.2050   -1.8050 h1        1 0M6      0.071000
     45 H21        -4.4450   -0.2240   -0.2130 h1        1 0M6      0.071000
     46 H22        -6.1870    0.9770   -0.6930 ho        1 0M6      0.202000
     47 H23        -3.5090    1.1280   -3.1400 hc        1 0M6      0.097500
     48 H24        -1.9880    1.4920   -2.8180 hc        1 0M6      0.097500
     49 H25        -2.5490    3.5560   -2.0360 h1        1 0M6      0.074500
     50 H26        -4.1000    3.1700   -1.9460 h1        1 0M6      0.074500
     51 H27        -3.8170    4.3580   -3.7390 ho        1 0M6      0.198000
@<TRIPOS>BOND
     1    1    6 1   
     2    1   25 1   
     3    2    3 1   
     4    2   26 1   
     5    3   27 1   
     6    4    5 1   
     7    4   28 1   
     8    5   29 1   
     9    6    7 1   
    10    7    8 1   
    11    7   30 1   
    12    8    9 1   
    13   10   11 1   
    14   10   31 1   
    15   11   12 1   
    16   11   16 1   
    17   11   32 1   
    18   12   13 1   
    19   12   33 1   
    20   12   34 1   
    21   13   14 1   
    22   13   15 1   
    23   13   35 1   
    24   14   36 1   
    25   14   37 1   
    26   14   38 1   
    27   15   39 1   
    28   15   40 1   
    29   15   41 1   
    30   16   17 1   
    31   16   18 1   
    32   18   19 1   
    33   18   42 1   
    34   19   20 1   
    35   19   22 1   
    36   19   43 1   
    37   20   21 1   
    38   20   44 1   
    39   20   45 1   
    40   21   46 1   
    41   22   23 1   
    42   22   47 1   
    43   22   48 1   
    44   23   24 1   
    45   23   49 1   
    46   23   50 1   
    47   24   51 1   
@<TRIPOS>SUBSTRUCTURE
     1 0M6         1 TEMP              0 ****  ****    0 ROOT
