@<TRIPOS>MOLECULE
0M7
   31    29     1     0     0
SMALL
bcc


@<TRIPOS>ATOM
      1 O11        -4.9210   -2.0810   -2.1410 o         1 0M7     -0.738500
      2 P3         -3.4400   -2.1630   -1.9150 p4        1 0M7      1.733000
      3 O13        -2.7160   -1.6610   -3.1350 o         1 0M7     -0.787300
      4 O12        -3.0490   -3.5980   -1.6550 os        1 0M7     -1.278000
      5 C2         -3.0000   -1.1610   -0.5050 c3        1 0M7     -0.572100
      6 P1         -3.9630   -1.7000    0.9440 p5        1 0M7      1.224700
      7 O15        -3.6620   -3.1630    1.2370 o         1 0M7     -0.932833
      8 O14        -5.4450   -1.5340    0.6540 o         1 0M7     -0.932833
      9 O16        -3.5930   -0.8690    2.1280 o         1 0M7     -0.932833
     10 C4         -1.4920   -1.3180   -0.2130 c3        1 0M7      0.232800
     11 N5         -0.8620   -0.0640   -0.3180 n3        1 0M7     -0.848200
     12 C6          0.5000   -0.1630    0.1640 c3        1 0M7      0.336800
     13 C7          1.2020    1.1780   -0.0230 c3        1 0M7     -0.696400
     14 C8          2.5970    1.0990    0.5450 c3        1 0M7      0.181600
     15 C9          3.3190    2.4170    0.3030 c3        1 0M7     -0.161400
     16 C10         4.7210    2.3540    0.9270 c3        1 0M7     -0.058100
     17 H3         -3.2010   -0.2160   -0.6980 hc        1 0M7      0.082700
     18 H6         -1.0920   -1.9440   -0.8690 h1        1 0M7      0.007700
     19 H7         -1.3700   -1.6690    0.6860 h1        1 0M7      0.007700
     20 H8         -0.8570    0.2060   -1.2030 hn        1 0M7      0.333800
     21 H10         0.4940   -0.3980    1.1140 h1        1 0M7     -0.069300
     22 H11         0.9790   -0.8590   -0.3440 h1        1 0M7     -0.069300
     23 H12         0.6990    1.8770    0.4430 hc        1 0M7      0.078700
     24 H13         1.2500    1.3910   -0.9800 hc        1 0M7      0.078700
     25 H14         2.5470    0.9270    1.5060 hc        1 0M7     -0.081800
     26 H15         3.0840    0.3780    0.1100 hc        1 0M7     -0.081800
     27 H16         2.8120    3.1470    0.7120 hc        1 0M7      0.007700
     28 H17         3.3970    2.5730   -0.6570 hc        1 0M7      0.007700
     29 H18         5.2020    1.5660    0.5790 hc        1 0M7     -0.024967
     30 H19         5.2170    3.1650    0.6960 hc        1 0M7     -0.024967
     31 H20         4.6420    2.2850    1.9080 hc        1 0M7     -0.024967
@<TRIPOS>BOND
     1    1    2 1   
     2    2    3 2   
     3    2    5 1   
     4    5    6 1   
     5    5   10 1   
     6    5   17 1   
     7    6    7 1   
     8    6    8 1   
     9    6    9 1   
    10   10   11 1   
    11   10   18 1   
    12   10   19 1   
    13   11   12 1   
    14   11   20 1   
    15   12   13 1   
    16   12   21 1   
    17   12   22 1   
    18   13   14 1   
    19   13   23 1   
    20   13   24 1   
    21   14   15 1   
    22   14   25 1   
    23   14   26 1   
    24   15   16 1   
    25   15   27 1   
    26   15   28 1   
    27   16   29 1   
    28   16   30 1   
    29   16   31 1   
@<TRIPOS>SUBSTRUCTURE
     1 0M7         1 TEMP              0 ****  ****    0 ROOT
