@<TRIPOS>MOLECULE
0M7
   32    31     1     0     0
SMALL
bcc


@<TRIPOS>ATOM
      1 O11        -0.7690   -0.6990    0.5420 oh        1 0M7     -0.829400
      2 P3          0.7560   -0.3260    0.0100 p5        1 0M7      1.434600
      3 O13         1.6010   -0.3030    1.2500 o         1 0M7     -0.945500
      4 O12         0.5880    1.0140   -0.6530 o         1 0M7     -0.945500
      5 C2          1.1670   -1.5540   -1.0260 c3        1 0M7     -0.602100
      6 P1          0.1890   -3.2800   -1.6880 p5        1 0M7      1.219700
      7 O15         0.6900   -4.3060   -0.7150 o         1 0M7     -0.927167
      8 O14        -1.2720   -2.9230   -1.5830 o         1 0M7     -0.927167
      9 O16         0.6430   -3.5260   -3.1010 o         1 0M7     -0.927167
     10 C4          1.8890   -1.1500   -2.2700 c3        1 0M7      0.252800
     11 N5          1.3760   -0.1490   -3.2090 n7        1 0M7     -0.856200
     12 C6          0.4380   -0.6100   -4.2070 c3        1 0M7      0.182800
     13 C7         -1.0310   -0.6640   -3.7920 c3        1 0M7     -0.145400
     14 C8         -1.8950   -1.3340   -4.8370 c3        1 0M7     -0.042400
     15 C9         -3.1630   -1.8660   -4.1980 c3        1 0M7     -0.112400
     16 C10        -3.9880   -2.6740   -5.1640 c3        1 0M7     -0.071100
     17 H3          1.8410   -2.2390   -0.4580 hc        1 0M7      0.080700
     18 H6          2.8830   -0.6910   -1.9530 h1        1 0M7     -0.003300
     19 H7          2.1430   -2.0750   -2.8700 h1        1 0M7     -0.003300
     20 H8         -1.1570   -1.3930    0.0090 ho        1 0M7      0.439000
     21 H10         0.5290    0.0990   -5.0860 h1        1 0M7      0.011200
     22 H11         0.7460   -1.6380   -4.5570 h1        1 0M7      0.011200
     23 H12        -1.4180    0.3620   -3.5710 hc        1 0M7      0.082700
     24 H13        -1.0880   -1.2810   -2.8350 hc        1 0M7      0.082700
     25 H14        -1.3290   -2.1920   -5.2880 hc        1 0M7      0.000200
     26 H15        -2.1510   -0.6240   -5.6690 hc        1 0M7      0.000200
     27 H16        -2.8540   -2.4960   -3.3060 hc        1 0M7      0.080200
     28 H17        -3.7750   -1.0120   -3.8070 hc        1 0M7      0.080200
     29 H18        -4.9220   -3.0440   -4.6730 hc        1 0M7     -0.003300
     30 H19        -3.4080   -3.5580   -5.5250 hc        1 0M7     -0.003300
     31 H20        -4.2840   -2.0650   -6.0550 hc        1 0M7     -0.003300
     32 H52         0.9540    0.5890   -2.6530 hn        1 0M7      0.392800
@<TRIPOS>BOND
     1    1    2 1   
     2    1   20 1   
     3    2    3 1   
     4    2    4 1   
     5    2    5 1   
     6    5    6 1   
     7    5   10 1   
     8    5   17 1   
     9    6    7 1   
    10    6    8 1   
    11    6    9 1   
    12   10   11 1   
    13   10   18 1   
    14   10   19 1   
    15   11   12 1   
    16   11   32 1   
    17   12   13 1   
    18   12   21 1   
    19   12   22 1   
    20   13   14 1   
    21   13   23 1   
    22   13   24 1   
    23   14   15 1   
    24   14   25 1   
    25   14   26 1   
    26   15   16 1   
    27   15   27 1   
    28   15   28 1   
    29   16   29 1   
    30   16   30 1   
    31   16   31 1   
@<TRIPOS>SUBSTRUCTURE
     1 0M7         1 TEMP              0 ****  ****    0 ROOT
