@<TRIPOS>MOLECULE
0M7
   32    31     1     0     0
SMALL
bcc


@<TRIPOS>ATOM
      1 O11        -0.7650   -0.8680    0.5760 oh        1 0M7     -0.829400
      2 P3          0.7650   -0.4860    0.0640 p5        1 0M7      1.434600
      3 O13         1.6080   -0.5340    1.3050 o         1 0M7     -0.945500
      4 O12         0.6120    0.8860   -0.5320 o         1 0M7     -0.945500
      5 C2          1.1640   -1.6660   -1.0310 c3        1 0M7     -0.602100
      6 P1          0.1690   -3.3470   -1.7770 p5        1 0M7      1.219700
      7 O15         0.6570   -4.4250   -0.8550 o         1 0M7     -0.927167
      8 O14        -1.2890   -2.9800   -1.6560 o         1 0M7     -0.927167
      9 O16         0.6220   -3.5270   -3.2010 o         1 0M7     -0.927167
     10 C4          1.8910   -1.2090   -2.2530 c3        1 0M7      0.252800
     11 N5          1.3900   -0.1570   -3.1410 n3        1 0M7     -0.856200
     12 C6          0.4490   -0.5590   -4.1610 c3        1 0M7      0.182800
     13 C7         -1.0210   -0.6170   -3.7510 c3        1 0M7     -0.145400
     14 C8         -1.8920   -1.2250   -4.8280 c3        1 0M7     -0.042400
     15 C9         -3.1650   -1.7750   -4.2170 c3        1 0M7     -0.112400
     16 C10        -3.9980   -2.5250   -5.2220 c3        1 0M7     -0.071100
     17 H3          1.8300   -2.3850   -0.4960 hc        1 0M7      0.080700
     18 H6          2.8900   -0.7760   -1.9120 h1        1 0M7     -0.003300
     19 H7          2.1370   -2.1050   -2.8980 h1        1 0M7     -0.003300
     20 H8         -1.1600   -1.5320    0.0090 ho        1 0M7      0.439000
     21 H10         0.5490    0.1920   -5.0050 h1        1 0M7      0.011200
     22 H11         0.7470   -1.5710   -4.5620 h1        1 0M7      0.011200
     23 H12        -1.3970    0.4010   -3.4800 hc        1 0M7      0.082700
     24 H13        -1.0860   -1.2800   -2.8250 hc        1 0M7      0.082700
     25 H14        -1.3340   -2.0660   -5.3210 hc        1 0M7      0.000200
     26 H15        -2.1380   -0.4720   -5.6240 hc        1 0M7      0.000200
     27 H16        -2.8640   -2.4520   -3.3570 hc        1 0M7      0.080200
     28 H17        -3.7680   -0.9350   -3.7840 hc        1 0M7      0.080200
     29 H18        -4.9360   -2.9090   -4.7510 hc        1 0M7     -0.003300
     30 H19        -3.4270   -3.3960   -5.6260 hc        1 0M7     -0.003300
     31 H20        -4.2870   -1.8690   -6.0820 hc        1 0M7     -0.003300
     32 H52         0.9750    0.5570   -2.5500 hn        1 0M7      0.392800
@<TRIPOS>BOND
     1    1    2 1   
     2    1   20 1   
     3    2    3 1   
     4    2    4 1   
     5    2    5 1   
     6    5    6 1   
     7    5   10 1   
     8    5   17 1   
     9    6    7 1   
    10    6    8 1   
    11    6    9 1   
    12   10   11 1   
    13   10   18 1   
    14   10   19 1   
    15   11   12 1   
    16   11   32 1   
    17   12   13 1   
    18   12   21 1   
    19   12   22 1   
    20   13   14 1   
    21   13   23 1   
    22   13   24 1   
    23   14   15 1   
    24   14   25 1   
    25   14   26 1   
    26   15   16 1   
    27   15   27 1   
    28   15   28 1   
    29   16   29 1   
    30   16   30 1   
    31   16   31 1   
@<TRIPOS>SUBSTRUCTURE
     1 0M7         1 TEMP              0 ****  ****    0 ROOT
