@<TRIPOS>MOLECULE
0M7
   31    30     1     0     0
SMALL
bcc


@<TRIPOS>ATOM
      1 O11        -1.5090   -1.9800    0.7810 o         1 0M7     -0.991667
      2 P3         -0.0070   -1.8820    1.0730 p5        1 0M7      1.265700
      3 O13         0.1960   -1.8510    2.5920 o         1 0M7     -0.991667
      4 O12         0.7600   -3.0670    0.5040 o         1 0M7     -0.991667
      5 C2          0.7140   -0.3330    0.4480 c3        1 0M7     -0.461100
      6 P1          0.9970    0.6100   -1.1220 p5        1 0M7      1.265700
      7 O15        -0.2110    1.5220   -1.3670 o         1 0M7     -0.991667
      8 O14         2.2370    1.4480   -0.8010 o         1 0M7     -0.991667
      9 O16         1.2640   -0.2760   -2.3250 o         1 0M7     -0.991667
     10 C4          0.4260    0.7270    1.4840 c3        1 0M7      0.197800
     11 N5         -0.7480    1.6150    1.4500 n3        1 0M7     -0.864200
     12 C6         -2.0270    0.9440    1.5640 c3        1 0M7      0.149800
     13 C7         -2.9670    1.1000    0.3610 c3        1 0M7     -0.094400
     14 C8         -3.8830   -0.0970    0.2570 c3        1 0M7     -0.127400
     15 C9         -4.7150   -0.0620   -1.0070 c3        1 0M7     -0.065400
     16 C10        -5.5490   -1.3100   -1.1560 c3        1 0M7     -0.078100
     17 H3          1.7880   -0.6210    0.6020 hc        1 0M7      0.028700
     18 H6          0.4190    0.2420    2.5070 h1        1 0M7      0.009200
     19 H7          1.2920    1.4620    1.4470 h1        1 0M7      0.009200
     20 H8         -0.7020    2.0720    0.5390 hn        1 0M7      0.388800
     21 H10        -1.8610   -0.1740    1.7370 h1        1 0M7      0.030700
     22 H11        -2.5550    1.3780    2.4700 h1        1 0M7      0.030700
     23 H12        -3.5730    2.0440    0.4500 hc        1 0M7      0.035200
     24 H13        -2.3330    1.1700   -0.5750 hc        1 0M7      0.035200
     25 H14        -3.1950   -1.0180    0.2680 hc        1 0M7      0.084200
     26 H15        -4.5680   -0.1550    1.1430 hc        1 0M7      0.084200
     27 H16        -5.3910    0.8370   -1.0150 hc        1 0M7      0.012200
     28 H17        -4.0190    0.0330   -1.8830 hc        1 0M7      0.012200
     29 H18        -4.8820   -2.2060   -1.1270 hc        1 0M7      0.000700
     30 H19        -6.2920   -1.3960   -0.3260 hc        1 0M7      0.000700
     31 H20        -6.1150   -1.3080   -2.1220 hc        1 0M7      0.000700
@<TRIPOS>BOND
     1    1    2 1   
     2    2    3 1   
     3    2    4 1   
     4    2    5 1   
     5    5    6 1   
     6    5   10 1   
     7    5   17 1   
     8    6    7 1   
     9    6    8 1   
    10    6    9 1   
    11   10   11 1   
    12   10   18 1   
    13   10   19 1   
    14   11   12 1   
    15   11   20 1   
    16   12   13 1   
    17   12   21 1   
    18   12   22 1   
    19   13   14 1   
    20   13   23 1   
    21   13   24 1   
    22   14   15 1   
    23   14   25 1   
    24   14   26 1   
    25   15   16 1   
    26   15   27 1   
    27   15   28 1   
    28   16   29 1   
    29   16   30 1   
    30   16   31 1   
@<TRIPOS>SUBSTRUCTURE
     1 0M7         1 TEMP              0 ****  ****    0 ROOT
