@<TRIPOS>MOLECULE
0M7
   32    31     1     0     0
SMALL
bcc


@<TRIPOS>ATOM
      1 O11        -0.7940   -0.9260    0.5840 oh        1 0M7     -0.829400
      2 P3          0.7130   -0.4540    0.0770 p5        1 0M7      1.434600
      3 O13         1.5580   -0.4730    1.3170 o         1 0M7     -0.945500
      4 O12         0.4840    0.9170   -0.4990 o         1 0M7     -0.945500
      5 C2          1.1740   -1.5930   -1.0350 c3        1 0M7     -0.602100
      6 P1          0.2710   -3.3160   -1.8050 p5        1 0M7      1.219700
      7 O15         0.8200   -4.3790   -0.8990 o         1 0M7     -0.927167
      8 O14        -1.2040   -3.0310   -1.6770 o         1 0M7     -0.927167
      9 O16         0.7320   -3.4510   -3.2310 o         1 0M7     -0.927167
     10 C4          1.8730   -1.0800   -2.2510 c3        1 0M7      0.252800
     11 N5          1.3130   -0.0450   -3.1240 n3        1 0M7     -0.856200
     12 C6          0.3940   -0.4830   -4.1480 c3        1 0M7      0.182800
     13 C7         -1.0700   -0.6280   -3.7380 c3        1 0M7     -0.145400
     14 C8         -1.9070   -1.2680   -4.8230 c3        1 0M7     -0.042400
     15 C9         -3.1480   -1.8950   -4.2190 c3        1 0M7     -0.112400
     16 C10        -3.9400   -2.6760   -5.2340 c3        1 0M7     -0.071100
     17 H3          1.8790   -2.2830   -0.5110 hc        1 0M7      0.080700
     18 H6          2.8480   -0.5980   -1.9050 h1        1 0M7     -0.003300
     19 H7          2.1670   -1.9520   -2.9090 h1        1 0M7     -0.003300
     20 H8         -1.1520   -1.6020    0.0090 ho        1 0M7      0.439000
     21 H10         0.4510    0.2840   -4.9810 h1        1 0M7      0.011200
     22 H11         0.7470   -1.4720   -4.5640 h1        1 0M7      0.011200
     23 H12        -1.5010    0.3640   -3.4520 hc        1 0M7      0.082700
     24 H13        -1.0970   -1.3060   -2.8210 hc        1 0M7      0.082700
     25 H14        -2.1960   -0.5180   -5.6080 hc        1 0M7      0.000200
     26 H15        -1.3050   -2.0700   -5.3280 hc        1 0M7      0.000200
     27 H16        -2.8080   -2.5670   -3.3690 hc        1 0M7      0.080200
     28 H17        -3.7950   -1.0960   -3.7740 hc        1 0M7      0.080200
     29 H18        -4.8540   -3.1180   -4.7670 hc        1 0M7     -0.003300
     30 H19        -4.2650   -2.0260   -6.0840 hc        1 0M7     -0.003300
     31 H20        -3.3220   -3.5090   -5.6500 hc        1 0M7     -0.003300
     32 H52         0.8610    0.6370   -2.5220 hn        1 0M7      0.392800
@<TRIPOS>BOND
     1    1    2 1   
     2    1   20 1   
     3    2    3 1   
     4    2    4 1   
     5    2    5 1   
     6    5    6 1   
     7    5   10 1   
     8    5   17 1   
     9    6    7 1   
    10    6    8 1   
    11    6    9 1   
    12   10   11 1   
    13   10   18 1   
    14   10   19 1   
    15   11   12 1   
    16   11   32 1   
    17   12   13 1   
    18   12   21 1   
    19   12   22 1   
    20   13   14 1   
    21   13   23 1   
    22   13   24 1   
    23   14   15 1   
    24   14   25 1   
    25   14   26 1   
    26   15   16 1   
    27   15   27 1   
    28   15   28 1   
    29   16   29 1   
    30   16   30 1   
    31   16   31 1   
@<TRIPOS>SUBSTRUCTURE
     1 0M7         1 TEMP              0 ****  ****    0 ROOT
