@<TRIPOS>MOLECULE
0M8
   37    36     1     0     0
SMALL
bcc


@<TRIPOS>ATOM
      1 O1          0.1920   -2.9000   -0.7810 o         1 0M8     -0.988000
      2 P1         -0.3200   -1.6130   -0.1460 p5        1 0M8      1.267700
      3 O2         -1.4660   -0.9910   -0.9640 o         1 0M8     -0.988000
      4 O3         -0.8690   -1.9270    1.2500 o         1 0M8     -0.988000
      5 C9          1.0760   -0.5100    0.0680 c3        1 0M8     -0.477100
      6 P2          2.1510    0.7050   -0.8870 p5        1 0M8      1.267700
      7 O5          3.5030    0.5690   -0.1860 o         1 0M8     -0.988000
      8 O4          2.2830    0.3510   -2.3560 o         1 0M8     -0.988000
      9 O6          1.5830    2.1090   -0.6940 o         1 0M8     -0.988000
     10 C8          1.0110    0.0880    1.4510 c3        1 0M8      0.216800
     11 N1          0.2920    1.3290    1.7730 n3        1 0M8     -0.871200
     12 C7         -1.1320    1.2240    1.9800 c3        1 0M8      0.199800
     13 C6         -2.0190    1.4330    0.7550 c3        1 0M8     -0.174400
     14 C5         -3.4700    1.0830    1.0160 c3        1 0M8     -0.016400
     15 C4         -4.0720    0.4250   -0.2070 c3        1 0M8     -0.155400
     16 C3         -5.3980   -0.2370    0.0870 c3        1 0M8     -0.048400
     17 C2         -5.9010   -0.9960   -1.1250 c3        1 0M8     -0.091400
     18 C1         -7.1790   -1.7430   -0.8400 c3        1 0M8     -0.077100
     19 H3          1.8770   -1.2960    0.1220 hc        1 0M8      0.040700
     20 H6          0.6370   -0.7050    2.1660 h1        1 0M8      0.006700
     21 H7          2.0790    0.3520    1.7410 h1        1 0M8      0.006700
     22 H8          0.4950    1.9710    1.0060 hn        1 0M8      0.409800
     23 H10        -1.3740    0.2160    2.4260 h1        1 0M8     -0.014300
     24 H11        -1.4110    2.0140    2.7530 h1        1 0M8     -0.014300
     25 H12        -1.9400    2.4820    0.3770 hc        1 0M8      0.098200
     26 H13        -1.6020    0.7180   -0.0540 hc        1 0M8      0.098200
     27 H14        -3.5360    0.3710    1.8810 hc        1 0M8     -0.030300
     28 H15        -4.0690    1.9940    1.3020 hc        1 0M8     -0.030300
     29 H16        -4.2050    1.1790   -1.0240 hc        1 0M8      0.111700
     30 H17        -3.2880   -0.3470   -0.5770 hc        1 0M8      0.111700
     31 H18        -5.2710   -0.9510    0.9430 hc        1 0M8     -0.005800
     32 H19        -6.1710    0.5190    0.3980 hc        1 0M8     -0.005800
     33 H20        -6.0680   -0.2810   -1.9730 hc        1 0M8      0.054700
     34 H21        -5.0950   -1.7120   -1.4460 hc        1 0M8      0.054700
     35 H22        -7.9890   -1.0430   -0.5190 hc        1 0M8     -0.001967
     36 H23        -7.5320   -2.2900   -1.7480 hc        1 0M8     -0.001967
     37 H24        -7.0190   -2.4870   -0.0220 hc        1 0M8     -0.001967
@<TRIPOS>BOND
     1    1    2 1   
     2    2    3 1   
     3    2    4 1   
     4    2    5 1   
     5    5    6 1   
     6    5   10 1   
     7    5   19 1   
     8    6    7 1   
     9    6    8 1   
    10    6    9 1   
    11   10   11 1   
    12   10   20 1   
    13   10   21 1   
    14   11   12 1   
    15   11   22 1   
    16   12   13 1   
    17   12   23 1   
    18   12   24 1   
    19   13   14 1   
    20   13   25 1   
    21   13   26 1   
    22   14   15 1   
    23   14   27 1   
    24   14   28 1   
    25   15   16 1   
    26   15   29 1   
    27   15   30 1   
    28   16   17 1   
    29   16   31 1   
    30   16   32 1   
    31   17   18 1   
    32   17   33 1   
    33   17   34 1   
    34   18   35 1   
    35   18   36 1   
    36   18   37 1   
@<TRIPOS>SUBSTRUCTURE
     1 0M8         1 TEMP              0 ****  ****    0 ROOT
