@<TRIPOS>MOLECULE
0M8
   38    37     1     0     0
SMALL
bcc


@<TRIPOS>ATOM
      1 O1          3.4440    1.6200    0.8320 o         1 0M8     -0.928167
      2 P1          4.3110    1.0130   -0.2310 p5        1 0M8      1.220700
      3 O2          5.4320    0.1720    0.3190 o         1 0M8     -0.928167
      4 O3          4.7510    1.9390   -1.3380 o         1 0M8     -0.928167
      5 C9          2.9800   -0.2900   -1.1750 c3        1 0M8     -0.602100
      6 P2          1.9820   -0.1600   -2.4930 p5        1 0M8      1.433600
      7 O5          2.2080    1.3830   -3.0580 oh        1 0M8     -0.829400
      8 O4          0.5270   -0.2280   -2.1310 o         1 0M8     -0.945000
      9 O6          2.3760   -1.0290   -3.6560 o         1 0M8     -0.945000
     10 C8          3.7090   -1.5870   -1.0310 c3        1 0M8      0.251800
     11 N1          4.5570   -2.1550   -2.0820 n7        1 0M8     -0.856200
     12 C7          5.9210   -1.6830   -2.1460 c3        1 0M8      0.181800
     13 C6          6.1640   -0.3990   -2.9370 c3        1 0M8     -0.144400
     14 C5          7.5720    0.1250   -2.7610 c3        1 0M8     -0.042400
     15 C4          7.6070    1.6130   -3.0440 c3        1 0M8     -0.111400
     16 C3          8.9540    2.2180   -2.7120 c3        1 0M8     -0.064400
     17 C2          8.9600    3.7110   -2.9620 c3        1 0M8     -0.086400
     18 C1         10.2810    4.3390   -2.5980 c3        1 0M8     -0.082100
     19 H3          2.3320   -0.1710   -0.2740 hc        1 0M8      0.081700
     20 H6          2.9250   -2.4030   -0.8910 h1        1 0M8     -0.003300
     21 H7          4.3210   -1.5660   -0.0800 h1        1 0M8     -0.003300
     22 H8          4.0890   -1.9800   -2.9660 hn        1 0M8      0.392800
     23 H10         6.5260   -2.5130   -2.6270 h1        1 0M8      0.011700
     24 H11         6.3100   -1.5340   -1.0970 h1        1 0M8      0.011700
     25 H12         5.9410   -0.5550   -4.0220 hc        1 0M8      0.081700
     26 H13         5.4420    0.3860   -2.5330 hc        1 0M8      0.081700
     27 H14         7.9000   -0.0510   -1.7020 hc        1 0M8      0.001200
     28 H15         8.2930   -0.4150   -3.4330 hc        1 0M8      0.001200
     29 H16         7.3690    1.8010   -4.1230 hc        1 0M8      0.083200
     30 H17         6.7860    2.0970   -2.4260 hc        1 0M8      0.083200
     31 H18         9.7610    1.7330   -3.3240 hc        1 0M8      0.012700
     32 H19         9.1910    2.0200   -1.6340 hc        1 0M8      0.012700
     33 H20         8.1350    4.1800   -2.3620 hc        1 0M8      0.046200
     34 H21         8.7360    3.9100   -4.0430 hc        1 0M8      0.046200
     35 H22        11.1120    3.8920   -3.1960 hc        1 0M8      0.008367
     36 H23        10.2630    5.4390   -2.7920 hc        1 0M8      0.008367
     37 H24        10.5050    4.1770   -1.5160 hc        1 0M8      0.008367
     38 H121        2.9790    1.7840   -2.6560 ho        1 0M8      0.439000
@<TRIPOS>BOND
     1    1    2 1   
     2    2    3 1   
     3    2    4 1   
     4    2    5 1   
     5    5    6 1   
     6    5   10 1   
     7    5   19 1   
     8    6    7 1   
     9    6    8 1   
    10    6    9 1   
    11    7   38 1   
    12   10   11 1   
    13   10   20 1   
    14   10   21 1   
    15   11   12 1   
    16   11   22 1   
    17   12   13 1   
    18   12   23 1   
    19   12   24 1   
    20   13   14 1   
    21   13   25 1   
    22   13   26 1   
    23   14   15 1   
    24   14   27 1   
    25   14   28 1   
    26   15   16 1   
    27   15   29 1   
    28   15   30 1   
    29   16   17 1   
    30   16   31 1   
    31   16   32 1   
    32   17   18 1   
    33   17   33 1   
    34   17   34 1   
    35   18   35 1   
    36   18   36 1   
    37   18   37 1   
@<TRIPOS>SUBSTRUCTURE
     1 0M8         1 TEMP              0 ****  ****    0 ROOT
