@<TRIPOS>MOLECULE
0M8
   38    37     1     0     0
SMALL
bcc


@<TRIPOS>ATOM
      1 O1         -0.0730   -1.3800   -0.5860 o         1 0M8     -0.911750
      2 P1          1.3640   -1.4500   -0.2020 p5        1 0M8      1.394100
      3 O2          1.7690   -2.6850    0.5420 o         1 0M8     -0.911750
      4 O3          1.5220   -0.2110    0.8650 oh        1 0M8     -0.813900
      5 C9          2.5190   -1.2030   -1.5170 c3        1 0M8     -0.536100
      6 P2          2.6050   -0.5120   -3.1230 p5        1 0M8      1.394100
      7 O5          2.5770    1.1220   -2.9180 oh        1 0M8     -0.813900
      8 O4          1.4370   -0.8320   -3.9910 o         1 0M8     -0.911750
      9 O6          3.9320   -0.8010   -3.7510 o         1 0M8     -0.911750
     10 C8          3.8780   -0.9180   -0.8380 c3        1 0M8      0.232800
     11 N1          4.2210    0.3730   -0.3150 n2        1 0M8     -0.980400
     12 C7          5.5530    0.7360   -0.4310 c3        1 0M8      0.324800
     13 C6          6.0850    1.1720   -1.8310 c3        1 0M8     -0.179400
     14 C5          7.5580    1.5090   -1.7900 c3        1 0M8     -0.050400
     15 C4          8.0740    1.9360   -3.1500 c3        1 0M8     -0.086400
     16 C3          9.5590    2.2330   -3.1230 c3        1 0M8     -0.076400
     17 C2         10.0680    2.6610   -4.4840 c3        1 0M8     -0.084400
     18 C1         11.5460    2.9530   -4.4660 c3        1 0M8     -0.085100
     19 H3          2.5990   -2.2900   -1.8230 hc        1 0M8      0.048700
     20 H6          4.6490   -1.2830   -1.5910 h1        1 0M8     -0.037800
     21 H7          3.9200   -1.6720    0.0200 h1        1 0M8     -0.037800
     22 H8          2.3780    0.2010    0.8610 ho        1 0M8      0.441500
     23 H10         6.3200   -0.0520   -0.0900 h1        1 0M8     -0.100800
     24 H11         5.7260    1.6300    0.2490 h1        1 0M8     -0.100800
     25 H12         5.8920    0.3430   -2.5620 hc        1 0M8      0.054200
     26 H13         5.5060    2.0640   -2.1780 hc        1 0M8      0.054200
     27 H14         7.7440    2.3320   -1.0490 hc        1 0M8      0.001200
     28 H15         8.1380    0.6150   -1.4380 hc        1 0M8      0.001200
     29 H16         7.8630    1.1220   -3.8930 hc        1 0M8      0.042200
     30 H17         7.5160    2.8460   -3.4910 hc        1 0M8      0.042200
     31 H18        10.1180    1.3210   -2.7850 hc        1 0M8      0.021700
     32 H19         9.7680    3.0430   -2.3750 hc        1 0M8      0.021700
     33 H20         9.5080    3.5730   -4.8200 hc        1 0M8      0.037200
     34 H21         9.8520    1.8510   -5.2300 hc        1 0M8      0.037200
     35 H22        12.1220    2.0470   -4.1570 hc        1 0M8      0.014367
     36 H23        11.9000    3.2660   -5.4790 hc        1 0M8      0.014367
     37 H24        11.7770    3.7730   -3.7440 hc        1 0M8      0.014367
     38 H121        3.1610    1.4010   -2.2210 ho        1 0M8      0.441500
@<TRIPOS>BOND
     1    1    2 1   
     2    2    3 1   
     3    2    4 1   
     4    2    5 1   
     5    4   22 1   
     6    5    6 1   
     7    5   10 1   
     8    5   19 1   
     9    6    7 1   
    10    6    8 1   
    11    6    9 1   
    12    7   38 1   
    13   10   11 1   
    14   10   20 1   
    15   10   21 1   
    16   11   12 1   
    17   12   13 1   
    18   12   23 1   
    19   12   24 1   
    20   13   14 1   
    21   13   25 1   
    22   13   26 1   
    23   14   15 1   
    24   14   27 1   
    25   14   28 1   
    26   15   16 1   
    27   15   29 1   
    28   15   30 1   
    29   16   17 1   
    30   16   31 1   
    31   16   32 1   
    32   17   18 1   
    33   17   33 1   
    34   17   34 1   
    35   18   35 1   
    36   18   36 1   
    37   18   37 1   
@<TRIPOS>SUBSTRUCTURE
     1 0M8         1 TEMP              0 ****  ****    0 ROOT
