@<TRIPOS>MOLECULE
0M8
   38    37     1     0     0
SMALL
bcc


@<TRIPOS>ATOM
      1 O1          3.5130    1.5020    0.9190 o         1 0M8     -0.928167
      2 P1          4.3550    0.9370   -0.1870 p5        1 0M8      1.220700
      3 O2          5.4830    0.0700    0.3030 o         1 0M8     -0.928167
      4 O3          4.7750    1.9070   -1.2640 o         1 0M8     -0.928167
      5 C9          2.9980   -0.3220   -1.1550 c3        1 0M8     -0.602100
      6 P2          1.9720   -0.1330   -2.4450 p5        1 0M8      1.433600
      7 O5          2.1930    1.4310   -2.9500 oh        1 0M8     -0.829400
      8 O4          0.5260   -0.2110   -2.0550 o         1 0M8     -0.945000
      9 O6          2.3380   -0.9540   -3.6510 o         1 0M8     -0.945000
     10 C8          3.7250   -1.6250   -1.0810 c3        1 0M8      0.251800
     11 N1          4.5470   -2.1520   -2.1730 n3        1 0M8     -0.856200
     12 C7          5.9120   -1.6830   -2.2470 c3        1 0M8      0.181800
     13 C6          6.1430   -0.3680   -2.9890 c3        1 0M8     -0.144400
     14 C5          7.5570    0.1440   -2.8210 c3        1 0M8     -0.042400
     15 C4          7.5910    1.6430   -3.0430 c3        1 0M8     -0.111400
     16 C3          8.9470    2.2290   -2.7150 c3        1 0M8     -0.064400
     17 C2          8.9540    3.7320   -2.9040 c3        1 0M8     -0.086400
     18 C1         10.2840    4.3410   -2.5420 c3        1 0M8     -0.082100
     19 H3          2.3710   -0.2370   -0.2360 hc        1 0M8      0.081700
     20 H6          2.9400   -2.4440   -0.9580 h1        1 0M8     -0.003300
     21 H7          4.3570   -1.6460   -0.1430 h1        1 0M8     -0.003300
     22 H8          2.9740    1.8130   -2.5480 ho        1 0M8      0.439000
     23 H10         6.5030   -2.4930   -2.7750 h1        1 0M8      0.011700
     24 H11         6.3240   -1.5780   -1.2010 h1        1 0M8      0.011700
     25 H12         5.4330    0.4020   -2.5370 hc        1 0M8      0.081700
     26 H13         5.8970   -0.4770   -4.0740 hc        1 0M8      0.081700
     27 H14         8.2610   -0.3690   -3.5300 hc        1 0M8      0.001200
     28 H15         7.9060   -0.0760   -1.7780 hc        1 0M8      0.001200
     29 H16         6.7850    2.1030   -2.3880 hc        1 0M8      0.083200
     30 H17         7.3310    1.8760   -4.1080 hc        1 0M8      0.083200
     31 H18         9.7400    1.7680   -3.3640 hc        1 0M8      0.012700
     32 H19         9.2060    1.9860   -1.6510 hc        1 0M8      0.012700
     33 H20         8.1430    4.1780   -2.2670 hc        1 0M8      0.046200
     34 H21         8.7070    3.9770   -3.9710 hc        1 0M8      0.046200
     35 H22        10.2670    5.4480   -2.6900 hc        1 0M8      0.008367
     36 H23        10.5300    4.1330   -1.4720 hc        1 0M8      0.008367
     37 H24        11.1010    3.9160   -3.1750 hc        1 0M8      0.008367
     38 H121        4.0610   -1.9390   -3.0390 hn        1 0M8      0.392800
@<TRIPOS>BOND
     1    1    2 1   
     2    2    3 1   
     3    2    4 1   
     4    2    5 1   
     5    5    6 1   
     6    5   10 1   
     7    5   19 1   
     8    6    7 1   
     9    6    8 1   
    10    6    9 1   
    11    7   22 1   
    12   10   11 1   
    13   10   20 1   
    14   10   21 1   
    15   11   12 1   
    16   11   38 1   
    17   12   13 1   
    18   12   23 1   
    19   12   24 1   
    20   13   14 1   
    21   13   25 1   
    22   13   26 1   
    23   14   15 1   
    24   14   27 1   
    25   14   28 1   
    26   15   16 1   
    27   15   29 1   
    28   15   30 1   
    29   16   17 1   
    30   16   31 1   
    31   16   32 1   
    32   17   18 1   
    33   17   33 1   
    34   17   34 1   
    35   18   35 1   
    36   18   36 1   
    37   18   37 1   
@<TRIPOS>SUBSTRUCTURE
     1 0M8         1 TEMP              0 ****  ****    0 ROOT
