@<TRIPOS>MOLECULE
0M8
   37    36     1     0     0
SMALL
bcc


@<TRIPOS>ATOM
      1 O1          4.2420   -1.2450    3.3240 o         1 0M8     -0.877667
      2 P1          4.6080    0.2190    3.3860 p5        1 0M8      1.298700
      3 O2          5.0580    0.5640    4.7820 o         1 0M8     -0.877667
      4 O3          5.7350    0.5010    2.4030 o         1 0M8     -0.877667
      5 C9          3.1650    1.2230    2.9500 c3        1 0M8     -0.574100
      6 P2          3.5960    3.0020    3.0890 p5        1 0M8      1.298700
      7 O5          4.0150    3.3120    4.5050 o         1 0M8     -0.877667
      8 O4          2.3920    3.8430    2.7240 o         1 0M8     -0.877667
      9 O6          4.7330    3.3170    2.1480 o         1 0M8     -0.877667
     10 C8          2.7490    0.9140    1.5160 c3        1 0M8      0.199800
     11 N1          1.4440    0.2890    1.5110 n3        1 0M8     -0.709200
     12 C7          0.9340    0.2500    0.1530 c3        1 0M8     -0.468200
     13 C6         -0.4040   -0.4730    0.1300 c3        1 0M8      0.138600
     14 C5         -1.0810   -0.2560   -1.2360 c3        1 0M8     -0.143400
     15 C4         -2.3300   -1.1660   -1.3390 c3        1 0M8     -0.063400
     16 C3         -3.1010   -0.8330   -2.6160 c3        1 0M8     -0.084400
     17 C2         -4.3110   -1.7980   -2.7590 c3        1 0M8     -0.082400
     18 C1         -5.1450   -1.3930   -3.9770 c3        1 0M8     -0.084100
     19 H3          2.4220    1.0150    3.5620 hc        1 0M8      0.075700
     20 H6          3.4030    0.3080    1.1100 h1        1 0M8      0.000200
     21 H7          2.7130    1.7400    1.0050 h1        1 0M8      0.000200
     22 H8          1.5130   -0.5640    1.8360 hn        1 0M8      0.284800
     23 H10         1.5680   -0.2220   -0.4180 h1        1 0M8      0.070700
     24 H11         0.8160    1.1710   -0.1790 h1        1 0M8      0.070700
     25 H12        -0.2600   -1.4290    0.2740 hc        1 0M8     -0.080800
     26 H13        -0.9790   -0.1190    0.8400 hc        1 0M8     -0.080800
     27 H14        -0.4450   -0.4830   -1.9600 hc        1 0M8      0.024200
     28 H15        -1.3520    0.6860   -1.3210 hc        1 0M8      0.024200
     29 H16        -2.0470   -2.1110   -1.3630 hc        1 0M8      0.007700
     30 H17        -2.9060   -1.0180   -0.5630 hc        1 0M8      0.007700
     31 H18        -3.4210    0.0830   -2.5710 hc        1 0M8      0.030700
     32 H19        -2.5090   -0.9350   -3.3920 hc        1 0M8      0.030700
     33 H20        -3.9840   -2.7190   -2.8760 hc        1 0M8      0.022700
     34 H21        -4.8590   -1.7490   -1.9610 hc        1 0M8      0.022700
     35 H22        -5.4270   -0.4600   -3.8830 hc        1 0M8      0.009367
     36 H23        -5.9440   -1.9740   -4.0390 hc        1 0M8      0.009367
     37 H24        -4.6000   -1.4920   -4.7980 hc        1 0M8      0.009367
@<TRIPOS>BOND
     1    1    2 1   
     2    2    3 1   
     3    2    4 1   
     4    2    5 1   
     5    5    6 1   
     6    5   10 1   
     7    5   19 1   
     8    6    7 1   
     9    6    8 1   
    10    6    9 1   
    11   10   11 1   
    12   10   20 1   
    13   10   21 1   
    14   11   12 1   
    15   11   22 1   
    16   12   13 1   
    17   12   23 1   
    18   12   24 1   
    19   13   14 1   
    20   13   25 1   
    21   13   26 1   
    22   14   15 1   
    23   14   27 1   
    24   14   28 1   
    25   15   16 1   
    26   15   29 1   
    27   15   30 1   
    28   16   17 1   
    29   16   31 1   
    30   16   32 1   
    31   17   18 1   
    32   17   33 1   
    33   17   34 1   
    34   18   35 1   
    35   18   36 1   
    36   18   37 1   
@<TRIPOS>SUBSTRUCTURE
     1 0M8         1 TEMP              0 ****  ****    0 ROOT
