@<TRIPOS>MOLECULE
0M9
   25    24     1     0     0
SMALL
bcc


@<TRIPOS>ATOM
      1 O1         -4.0680   -2.1550    0.7680 o         1 0M9     -0.872167
      2 P1         -2.5530   -2.1550    0.7680 p5        1 0M9      1.294700
      3 O3         -2.0500   -2.1550    2.1910 o         1 0M9     -0.872167
      4 O2         -2.0500   -3.3880    0.0560 o         1 0M9     -0.872167
      5 C9         -1.9460   -0.6670   -0.0910 c3        1 0M9     -0.572100
      6 P2         -2.6470   -0.6050   -1.7700 p5        1 0M9      1.294700
      7 O4         -2.1560    0.6380   -2.4740 o         1 0M9     -0.872167
      8 O5         -4.1580   -0.5740   -1.6860 o         1 0M9     -0.872167
      9 O6         -2.2110   -1.8260   -2.5430 o         1 0M9     -0.872167
     10 C8         -0.4170   -0.7150   -0.1770 c3        1 0M9      0.231800
     11 N1          0.1350    0.5070    0.3640 n3        1 0M9     -0.845200
     12 C7          1.5690    0.5170    0.1700 c3        1 0M9      0.344800
     13 C6          2.1280    1.8810    0.5660 c3        1 0M9     -0.713400
     14 C5          3.6410    1.8750    0.4080 c3        1 0M9      0.201900
     15 H3         -2.2190    0.1280    0.4050 hc        1 0M9      0.081700
     16 H6         -0.1460   -0.8090   -1.1100 h1        1 0M9      0.008700
     17 H7         -0.0850   -1.4770    0.3360 h1        1 0M9      0.008700
     18 H8         -0.0510    0.5570    1.2550 hn        1 0M9      0.332800
     19 H10         1.7710    0.3430   -0.7700 h1        1 0M9     -0.078800
     20 H11         1.9770   -0.1760    0.7240 h1        1 0M9     -0.078800
     21 H12         1.8990    2.0680    1.4970 hc        1 0M9      0.079200
     22 H13         1.7430    2.5700   -0.0090 hc        1 0M9      0.079200
     23 H14         4.0260    1.1900    0.9880 hc        1 0M9     -0.145300
     24 H15         3.9970    2.7490    0.6550 hc        1 0M9     -0.145300
     25 H16         3.8700    1.6800   -0.5210 hc        1 0M9     -0.145300
@<TRIPOS>BOND
     1    1    2 1   
     2    2    3 1   
     3    2    4 1   
     4    2    5 1   
     5    5    6 1   
     6    5   10 1   
     7    5   15 1   
     8    6    7 1   
     9    6    8 1   
    10    6    9 1   
    11   10   11 1   
    12   10   16 1   
    13   10   17 1   
    14   11   12 1   
    15   11   18 1   
    16   12   13 1   
    17   12   19 1   
    18   12   20 1   
    19   13   14 1   
    20   13   21 1   
    21   13   22 1   
    22   14   23 1   
    23   14   24 1   
    24   14   25 1   
@<TRIPOS>SUBSTRUCTURE
     1 0M9         1 TEMP              0 ****  ****    0 ROOT
