@<TRIPOS>MOLECULE
0M9
   25    24     1     0     0
SMALL
bcc


@<TRIPOS>ATOM
      1 O1          0.8380    0.5370    0.9030 o         1 0M9     -0.988333
      2 P1          1.8640   -0.2610    0.0960 p5        1 0M9      1.264200
      3 O3          2.9530   -0.7820    1.0160 o         1 0M9     -0.988333
      4 O2          1.1830   -1.3970   -0.6650 o         1 0M9     -0.988333
      5 C9          2.4820    1.0040   -1.1410 c3        1 0M9     -0.470100
      6 P2          3.9500    1.4450   -2.0840 p5        1 0M9      1.264200
      7 O4          3.4970    2.4290   -3.1710 o         1 0M9     -0.988333
      8 O5          4.9200    2.1610   -1.1490 o         1 0M9     -0.988333
      9 O6          4.5980    0.2390   -2.7740 o         1 0M9     -0.988333
     10 C8          1.2730    1.2810   -1.9980 c3        1 0M9      0.219800
     11 N1          0.7260    0.3150   -2.9610 n3        1 0M9     -0.870200
     12 C7          1.2880    0.3140   -4.2870 c3        1 0M9      0.213800
     13 C6          2.4020   -0.6840   -4.5860 c3        1 0M9     -0.212400
     14 C5          2.7810   -0.6730   -6.0380 c3        1 0M9     -0.030100
     15 H3          2.5240    1.8470   -0.3990 hc        1 0M9      0.035700
     16 H6          1.4460    2.2500   -2.5570 h1        1 0M9      0.004700
     17 H7          0.3970    1.4350   -1.2900 h1        1 0M9      0.004700
     18 H8          0.8170   -0.5990   -2.5200 hn        1 0M9      0.411800
     19 H10         0.4250    0.0860   -5.0010 h1        1 0M9     -0.023300
     20 H11         1.6670    1.3450   -4.5480 h1        1 0M9     -0.023300
     21 H12         3.3100   -0.3640   -3.9160 hc        1 0M9      0.117200
     22 H13         2.1040   -1.7180   -4.2800 hc        1 0M9      0.117200
     23 H14         3.6040   -1.4040   -6.2420 hc        1 0M9     -0.031967
     24 H15         3.1350    0.3440   -6.3350 hc        1 0M9     -0.031967
     25 H16         1.9220   -0.9470   -6.7090 hc        1 0M9     -0.031967
@<TRIPOS>BOND
     1    1    2 1   
     2    2    3 1   
     3    2    4 1   
     4    2    5 1   
     5    5    6 1   
     6    5   10 1   
     7    5   15 1   
     8    6    7 1   
     9    6    8 1   
    10    6    9 1   
    11   10   11 1   
    12   10   16 1   
    13   10   17 1   
    14   11   12 1   
    15   11   18 1   
    16   12   13 1   
    17   12   19 1   
    18   12   20 1   
    19   13   14 1   
    20   13   21 1   
    21   13   22 1   
    22   14   23 1   
    23   14   24 1   
    24   14   25 1   
@<TRIPOS>SUBSTRUCTURE
     1 0M9         1 TEMP              0 ****  ****    0 ROOT
