@<TRIPOS>MOLECULE
0M9
   25    24     1     0     0
SMALL
bcc


@<TRIPOS>ATOM
      1 O1         -0.9470    2.1770   -1.2980 o         1 0M9     -0.988333
      2 P1         -0.0510    1.7460   -0.1290 p5        1 0M9      1.264200
      3 O3          1.2000    2.6180   -0.1240 o         1 0M9     -0.988333
      4 O2         -0.8590    1.8880    1.1670 o         1 0M9     -0.988333
      5 C9          0.4480    0.0480   -0.4570 c3        1 0M9     -0.470100
      6 P2          1.2050   -1.4430    0.3880 p5        1 0M9      1.264200
      7 O4          1.9520   -2.1300   -0.7570 o         1 0M9     -0.988333
      8 O5          2.1780   -1.0760    1.4940 o         1 0M9     -0.988333
      9 O6          0.0790   -2.3350    0.9060 o         1 0M9     -0.988333
     10 C8         -0.5470   -0.5550   -1.4170 c3        1 0M9      0.219800
     11 N1         -1.7980   -1.1950   -0.9880 n3        1 0M9     -0.870200
     12 C7         -2.9470   -0.3450   -0.8080 c3        1 0M9      0.213800
     13 C6         -3.2390    0.1660    0.5990 c3        1 0M9     -0.212400
     14 C5         -4.5420    0.9090    0.6580 c3        1 0M9     -0.030100
     15 H3          1.3580    0.2780   -1.0740 hc        1 0M9      0.035700
     16 H6         -0.8170    0.2270   -2.1890 h1        1 0M9      0.004700
     17 H7         -0.0130   -1.4070   -1.9490 h1        1 0M9      0.004700
     18 H8         -1.5730   -1.6990   -0.1310 hn        1 0M9      0.411800
     19 H10        -2.8780    0.5480   -1.4950 h1        1 0M9     -0.023300
     20 H11        -3.8530   -0.9550   -1.1460 h1        1 0M9     -0.023300
     21 H12        -3.2500   -0.6760    1.3350 hc        1 0M9      0.117200
     22 H13        -2.3450    0.8720    0.8780 hc        1 0M9      0.117200
     23 H14        -4.7410    1.2850    1.6930 hc        1 0M9     -0.031967
     24 H15        -4.5170    1.7860   -0.0330 hc        1 0M9     -0.031967
     25 H16        -5.4170    0.2670    0.3660 hc        1 0M9     -0.031967
@<TRIPOS>BOND
     1    1    2 1   
     2    2    3 1   
     3    2    4 1   
     4    2    5 1   
     5    5    6 1   
     6    5   10 1   
     7    5   15 1   
     8    6    7 1   
     9    6    8 1   
    10    6    9 1   
    11   10   11 1   
    12   10   16 1   
    13   10   17 1   
    14   11   12 1   
    15   11   18 1   
    16   12   13 1   
    17   12   19 1   
    18   12   20 1   
    19   13   14 1   
    20   13   21 1   
    21   13   22 1   
    22   14   23 1   
    23   14   24 1   
    24   14   25 1   
@<TRIPOS>SUBSTRUCTURE
     1 0M9         1 TEMP              0 ****  ****    0 ROOT
