@<TRIPOS>MOLECULE
0MB
   34    36     1     0     0
SMALL
bcc


@<TRIPOS>ATOM
      1 NJ          1.0900   -1.8440   -0.4180 nc        1 0MB     -0.548100
      2 NK          0.0740    0.0930    0.4660 nd        1 0MB     -0.731000
      3 NL         -3.0500    1.6280   -0.6800 n3        1 0MB     -0.816200
      4 NQ         -2.2000   -0.5940    1.0790 nh        1 0MB     -0.716300
      5 CAA         4.8930    1.5720   -0.4590 ca        1 0MB     -0.114000
      6 CAC         4.9020    0.1920   -0.2580 ca        1 0MB     -0.142500
      7 CAB         3.6790    2.2560   -0.5270 ca        1 0MB     -0.142500
      8 CAE         3.7030   -0.5070   -0.1260 ca        1 0MB     -0.089500
      9 CAD         2.4750    1.5670   -0.3960 ca        1 0MB     -0.089500
     10 CAF        -4.1550    0.7120   -0.8410 c3        1 0MB      0.161800
     11 CAG        -2.6370    1.8950    0.6740 c3        1 0MB      0.137800
     12 CAI        -2.5050    0.7040    1.6480 c3        1 0MB      0.160800
     13 SAM        -0.4290   -2.3600   -0.1200 ss        1 0MB      0.041700
     14 CAN         2.4830    0.1800   -0.1940 ca        1 0MB     -0.125500
     15 CAO         1.2150   -0.5580   -0.0560 cd        1 0MB      0.660500
     16 C9         -3.8120   -0.7760   -0.8730 c3        1 0MB     -0.150400
     17 CAP        -0.9470   -0.7880    0.5100 cc        1 0MB      0.646300
     18 C10        -3.3100   -1.3040    0.4670 c3        1 0MB      0.188800
     19 HAF1       -4.9080    0.8970   -0.0240 h1        1 0MB      0.053700
     20 HAF2       -4.6440    0.9730   -1.8250 h1        1 0MB      0.053700
     21 HAG1       -1.6470    2.4320    0.6280 h1        1 0MB      0.061200
     22 HAG2       -3.3910    2.6030    1.1250 h1        1 0MB      0.061200
     23 HAI1       -3.4740    0.5870    2.2130 h1        1 0MB      0.065200
     24 HAI2       -1.6970    0.9500    2.3940 h1        1 0MB      0.065200
     25 H101       -2.9990   -2.3820    0.3380 h1        1 0MB      0.063200
     26 H102       -4.1570   -1.2780    1.2120 h1        1 0MB      0.063200
     27 HAA         5.8410    2.1200   -0.5620 ha        1 0MB      0.132000
     28 HAB         3.6700    3.3440   -0.6850 ha        1 0MB      0.134500
     29 HAC         5.8580   -0.3500   -0.2040 ha        1 0MB      0.134500
     30 HAD         1.5240    2.1180   -0.4520 ha        1 0MB      0.149000
     31 HAE         3.7220   -1.5970    0.0300 ha        1 0MB      0.149000
     32 H91C       -4.7360   -1.3510   -1.1430 hc        1 0MB      0.057200
     33 H92C       -3.0490   -0.9750   -1.6700 hc        1 0MB      0.057200
     34 HL         -2.2690    1.3350   -1.2380 hn        1 0MB      0.367800
@<TRIPOS>BOND
     1    1   13 1   
     2    1   15 2   
     3    2   15 1   
     4    2   17 2   
     5    3   10 1   
     6    3   11 1   
     7    3   34 1   
     8    4   12 1   
     9    4   17 1   
    10    4   18 1   
    11    5    6 ar  
    12    5    7 ar  
    13    5   27 1   
    14    6    8 ar  
    15    6   29 1   
    16    7    9 ar  
    17    7   28 1   
    18    8   14 ar  
    19    8   31 1   
    20    9   14 ar  
    21    9   30 1   
    22   10   16 1   
    23   10   19 1   
    24   10   20 1   
    25   11   12 1   
    26   11   21 1   
    27   11   22 1   
    28   12   23 1   
    29   12   24 1   
    30   13   17 1   
    31   14   15 1   
    32   16   18 1   
    33   16   32 1   
    34   16   33 1   
    35   18   25 1   
    36   18   26 1   
@<TRIPOS>SUBSTRUCTURE
     1 0MB         1 TEMP              0 ****  ****    0 ROOT
