@<TRIPOS>MOLECULE
0MB
   34    36     1     0     0
SMALL
bcc


@<TRIPOS>ATOM
      1 NJ          0.0600   -0.6560    0.1150 nc        1 0MB     -0.550100
      2 NK          0.6400    0.3690    2.1620 nd        1 0MB     -0.739000
      3 NL          5.1360    0.2080    4.4400 n3        1 0MB     -0.833200
      4 NQ          3.0600    0.6910    2.0750 nh        1 0MB     -0.732300
      5 CAA        -4.4640    0.0150    2.3980 ca        1 0MB     -0.116000
      6 CAC        -4.1010    0.0630    1.0520 ca        1 0MB     -0.143500
      7 CAB        -3.4790   -0.0830    3.3800 ca        1 0MB     -0.143500
      8 CAE        -2.7570    0.0140    0.6840 ca        1 0MB     -0.089500
      9 CAD        -2.1320   -0.1330    3.0230 ca        1 0MB     -0.089500
     10 CAF         5.8450   -0.4770    3.3830 c3        1 0MB      0.168800
     11 CAG         4.4610    1.4280    4.0590 c3        1 0MB      0.158800
     12 CAI         3.0720    1.1940    3.4380 c3        1 0MB      0.206800
     13 SAM         1.6860   -0.5530   -0.0030 ss        1 0MB      0.012700
     14 CAN        -1.7670   -0.0830    1.6710 ca        1 0MB     -0.123500
     15 CAO        -0.3450   -0.1360    1.2840 cd        1 0MB      0.665500
     16 C9          4.9500   -0.9850    2.2570 c3        1 0MB     -0.107400
     17 CAP         1.8550    0.2200    1.5880 cc        1 0MB      0.670300
     18 C10         4.2760    0.1570    1.5010 c3        1 0MB      0.202800
     19 HAF1        6.6490    0.1730    2.9230 h1        1 0MB      0.030200
     20 HAF2        6.3570   -1.3660    3.8520 h1        1 0MB      0.030200
     21 HAG1        4.2750    2.0280    4.9970 h1        1 0MB      0.039700
     22 HAG2        5.0810    2.0700    3.3660 h1        1 0MB      0.039700
     23 HAI1        2.4880    0.5050    4.1160 h1        1 0MB      0.065700
     24 HAI2        2.5410    2.1900    3.4150 h1        1 0MB      0.065700
     25 H101        4.0560   -0.1930    0.4490 h1        1 0MB      0.058700
     26 H102        4.9990    1.0210    1.4200 h1        1 0MB      0.058700
     27 HAA        -5.5250    0.0530    2.6840 ha        1 0MB      0.131000
     28 HAB        -3.7620   -0.1220    4.4420 ha        1 0MB      0.133000
     29 HAC        -4.8760    0.1400    0.2760 ha        1 0MB      0.133000
     30 HAD        -1.3630   -0.2100    3.8070 ha        1 0MB      0.150000
     31 HAE        -2.4810    0.0520   -0.3810 ha        1 0MB      0.150000
     32 H91C        4.1890   -1.7030    2.6600 hc        1 0MB      0.062700
     33 H92C        5.5980   -1.5460    1.5340 hc        1 0MB      0.062700
     34 HL          5.7620    0.3860    5.2040 hn        1 0MB      0.369800
@<TRIPOS>BOND
     1    1   13 1   
     2    1   15 2   
     3    2   15 1   
     4    2   17 2   
     5    3   10 1   
     6    3   11 1   
     7    3   34 1   
     8    4   12 1   
     9    4   17 1   
    10    4   18 1   
    11    5    6 ar  
    12    5    7 ar  
    13    5   27 1   
    14    6    8 ar  
    15    6   29 1   
    16    7    9 ar  
    17    7   28 1   
    18    8   14 ar  
    19    8   31 1   
    20    9   14 ar  
    21    9   30 1   
    22   10   16 1   
    23   10   19 1   
    24   10   20 1   
    25   11   12 1   
    26   11   21 1   
    27   11   22 1   
    28   12   23 1   
    29   12   24 1   
    30   13   17 1   
    31   14   15 1   
    32   16   18 1   
    33   16   32 1   
    34   16   33 1   
    35   18   25 1   
    36   18   26 1   
@<TRIPOS>SUBSTRUCTURE
     1 0MB         1 TEMP              0 ****  ****    0 ROOT
