@<TRIPOS>MOLECULE
0MB
   34    36     1     0     0
SMALL
bcc


@<TRIPOS>ATOM
      1 NJ          0.0590   -0.6740    0.1200 nc        1 0MB     -0.550100
      2 NK          0.6410    0.3670    2.1580 nd        1 0MB     -0.739000
      3 NL          5.1370    0.2240    4.4430 n3        1 0MB     -0.833200
      4 NQ          3.0620    0.6810    2.0700 nh        1 0MB     -0.731300
      5 CAA        -4.4640    0.0310    2.3930 ca        1 0MB     -0.116000
      6 CAC        -4.1000    0.0680    1.0480 ca        1 0MB     -0.143500
      7 CAB        -3.4800   -0.0630    3.3770 ca        1 0MB     -0.143500
      8 CAE        -2.7560    0.0120    0.6810 ca        1 0MB     -0.089500
      9 CAD        -2.1330   -0.1200    3.0220 ca        1 0MB     -0.089500
     10 CAF         5.8430   -0.4780    3.3950 c3        1 0MB      0.168800
     11 CAG         4.4630    1.4390    4.0450 c3        1 0MB      0.158800
     12 CAI         3.0740    1.1980    3.4270 c3        1 0MB      0.206800
     13 SAM         1.6850   -0.5770    0.0020 ss        1 0MB      0.012700
     14 CAN        -1.7670   -0.0820    1.6690 ca        1 0MB     -0.123500
     15 CAO        -0.3450   -0.1430    1.2840 cd        1 0MB      0.665500
     16 C9          4.9460   -0.9990    2.2770 c3        1 0MB     -0.107400
     17 CAP         1.8560    0.2090    1.5860 cc        1 0MB      0.670300
     18 C10         4.2770    0.1350    1.5040 c3        1 0MB      0.202800
     19 HAF1        6.6490    0.1640    2.9260 h1        1 0MB      0.030200
     20 HAF2        6.3530   -1.3610    3.8760 h1        1 0MB      0.030200
     21 HAG1        4.2780    2.0520    4.9750 h1        1 0MB      0.039700
     22 HAG2        5.0840    2.0710    3.3450 h1        1 0MB      0.039700
     23 HAI1        2.5420    2.1940    3.3940 h1        1 0MB      0.065700
     24 HAI2        2.4900    0.5160    4.1120 h1        1 0MB      0.065700
     25 H101        4.0570   -0.2290    0.4570 h1        1 0MB      0.058700
     26 H102        5.0030    0.9960    1.4110 h1        1 0MB      0.058700
     27 HAA        -5.5250    0.0750    2.6790 ha        1 0MB      0.131000
     28 HAB        -3.7640   -0.0930    4.4390 ha        1 0MB      0.133000
     29 HAC        -4.8740    0.1410    0.2700 ha        1 0MB      0.133000
     30 HAD        -1.3650   -0.1940    3.8060 ha        1 0MB      0.150000
     31 HAE        -2.4790    0.0410   -0.3840 ha        1 0MB      0.150000
     32 H91C        4.1830   -1.7080    2.6900 hc        1 0MB      0.062700
     33 H92C        5.5930   -1.5720    1.5620 hc        1 0MB      0.062700
     34 HL          5.7640    0.4110    5.2040 hn        1 0MB      0.369800
@<TRIPOS>BOND
     1    1   13 1   
     2    1   15 2   
     3    2   15 1   
     4    2   17 2   
     5    3   10 1   
     6    3   11 1   
     7    3   34 1   
     8    4   12 1   
     9    4   17 1   
    10    4   18 1   
    11    5    6 ar  
    12    5    7 ar  
    13    5   27 1   
    14    6    8 ar  
    15    6   29 1   
    16    7    9 ar  
    17    7   28 1   
    18    8   14 ar  
    19    8   31 1   
    20    9   14 ar  
    21    9   30 1   
    22   10   16 1   
    23   10   19 1   
    24   10   20 1   
    25   11   12 1   
    26   11   21 1   
    27   11   22 1   
    28   12   23 1   
    29   12   24 1   
    30   13   17 1   
    31   14   15 1   
    32   16   18 1   
    33   16   32 1   
    34   16   33 1   
    35   18   25 1   
    36   18   26 1   
@<TRIPOS>SUBSTRUCTURE
     1 0MB         1 TEMP              0 ****  ****    0 ROOT
