@<TRIPOS>MOLECULE
0MB
   34    33     1     0     0
SMALL
bcc


@<TRIPOS>ATOM
      1 NJ         -1.5870    0.6200   -1.9000 nc        1 0MB     -0.550100
      2 NK         -0.6080   -0.3350    0.0810 nd        1 0MB     -0.739000
      3 NL          3.4580    0.3680    1.8420 n3        1 0MB     -0.832200
      4 NQ          1.6990    0.3000    0.0280 nh        1 0MB     -0.731300
      5 CAA        -6.0620   -1.0090   -0.1910 c1        1 0MB     -0.065750
      6 CAC        -5.2390   -1.9180   -0.8370 c1        1 0MB     -0.065750
      7 CAB        -5.5370    0.1810    0.2900 c1        1 0MB     -0.065750
      8 CAE        -3.8910   -1.6380   -1.0020 c1        1 0MB     -0.065750
      9 CAD        -4.1900    0.4610    0.1250 c1        1 0MB     -0.030500
     10 CAF         4.3840   -0.2590    0.9640 c3        1 0MB      0.169800
     11 CAG         3.1370    1.6790    1.3930 c3        1 0MB      0.158800
     12 CAI         2.0380    1.6400    0.3550 c3        1 0MB      0.205800
     13 SAM        -0.1560    0.9020   -1.8810 ss        1 0MB      0.012700
     14 CAN        -3.3670   -0.4480   -0.5210 ch        1 0MB     -0.123000
     15 CAO        -1.9030   -0.1300   -0.7260 cd        1 0MB      0.665000
     16 C9          3.6640   -1.1030   -0.0650 c3        1 0MB     -0.108400
     17 CAP         0.4260    0.2730   -0.5980 cc        1 0MB      0.670300
     18 C10         2.6660   -0.2720   -0.8410 c3        1 0MB      0.202800
     19 HL          3.8160    0.4130    2.6830 hn        1 0MB      0.370800
     20 HAF1        4.9850   -0.8290    1.4850 h1        1 0MB      0.030200
     21 HAF2        4.9090    0.4290    0.5050 h1        1 0MB      0.030200
     22 HAG1        2.8400    2.2170    2.1560 h1        1 0MB      0.039700
     23 HAG2        3.9350    2.0900    1.0010 h1        1 0MB      0.039700
     24 HAI1        2.3410    2.1020   -0.4540 h1        1 0MB      0.065700
     25 HAI2        1.2450    2.0950    0.7080 h1        1 0MB      0.065700
     26 H101        2.2130   -0.8420   -1.4960 h1        1 0MB      0.058700
     27 H102        3.1410    0.4450   -1.3110 h1        1 0MB      0.058700
     28 HAA        -7.0110   -1.2060   -0.0750 ha        1 0MB      0.079250
     29 HAB        -6.1170    0.8210    0.7450 ha        1 0MB      0.079250
     30 HAC        -5.6080   -2.7550   -1.1760 ha        1 0MB      0.079250
     31 HAD        -3.8210    1.2980    0.4640 ha        1 0MB      0.092500
     32 HAE        -3.3120   -2.2780   -1.4570 ha        1 0MB      0.079250
     33 H91C        4.3180   -1.4820   -0.6850 hc        1 0MB      0.062700
     34 H92C        3.1920   -1.8300    0.3890 hc        1 0MB      0.062700
@<TRIPOS>BOND
     1    1   13 1   
     2    1   15 2   
     3    2   15 1   
     4    2   17 2   
     5    3   10 1   
     6    3   11 1   
     7    3   19 1   
     8    4   12 1   
     9    4   17 1   
    10    4   18 1   
    11    5    7 3   
    12    5   28 1   
    13    6    8 3   
    14    6   30 1   
    15    7   29 1   
    16    8   32 1   
    17    9   14 3   
    18    9   31 1   
    19   10   16 1   
    20   10   20 1   
    21   10   21 1   
    22   11   12 1   
    23   11   22 1   
    24   11   23 1   
    25   12   24 1   
    26   12   25 1   
    27   13   17 1   
    28   14   15 1   
    29   16   18 1   
    30   16   33 1   
    31   16   34 1   
    32   18   26 1   
    33   18   27 1   
@<TRIPOS>SUBSTRUCTURE
     1 0MB         1 TEMP              0 ****  ****    0 ROOT
