@<TRIPOS>MOLECULE
0MB
   34    36     1     0     0
SMALL
bcc


@<TRIPOS>ATOM
      1 NJ          0.0560   -0.6760    0.1230 nc        1 0MB     -0.550100
      2 NK          0.6400    0.3670    2.1590 nd        1 0MB     -0.739000
      3 NL          5.1390    0.2250    4.4380 n7        1 0MB     -0.833200
      4 NQ          3.0610    0.6820    2.0670 nh        1 0MB     -0.732300
      5 CAA        -4.4640    0.0280    2.4020 ca        1 0MB     -0.116000
      6 CAC        -4.1020    0.0630    1.0560 ca        1 0MB     -0.143500
      7 CAB        -3.4780   -0.0640    3.3840 ca        1 0MB     -0.143500
      8 CAE        -2.7590    0.0080    0.6870 ca        1 0MB     -0.089500
      9 CAD        -2.1320   -0.1200    3.0270 ca        1 0MB     -0.089500
     10 CAF         5.8440   -0.4760    3.3890 c3        1 0MB      0.168800
     11 CAG         4.4650    1.4400    4.0420 c3        1 0MB      0.158800
     12 CAI         3.0750    1.2000    3.4250 c3        1 0MB      0.206800
     13 SAM         1.6830   -0.5790    0.0030 ss        1 0MB      0.012700
     14 CAN        -1.7680   -0.0840    1.6740 ca        1 0MB     -0.123500
     15 CAO        -0.3460   -0.1440    1.2870 cd        1 0MB      0.665500
     16 C9          4.9470   -0.9970    2.2710 c3        1 0MB     -0.107400
     17 CAP         1.8540    0.2090    1.5860 cc        1 0MB      0.670300
     18 C10         4.2760    0.1370    1.5000 c3        1 0MB      0.202800
     19 HAF1        6.6490    0.1660    2.9200 h1        1 0MB      0.030200
     20 HAF2        6.3550   -1.3600    3.8690 h1        1 0MB      0.030200
     21 HAG1        5.0850    2.0720    3.3410 h1        1 0MB      0.039700
     22 HAG2        4.2800    2.0530    4.9720 h1        1 0MB      0.039700
     23 HAI1        2.5440    2.1960    3.3920 h1        1 0MB      0.065700
     24 HAI2        2.4910    0.5180    4.1110 h1        1 0MB      0.065700
     25 H101        5.0010    0.9980    1.4070 h1        1 0MB      0.058700
     26 H102        4.0540   -0.2260    0.4530 h1        1 0MB      0.058700
     27 HAA        -5.5250    0.0720    2.6880 ha        1 0MB      0.131000
     28 HAB        -3.7620   -0.0920    4.4470 ha        1 0MB      0.133000
     29 HAC        -4.8770    0.1350    0.2790 ha        1 0MB      0.133000
     30 HAD        -1.3630   -0.1920    3.8110 ha        1 0MB      0.150000
     31 HAE        -2.4830    0.0350   -0.3780 ha        1 0MB      0.150000
     32 H91C        4.1840   -1.7070    2.6840 hc        1 0MB      0.062700
     33 H92C        5.5930   -1.5690    1.5550 hc        1 0MB      0.062700
     34 HL          5.7660    0.4110    5.1980 hn        1 0MB      0.369800
@<TRIPOS>BOND
     1    1   13 1   
     2    1   15 2   
     3    2   15 1   
     4    2   17 2   
     5    3   10 1   
     6    3   11 1   
     7    3   34 1   
     8    4   12 1   
     9    4   17 1   
    10    4   18 1   
    11    5    6 ar  
    12    5    7 ar  
    13    5   27 1   
    14    6    8 ar  
    15    6   29 1   
    16    7    9 ar  
    17    7   28 1   
    18    8   14 ar  
    19    8   31 1   
    20    9   14 ar  
    21    9   30 1   
    22   10   16 1   
    23   10   19 1   
    24   10   20 1   
    25   11   12 1   
    26   11   21 1   
    27   11   22 1   
    28   12   23 1   
    29   12   24 1   
    30   13   17 1   
    31   14   15 1   
    32   16   18 1   
    33   16   32 1   
    34   16   33 1   
    35   18   25 1   
    36   18   26 1   
@<TRIPOS>SUBSTRUCTURE
     1 0MB         1 TEMP              0 ****  ****    0 ROOT
