@<TRIPOS>MOLECULE
0MC
   90    93     1     0     0
SMALL
bcc


@<TRIPOS>ATOM
      1 CAA         0.3970    0.2230   -0.4720 c3        1 0MC     -0.086100
      2 CAQ         1.8450    0.1790   -0.0610 c3        1 0MC     -0.076400
      3 CBQ         2.0260   -0.0660    1.4310 c3        1 0MC     -0.072700
      4 CAX         1.5800    1.1510    2.2260 c3        1 0MC     -0.096400
      5 CAS         1.8300    0.9820    3.7090 c3        1 0MC     -0.065400
      6 CAU         3.3050    0.7510    3.9570 c3        1 0MC     -0.092400
      7 CBB         3.7770   -0.4920    3.2390 c3        1 0MC     -0.100400
      8 CBT         3.4970   -0.4330    1.7280 c3        1 0MC      0.100800
      9 OAI         4.4000    0.4300    1.0610 oh        1 0MC     -0.630800
     10 CBJ         3.8010   -1.8340    1.1880 c         1 0MC      0.532100
     11 OAG         2.9500   -2.7020    0.9970 o         1 0MC     -0.518100
     12 CBI         5.2750   -2.1780    0.9890 c         1 0MC      0.602100
     13 OAF         5.9490   -2.6050    1.9440 o         1 0MC     -0.594100
     14 N           5.7960   -2.0660   -0.2910 n         1 0MC     -0.450800
     15 CBA         4.9940   -1.4960   -1.3540 c3        1 0MC      0.085000
     16 CAT         5.6270   -1.6380   -2.7360 c3        1 0MC     -0.097400
     17 CAR         6.2620   -3.0010   -2.9010 c3        1 0MC     -0.072400
     18 CB          7.3430   -3.2450   -1.8650 c3        1 0MC     -0.078400
     19 CA          7.1620   -2.4380   -0.5630 c3        1 0MC      0.074700
     20 C           8.1010   -1.2260   -0.6330 c         1 0MC      0.621100
     21 O           8.0910   -0.2820   -1.4230 o         1 0MC     -0.544000
     22 OBF         9.0920   -1.3100    0.3000 os        1 0MC     -0.432900
     23 CBP        10.0010   -0.1910    0.4470 c3        1 0MC      0.193400
     24 CAZ        11.3770   -0.8030    0.6860 c3        1 0MC     -0.078400
     25 CAV        11.9090   -1.4600   -0.5740 c3        1 0MC     -0.038100
     26 CBK        13.1910   -2.1760   -0.3280 ca        1 0MC     -0.066300
     27 CAO        13.1910   -3.3460    0.4470 ca        1 0MC     -0.176000
     28 CAM        14.3870   -1.7060   -0.8670 ca        1 0MC     -0.130000
     29 CAN        15.5870   -2.3860   -0.6460 ca        1 0MC     -0.178000
     30 CBN        15.5970   -3.5480    0.1240 ca        1 0MC      0.091100
     31 OBC        16.7200   -4.3050    0.4030 os        1 0MC     -0.307900
     32 CAB        17.9480   -3.7930   -0.0980 c3        1 0MC      0.112700
     33 CBO        14.3820   -4.0340    0.6780 ca        1 0MC      0.103100
     34 OBD        14.4900   -5.1950    1.4180 os        1 0MC     -0.310900
     35 CAC        13.2940   -5.6410    2.0470 c3        1 0MC      0.110700
     36 CBM         9.5120    0.6800    1.5680 ca        1 0MC     -0.082300
     37 CAP         8.3570    1.4280    1.3450 ca        1 0MC     -0.152000
     38 CAL        10.1640    0.7570    2.8050 ca        1 0MC     -0.172000
     39 CAJ         9.6630    1.5890    3.8020 ca        1 0MC     -0.104000
     40 CAK         8.5060    2.3400    3.5990 ca        1 0MC     -0.210000
     41 CBL         7.8410    2.2490    2.3680 ca        1 0MC      0.151100
     42 OBE         6.6870    2.9140    2.0430 os        1 0MC     -0.289900
     43 CAW         6.0560    3.6420    3.1000 c3        1 0MC     -0.009600
     44 CBG         4.6660    4.0880    2.5830 c         1 0MC      0.930600
     45 OAH         4.3140    5.2620    2.8660 o         1 0MC     -0.829300
     46 OAD         3.9520    3.2470    1.9660 o         1 0MC     -0.829300
     47 H1          0.3160    0.3060   -1.5830 hc        1 0MC      0.026367
     48 H2         -0.1190    1.1030   -0.0170 hc        1 0MC      0.026367
     49 H3         -0.1360   -0.7040   -0.1480 hc        1 0MC      0.026367
     50 H4          2.3570    1.1410   -0.3340 hc        1 0MC      0.047700
     51 H5          2.3650   -0.6440   -0.6240 hc        1 0MC      0.047700
     52 H6          1.4000   -0.9500    1.7380 hc        1 0MC      0.050700
     53 H7          2.1340    2.0650    1.8640 hc        1 0MC      0.072700
     54 H8          0.4860    1.3180    2.0490 hc        1 0MC      0.072700
     55 H9          1.2330    0.1210    4.1090 hc        1 0MC      0.028700
     56 H10         1.5000    1.9080    4.2480 hc        1 0MC      0.028700
     57 H11         3.8820    1.6490    3.5880 hc        1 0MC      0.064200
     58 H12         3.5000    0.6400    5.0540 hc        1 0MC      0.064200
     59 H13         4.8810   -0.6250    3.3850 hc        1 0MC      0.053200
     60 H14         3.2570   -1.3910    3.6610 hc        1 0MC      0.053200
     61 H15         4.2990    1.3290    1.4360 ho        1 0MC      0.490000
     62 H16         4.8090   -0.4030   -1.1290 h1        1 0MC      0.065200
     63 H17         3.9960   -2.0260   -1.3530 h1        1 0MC      0.065200
     64 H18         4.8280   -1.4870   -3.5050 hc        1 0MC      0.064700
     65 H19         6.4020   -0.8380   -2.8780 hc        1 0MC      0.064700
     66 H20         6.7030   -3.0910   -3.9270 hc        1 0MC      0.039200
     67 H21         5.4700   -3.7900   -2.8070 hc        1 0MC      0.039200
     68 H22         7.3580   -4.3340   -1.5990 hc        1 0MC      0.047700
     69 H23         8.3470   -2.9920   -2.2980 hc        1 0MC      0.047700
     70 H24         7.5240   -3.0740    0.3070 h1        1 0MC      0.111700
     71 H25        10.0110    0.4090   -0.5090 h1        1 0MC      0.079700
     72 H26        12.0740    0.0110    1.0130 hc        1 0MC      0.059700
     73 H27        11.3110   -1.5620    1.5080 hc        1 0MC      0.059700
     74 H28        12.0500   -0.6810   -1.3710 hc        1 0MC      0.053200
     75 H29        11.1440   -2.1910   -0.9540 hc        1 0MC      0.053200
     76 H30        12.2420   -3.7070    0.8680 ha        1 0MC      0.148000
     77 H31        14.3930   -0.7880   -1.4740 ha        1 0MC      0.134000
     78 H32        16.5170   -1.9950   -1.0810 ha        1 0MC      0.134000
     79 H33        17.9370   -3.7590   -1.2150 h1        1 0MC      0.039700
     80 H34        18.7050   -4.5330    0.2660 h1        1 0MC      0.039700
     81 H35        18.1570   -2.7780    0.3210 h1        1 0MC      0.039700
     82 H36        13.6230   -6.5480    2.6150 h1        1 0MC      0.044367
     83 H37        12.5250   -5.9140    1.2840 h1        1 0MC      0.044367
     84 H38        12.8950   -4.8640    2.7430 h1        1 0MC      0.044367
     85 H39         7.8240    1.3730    0.3810 ha        1 0MC      0.166000
     86 H40        11.0630    0.1580    3.0030 ha        1 0MC      0.119000
     87 H41        10.1830    1.6510    4.7690 ha        1 0MC      0.116000
     88 H42         8.1210    2.9880    4.3970 ha        1 0MC      0.140000
     89 H43         5.9170    2.9810    3.9940 h1        1 0MC      0.027200
     90 H44         6.6850    4.5270    3.3680 h1        1 0MC      0.027200
@<TRIPOS>BOND
     1    1    2 1   
     2    1   47 1   
     3    1   48 1   
     4    1   49 1   
     5    2    3 1   
     6    2   50 1   
     7    2   51 1   
     8    3    4 1   
     9    3    8 1   
    10    3   52 1   
    11    4    5 1   
    12    4   53 1   
    13    4   54 1   
    14    5    6 1   
    15    5   55 1   
    16    5   56 1   
    17    6    7 1   
    18    6   57 1   
    19    6   58 1   
    20    7    8 1   
    21    7   59 1   
    22    7   60 1   
    23    8    9 1   
    24    8   10 1   
    25    9   61 1   
    26   10   11 2   
    27   10   12 1   
    28   12   13 2   
    29   12   14 1   
    30   14   15 1   
    31   14   19 1   
    32   15   16 1   
    33   15   62 1   
    34   15   63 1   
    35   16   17 1   
    36   16   64 1   
    37   16   65 1   
    38   17   18 1   
    39   17   66 1   
    40   17   67 1   
    41   18   19 1   
    42   18   68 1   
    43   18   69 1   
    44   19   20 1   
    45   19   70 1   
    46   20   21 2   
    47   20   22 1   
    48   22   23 1   
    49   23   24 1   
    50   23   36 1   
    51   23   71 1   
    52   24   25 1   
    53   24   72 1   
    54   24   73 1   
    55   25   26 1   
    56   25   74 1   
    57   25   75 1   
    58   26   27 ar  
    59   26   28 ar  
    60   27   33 ar  
    61   27   76 1   
    62   28   29 ar  
    63   28   77 1   
    64   29   30 ar  
    65   29   78 1   
    66   30   31 1   
    67   30   33 ar  
    68   31   32 1   
    69   32   79 1   
    70   32   80 1   
    71   32   81 1   
    72   33   34 1   
    73   34   35 1   
    74   35   82 1   
    75   35   83 1   
    76   35   84 1   
    77   36   37 ar  
    78   36   38 ar  
    79   37   41 ar  
    80   37   85 1   
    81   38   39 ar  
    82   38   86 1   
    83   39   40 ar  
    84   39   87 1   
    85   40   41 ar  
    86   40   88 1   
    87   41   42 1   
    88   42   43 1   
    89   43   44 1   
    90   43   89 1   
    91   43   90 1   
    92   44   45 1   
    93   44   46 1   
@<TRIPOS>SUBSTRUCTURE
     1 0MC         1 TEMP              0 ****  ****    0 ROOT
