@<TRIPOS>MOLECULE
0MC
   90    93     1     0     0
SMALL
bcc


@<TRIPOS>ATOM
      1 CAA        -7.1640   -3.1180   -0.0360 c3        1 0MC     -0.090100
      2 CAQ        -5.9060   -2.4320   -0.5020 c3        1 0MC     -0.074400
      3 CBQ        -5.8950   -0.9460   -0.1770 c3        1 0MC     -0.045700
      4 CAX        -6.8680   -0.1850   -1.0660 c3        1 0MC     -0.070400
      5 CAS        -6.8610    1.2980   -0.7630 c3        1 0MC     -0.076400
      6 CAU        -5.4740    1.8850   -0.9190 c3        1 0MC     -0.076400
      7 CBB        -4.4730    1.1520   -0.0550 c3        1 0MC     -0.104400
      8 CBT        -4.4760   -0.3580   -0.3330 c3        1 0MC      0.083800
      9 OAI        -4.0280   -0.6730   -1.6440 oh        1 0MC     -0.605800
     10 CBJ        -3.5290   -1.0020    0.6810 c         1 0MC      0.508100
     11 OAG        -3.8200   -1.2320    1.8530 o         1 0MC     -0.495100
     12 CBI        -2.1220   -1.2690    0.1420 c         1 0MC      0.575100
     13 OAF        -1.5770   -0.4060   -0.5760 o         1 0MC     -0.587100
     14 N          -1.4360   -2.4180    0.5170 n         1 0MC     -0.434800
     15 CBA        -2.1210   -3.6030    0.9900 c3        1 0MC      0.085000
     16 CAT        -2.1730   -4.7370   -0.0380 c3        1 0MC     -0.109400
     17 CAR        -0.7910   -5.0500   -0.5720 c3        1 0MC     -0.076400
     18 CB         -0.0980   -3.8030   -1.0760 c3        1 0MC     -0.100400
     19 CA         -0.1030   -2.7060    0.0040 c3        1 0MC      0.056700
     20 C           0.6340   -1.4890   -0.5430 c         1 0MC      0.656100
     21 O           0.9240   -1.2610   -1.7180 o         1 0MC     -0.546000
     22 OBF         1.0930   -0.6790    0.4510 os        1 0MC     -0.426900
     23 CBP         1.5930    0.6340    0.0900 c3        1 0MC      0.201400
     24 CAZ         3.1170    0.6090    0.1690 c3        1 0MC     -0.091400
     25 CAV         3.7300    0.0650   -1.1080 c3        1 0MC     -0.045100
     26 CBK         5.2020   -0.1180   -0.9830 ca        1 0MC     -0.061300
     27 CAO         5.7090   -1.1260   -0.1490 ca        1 0MC     -0.177000
     28 CAM         6.0850    0.6920   -1.6960 ca        1 0MC     -0.128000
     29 CAN         7.4650    0.5130   -1.5910 ca        1 0MC     -0.177000
     30 CBN         7.9770   -0.4850   -0.7620 ca        1 0MC      0.089100
     31 OBC         9.3210   -0.7570   -0.5840 os        1 0MC     -0.308900
     32 CAB        10.2200    0.1050   -1.2700 c3        1 0MC      0.112700
     33 CBO         7.0850   -1.3150   -0.0320 ca        1 0MC      0.100100
     34 OBD         7.6840   -2.2810    0.7550 os        1 0MC     -0.310900
     35 CAC         6.8030   -3.0580    1.5570 c3        1 0MC      0.111700
     36 CBM         0.9670    1.6020    1.0540 ca        1 0MC     -0.072300
     37 CAP        -0.2910    2.1140    0.7470 ca        1 0MC     -0.151000
     38 CAL         1.6120    1.9930    2.2350 ca        1 0MC     -0.174000
     39 CAJ         1.0030    2.9090    3.0870 ca        1 0MC     -0.106000
     40 CAK        -0.2520    3.4390    2.7920 ca        1 0MC     -0.208000
     41 CBL        -0.9090    3.0340    1.6210 ca        1 0MC      0.150100
     42 OBE        -2.1510    3.4580    1.2280 os        1 0MC     -0.296900
     43 CAW        -2.8220    4.3630    2.1140 c3        1 0MC     -0.007600
     44 CBG        -4.2340    4.6190    1.5180 c         1 0MC      0.923600
     45 OAH        -4.4670    5.7820    1.0960 o         1 0MC     -0.825300
     46 OAD        -5.0640    3.6710    1.5450 o         1 0MC     -0.825300
     47 H1         -7.0960   -4.2160   -0.2260 hc        1 0MC      0.028700
     48 H2         -7.3190   -2.9570    1.0580 hc        1 0MC      0.028700
     49 H3         -8.0570   -2.7230   -0.5780 hc        1 0MC      0.028700
     50 H4         -5.0200   -2.9170   -0.0080 hc        1 0MC      0.037700
     51 H5         -5.7790   -2.5650   -1.6090 hc        1 0MC      0.037700
     52 H6         -6.1850   -0.7970    0.9020 hc        1 0MC      0.072700
     53 H7         -6.5830   -0.3510   -2.1390 hc        1 0MC      0.034700
     54 H8         -7.9000   -0.5960   -0.9160 hc        1 0MC      0.034700
     55 H9         -7.5700    1.8220   -1.4550 hc        1 0MC      0.043700
     56 H10        -7.2170    1.4760    0.2860 hc        1 0MC      0.043700
     57 H11        -5.1600    1.8350   -1.9940 hc        1 0MC      0.067700
     58 H12        -5.4810    2.9630   -0.5880 hc        1 0MC      0.067700
     59 H13        -3.4420    1.5610   -0.2330 hc        1 0MC      0.092700
     60 H14        -4.7210    1.3430    1.0250 hc        1 0MC      0.092700
     61 H15        -3.3710   -0.0060   -1.8910 ho        1 0MC      0.429000
     62 H16        -1.5680   -3.9670    1.9050 h1        1 0MC      0.064200
     63 H17        -3.1700   -3.3430    1.3060 h1        1 0MC      0.064200
     64 H18        -2.6080   -5.6420    0.4570 hc        1 0MC      0.052200
     65 H19        -2.8520   -4.4500   -0.8830 hc        1 0MC      0.052200
     66 H20        -0.1750   -5.5170    0.2410 hc        1 0MC      0.039200
     67 H21        -0.8680   -5.7960   -1.4050 hc        1 0MC      0.039200
     68 H22         0.9660   -4.0300   -1.3440 hc        1 0MC      0.066200
     69 H23        -0.6030   -3.4180   -2.0010 hc        1 0MC      0.066200
     70 H24         0.4980   -3.0750    0.8930 h1        1 0MC      0.076700
     71 H25         1.2620    0.8780   -0.9610 h1        1 0MC      0.087700
     72 H26         3.4830    1.6540    0.3440 hc        1 0MC      0.057200
     73 H27         3.4340   -0.0190    1.0410 hc        1 0MC      0.057200
     74 H28         3.2480   -0.9200   -1.3570 hc        1 0MC      0.061200
     75 H29         3.4990    0.7620   -1.9570 hc        1 0MC      0.061200
     76 H30         5.0050   -1.7600    0.4100 ha        1 0MC      0.143000
     77 H31         5.6940    1.4850   -2.3520 ha        1 0MC      0.136000
     78 H32         8.1390    1.1640   -2.1630 ha        1 0MC      0.134000
     79 H33        11.2280   -0.2730   -0.9650 h1        1 0MC      0.039700
     80 H34        10.0860    0.0180   -2.3760 h1        1 0MC      0.039700
     81 H35        10.0820    1.1650   -0.9450 h1        1 0MC      0.039700
     82 H36         7.4950   -3.7250    2.1300 h1        1 0MC      0.041700
     83 H37         6.2170   -2.4090    2.2510 h1        1 0MC      0.041700
     84 H38         6.1170   -3.6630    0.9160 h1        1 0MC      0.041700
     85 H39        -0.8300    1.7940   -0.1600 ha        1 0MC      0.164000
     86 H40         2.5930    1.5720    2.4960 ha        1 0MC      0.119000
     87 H41         1.5160    3.2190    4.0090 ha        1 0MC      0.115000
     88 H42        -0.7200    4.1620    3.4740 ha        1 0MC      0.141000
     89 H43        -2.9190    3.8970    3.1260 h1        1 0MC      0.024200
     90 H44        -2.2400    5.3170    2.1750 h1        1 0MC      0.024200
@<TRIPOS>BOND
     1    1    2 1   
     2    1   47 1   
     3    1   48 1   
     4    1   49 1   
     5    2    3 1   
     6    2   50 1   
     7    2   51 1   
     8    3    4 1   
     9    3    8 1   
    10    3   52 1   
    11    4    5 1   
    12    4   53 1   
    13    4   54 1   
    14    5    6 1   
    15    5   55 1   
    16    5   56 1   
    17    6    7 1   
    18    6   57 1   
    19    6   58 1   
    20    7    8 1   
    21    7   59 1   
    22    7   60 1   
    23    8    9 1   
    24    8   10 1   
    25    9   61 1   
    26   10   11 2   
    27   10   12 1   
    28   12   13 2   
    29   12   14 1   
    30   14   15 1   
    31   14   19 1   
    32   15   16 1   
    33   15   62 1   
    34   15   63 1   
    35   16   17 1   
    36   16   64 1   
    37   16   65 1   
    38   17   18 1   
    39   17   66 1   
    40   17   67 1   
    41   18   19 1   
    42   18   68 1   
    43   18   69 1   
    44   19   20 1   
    45   19   70 1   
    46   20   21 2   
    47   20   22 1   
    48   22   23 1   
    49   23   24 1   
    50   23   36 1   
    51   23   71 1   
    52   24   25 1   
    53   24   72 1   
    54   24   73 1   
    55   25   26 1   
    56   25   74 1   
    57   25   75 1   
    58   26   27 ar  
    59   26   28 ar  
    60   27   33 ar  
    61   27   76 1   
    62   28   29 ar  
    63   28   77 1   
    64   29   30 ar  
    65   29   78 1   
    66   30   31 1   
    67   30   33 ar  
    68   31   32 1   
    69   32   79 1   
    70   32   80 1   
    71   32   81 1   
    72   33   34 1   
    73   34   35 1   
    74   35   82 1   
    75   35   83 1   
    76   35   84 1   
    77   36   37 ar  
    78   36   38 ar  
    79   37   41 ar  
    80   37   85 1   
    81   38   39 ar  
    82   38   86 1   
    83   39   40 ar  
    84   39   87 1   
    85   40   41 ar  
    86   40   88 1   
    87   41   42 1   
    88   42   43 1   
    89   43   44 1   
    90   43   89 1   
    91   43   90 1   
    92   44   45 1   
    93   44   46 1   
@<TRIPOS>SUBSTRUCTURE
     1 0MC         1 TEMP              0 ****  ****    0 ROOT
