@<TRIPOS>MOLECULE
0MC
   90    85     1     0     0
SMALL
bcc


@<TRIPOS>ATOM
      1 CAA        -4.9390    2.7260   -0.3680 c3        1 0MC     -0.216000
      2 CAQ        -4.3610    1.5140    0.3780 c3        1 0MC     -0.152000
      3 CBQ        -5.3220    0.3520    0.2680 c3        1 0MC     -0.131000
      4 CAX        -6.6300    0.7440    0.9140 c3        1 0MC     -0.154000
      5 CAS        -7.5900   -0.3750    0.9980 c3        1 0MC     -0.162000
      6 CAU        -7.0120   -1.6020    1.6240 c3        1 0MC     -0.154000
      7 CBB        -5.7080   -2.0310    0.9880 c3        1 0MC     -0.192000
      8 CBT        -4.6690   -0.9030    0.9240 c3        1 0MC      0.062000
      9 OAI        -4.0930   -0.6160    2.2010 oh        1 0MC     -0.302000
     10 CBJ        -3.4500   -1.3410    0.1450 c2        1 0MC      0.229000
     11 OAG        -2.3970   -1.5570    0.7320 o         1 0MC     -0.223000
     12 CBI        -3.5990   -1.7450   -1.3430 c2        1 0MC      0.270000
     13 OAF        -4.6860   -2.0860   -1.7730 o         1 0MC     -0.364000
     14 N          -2.4020   -1.8080   -2.2220 n         1 0MC     -0.300000
     15 CBA        -2.4660   -2.2660   -3.6050 c3        1 0MC     -0.021000
     16 CAT        -1.8720   -1.3010   -4.5550 c3        1 0MC     -0.173000
     17 CAR        -0.5250   -0.8790   -4.1730 c3        1 0MC     -0.157000
     18 CB         -0.4550   -0.3990   -2.7680 c3        1 0MC     -0.163000
     19 CA         -1.0370   -1.4030   -1.7650 c3        1 0MC      0.040000
     20 C          -1.0630   -0.8650   -0.3480 c1        1 0MC      0.280000
     21 O          -1.9980   -0.1860    0.0240 o         1 0MC     -0.366000
     22 OBF         0.0990   -1.0420    0.5200 o         1 0MC     -0.263000
     23 CBP         0.9630    0.0390    0.5300 c3        1 0MC      0.079000
     24 CAZ         2.3600   -0.4020   -0.0100 c3        1 0MC     -0.173000
     25 CAV         2.5600    0.1540   -1.4200 c3        1 0MC     -0.122000
     26 CBK         4.0650    0.2580   -1.7220 c2        1 0MC     -0.083000
     27 CAO         4.6440    1.5090   -1.9300 c2        1 0MC     -0.110000
     28 CAM         4.8100   -0.8970   -1.9350 c1        1 0MC     -0.102000
     29 CAN         6.1400   -0.8030   -2.3560 c1        1 0MC     -0.186000
     30 CBN         6.7190    0.4480   -2.5640 c1        1 0MC      0.046000
     31 OBC         8.0040    0.5410   -3.1700 os        1 0MC     -0.210000
     32 CAB         9.0680    0.2180   -2.3060 c3        1 0MC     -0.077000
     33 CBO         5.9710    1.6030   -2.3500 c1        1 0MC      0.025000
     34 OBD         6.5160    2.8760   -2.6950 os        1 0MC     -0.218000
     35 CAC         7.2500    3.4860   -1.6550 c3        1 0MC     -0.073000
     36 CBM         1.1080    0.5640    1.9660 c1        1 0MC     -0.074000
     37 CAP         1.8570   -0.1490    2.8950 c1        1 0MC     -0.147000
     38 CAL         0.5820    1.8150    2.3070 c1        1 0MC     -0.186000
     39 CAJ         0.8090    2.3480    3.5810 c1        1 0MC     -0.155000
     40 CAK         1.5580    1.6350    4.5080 c1        1 0MC     -0.155000
     41 CBL         2.0840    0.3850    4.1700 c1        1 0MC      0.116000
     42 OBE         2.8860   -0.3150    5.0950 o         1 0MC     -0.167000
     43 CAW         2.1580   -0.8870    6.1630 c3        1 0MC     -0.113000
     44 CBG         3.1020   -1.7050    7.0450 c1        1 0MC      0.346000
     45 OAH         3.6660   -1.1620    8.0440 o         1 0MC     -0.549000
     46 OAD         3.2860   -2.9250    6.8050 os        1 0MC     -0.558000
     47 H1         -5.5890    3.1880    0.2100 hc        1 0MC      0.079000
     48 H2         -4.2060    3.3500   -0.6030 hc        1 0MC      0.079000
     49 H3         -5.3830    2.4250   -1.1800 hc        1 0MC      0.079000
     50 H4         -4.2310    1.7430    1.3240 hc        1 0MC      0.085000
     51 H5         -3.5100    1.2680   -0.0150 hc        1 0MC      0.085000
     52 H6         -5.4810    0.1680   -0.6700 hc        1 0MC      0.115000
     53 H7         -7.0360    1.4700    0.3920 hc        1 0MC      0.083500
     54 H8         -6.4480    1.0690    1.8160 hc        1 0MC      0.083500
     55 H9         -7.8940   -0.6000    0.0860 hc        1 0MC      0.083500
     56 H10        -8.3630   -0.0870    1.5240 hc        1 0MC      0.083500
     57 H11        -7.6600   -2.3340    1.5400 hc        1 0MC      0.079500
     58 H12        -6.8550   -1.4260    2.5780 hc        1 0MC      0.079500
     59 H13        -5.3300   -2.7790    1.5100 hc        1 0MC      0.113000
     60 H14        -5.8890   -2.3390    0.0850 hc        1 0MC      0.113000
     61 H15        -4.6890   -0.1790    2.7060 ho        1 0MC      0.207000
     62 H16        -3.4100   -2.4110   -3.8480 h1        1 0MC      0.096500
     63 H17        -1.9870   -3.1150   -3.6780 h1        1 0MC      0.096500
     64 H18        -2.4500   -0.5060   -4.6020 hc        1 0MC      0.096000
     65 H19        -1.8330   -1.7150   -5.4390 hc        1 0MC      0.096000
     66 H20         0.0870   -1.6380   -4.2790 hc        1 0MC      0.085500
     67 H21        -0.2380   -0.1540   -4.7700 hc        1 0MC      0.085500
     68 H22         0.4750   -0.2320   -2.5410 hc        1 0MC      0.112000
     69 H23        -0.9540    0.4430   -2.6970 hc        1 0MC      0.112000
     70 H24        -0.4480   -2.1740   -1.6650 h1        1 0MC      0.153000
     71 H25         0.6030    0.7500   -0.0430 h1        1 0MC      0.115000
     72 H26         3.0610   -0.0560    0.5770 hc        1 0MC      0.106500
     73 H27         2.4070   -1.3840   -0.0350 hc        1 0MC      0.106500
     74 H28         2.1600    1.0260   -1.4800 hc        1 0MC      0.091500
     75 H29         2.1400   -0.4410   -2.0670 hc        1 0MC      0.091500
     76 H30         4.1280    2.3210   -1.7580 ha        1 0MC      0.147000
     77 H31         4.4010   -1.7800   -1.7880 ha        1 0MC      0.140000
     78 H32         6.6620   -1.6110   -2.5050 ha        1 0MC      0.139000
     79 H33         9.1970   -0.7590   -2.2950 h1        1 0MC      0.082667
     80 H34         9.8920    0.6540   -2.6230 h1        1 0MC      0.082667
     81 H35         8.8620    0.5290   -1.4030 h1        1 0MC      0.082667
     82 H36         8.0900    2.9900   -1.5110 h1        1 0MC      0.080333
     83 H37         6.7220    3.4760   -0.8340 h1        1 0MC      0.080333
     84 H38         7.4570    4.4180   -1.9010 h1        1 0MC      0.080333
     85 H39         2.1390   -1.0570    2.6940 ha        1 0MC      0.151000
     86 H40         0.0540    2.3180    1.6540 ha        1 0MC      0.116000
     87 H41         0.4360    3.2350    3.8220 ha        1 0MC      0.131000
     88 H42         1.7200    2.0150    5.4150 ha        1 0MC      0.131000
     89 H43         1.7440   -0.1690    6.7020 h1        1 0MC      0.061500
     90 H44         1.4580   -1.4710    5.8050 h1        1 0MC      0.061500
@<TRIPOS>BOND
     1    1    2 1   
     2    1   47 1   
     3    1   48 1   
     4    1   49 1   
     5    2    3 1   
     6    2   50 1   
     7    2   51 1   
     8    3    4 1   
     9    3    8 1   
    10    3   52 1   
    11    4    5 1   
    12    4   53 1   
    13    4   54 1   
    14    5    6 1   
    15    5   55 1   
    16    5   56 1   
    17    6    7 1   
    18    6   57 1   
    19    6   58 1   
    20    7    8 1   
    21    7   59 1   
    22    7   60 1   
    23    8    9 1   
    24    8   10 1   
    25    9   61 1   
    26   10   11 1   
    27   10   12 1   
    28   12   13 1   
    29   12   14 1   
    30   14   15 1   
    31   14   19 1   
    32   15   16 1   
    33   15   62 1   
    34   15   63 1   
    35   16   17 1   
    36   16   64 1   
    37   16   65 1   
    38   17   18 1   
    39   17   66 1   
    40   17   67 1   
    41   18   19 1   
    42   18   68 1   
    43   18   69 1   
    44   19   20 1   
    45   19   70 1   
    46   20   21 1   
    47   22   23 1   
    48   23   24 1   
    49   23   36 1   
    50   23   71 1   
    51   24   25 1   
    52   24   72 1   
    53   24   73 1   
    54   25   26 1   
    55   25   74 1   
    56   25   75 1   
    57   26   27 1   
    58   26   28 1   
    59   27   33 1   
    60   27   76 1   
    61   28   77 1   
    62   29   30 1   
    63   29   78 1   
    64   30   31 1   
    65   31   32 1   
    66   32   79 1   
    67   32   80 1   
    68   32   81 1   
    69   33   34 1   
    70   34   35 1   
    71   35   82 1   
    72   35   83 1   
    73   35   84 1   
    74   36   38 1   
    75   37   41 1   
    76   37   85 1   
    77   38   86 1   
    78   39   40 1   
    79   39   87 1   
    80   40   88 1   
    81   42   43 1   
    82   43   44 1   
    83   43   89 1   
    84   43   90 1   
    85   44   45 1   
@<TRIPOS>SUBSTRUCTURE
     1 0MC         1 TEMP              0 ****  ****    0 ROOT
