@<TRIPOS>MOLECULE
0MC
   90    93     1     0     0
SMALL
bcc


@<TRIPOS>ATOM
      1 CAA         0.3820    0.1610   -0.4280 c3        1 0MC     -0.086100
      2 CAQ         1.8340    0.1320   -0.0290 c3        1 0MC     -0.076400
      3 CBQ         2.0290   -0.0910    1.4650 c3        1 0MC     -0.072700
      4 CAX         1.5810    1.1340    2.2470 c3        1 0MC     -0.096400
      5 CAS         1.8450    0.9870    3.7290 c3        1 0MC     -0.065400
      6 CAU         3.3240    0.7690    3.9680 c3        1 0MC     -0.092400
      7 CBB         3.7970   -0.4810    3.2630 c3        1 0MC     -0.100400
      8 CBT         3.5040   -0.4440    1.7540 c3        1 0MC      0.100800
      9 OAI         4.3960    0.4140    1.0670 oh        1 0MC     -0.630800
     10 CBJ         3.8120   -1.8510    1.2300 c         1 0MC      0.532100
     11 OAG         2.9660   -2.7270    1.0580 o         1 0MC     -0.518100
     12 CBI         5.2870   -2.1880    1.0240 c         1 0MC      0.602100
     13 OAF         5.9720   -2.5990    1.9800 o         1 0MC     -0.594100
     14 N           5.7980   -2.0910   -0.2610 n         1 0MC     -0.450800
     15 CBA         4.9840   -1.5400   -1.3250 c3        1 0MC      0.085000
     16 CAT         5.6070   -1.6970   -2.7100 c3        1 0MC     -0.097400
     17 CAR         6.2490   -3.0580   -2.8610 c3        1 0MC     -0.072400
     18 CB          7.3390   -3.2820   -1.8310 c3        1 0MC     -0.078400
     19 CA          7.1630   -2.4590   -0.5380 c3        1 0MC      0.074700
     20 C           8.0950   -1.2420   -0.6310 c         1 0MC      0.621100
     21 O           8.0740   -0.3090   -1.4350 o         1 0MC     -0.544000
     22 OBF         9.0920   -1.3070    0.2960 os        1 0MC     -0.432900
     23 CBP         9.9960   -0.1810    0.4200 c3        1 0MC      0.193400
     24 CAZ        11.3770   -0.7820    0.6580 c3        1 0MC     -0.078400
     25 CAV        11.9040   -1.4550   -0.5960 c3        1 0MC     -0.038100
     26 CBK        13.1900   -2.1620   -0.3480 ca        1 0MC     -0.066300
     27 CAO        13.2010   -3.3210    0.4440 ca        1 0MC     -0.176000
     28 CAM        14.3810   -1.6950   -0.9020 ca        1 0MC     -0.130000
     29 CAN        15.5840   -2.3670   -0.6790 ca        1 0MC     -0.178000
     30 CBN        15.6040   -3.5180    0.1080 ca        1 0MC      0.091100
     31 OBC        16.7330   -4.2660    0.3900 os        1 0MC     -0.307900
     32 CAB        17.9550   -3.7570   -0.1270 c3        1 0MC      0.112700
     33 CBO        14.3950   -4.0000    0.6770 ca        1 0MC      0.103100
     34 OBD        14.5130   -5.1500    1.4330 os        1 0MC     -0.310900
     35 CAC        13.3230   -5.5910    2.0780 c3        1 0MC      0.110700
     36 CBM         9.5100    0.7020    1.5320 ca        1 0MC     -0.082300
     37 CAP         8.3480    1.4390    1.3080 ca        1 0MC     -0.152000
     38 CAL        10.1710    0.8020    2.7630 ca        1 0MC     -0.172000
     39 CAJ         9.6730    1.6460    3.7520 ca        1 0MC     -0.104000
     40 CAK         8.5090    2.3850    3.5480 ca        1 0MC     -0.210000
     41 CBL         7.8350    2.2720    2.3230 ca        1 0MC      0.151100
     42 OBE         6.6740    2.9230    1.9980 os        1 0MC     -0.289900
     43 CAW         6.0460    3.6640    3.0490 c3        1 0MC     -0.009600
     44 CBG         4.6500    4.0950    2.5370 c         1 0MC      0.930600
     45 OAH         4.2940    5.2710    2.8060 o         1 0MC     -0.829300
     46 OAD         3.9370    3.2410    1.9370 o         1 0MC     -0.829300
     47 H1          0.2910    0.2290   -1.5400 hc        1 0MC      0.026367
     48 H2         -0.1360    1.0430    0.0190 hc        1 0MC      0.026367
     49 H3         -0.1420   -0.7650   -0.0880 hc        1 0MC      0.026367
     50 H4          2.3360    1.0930   -0.3200 hc        1 0MC      0.047700
     51 H5          2.3540   -0.6950   -0.5850 hc        1 0MC      0.047700
     52 H6          1.4110   -0.9750    1.7890 hc        1 0MC      0.050700
     53 H7          0.4850    1.2910    2.0760 hc        1 0MC      0.072700
     54 H8          2.1260    2.0460    1.8670 hc        1 0MC      0.072700
     55 H9          1.2570    0.1280    4.1460 hc        1 0MC      0.028700
     56 H10         1.5130    1.9180    4.2580 hc        1 0MC      0.028700
     57 H11         3.5280    0.6740    5.0650 hc        1 0MC      0.064200
     58 H12         3.8910    1.6650    3.5820 hc        1 0MC      0.064200
     59 H13         4.9040   -0.6050    3.4010 hc        1 0MC      0.053200
     60 H14         3.2870   -1.3780    3.7020 hc        1 0MC      0.053200
     61 H15         4.2920    1.3180    1.4310 ho        1 0MC      0.490000
     62 H16         3.9890   -2.0760   -1.3090 h1        1 0MC      0.065700
     63 H17         4.7950   -0.4450   -1.1130 h1        1 0MC      0.065700
     64 H18         4.8010   -1.5600   -3.4750 hc        1 0MC      0.064700
     65 H19         6.3760   -0.8940   -2.8680 hc        1 0MC      0.064700
     66 H20         6.6820   -3.1590   -3.8900 hc        1 0MC      0.039200
     67 H21         5.4620   -3.8500   -2.7510 hc        1 0MC      0.039200
     68 H22         8.3380   -3.0290   -2.2750 hc        1 0MC      0.047700
     69 H23         7.3630   -4.3670   -1.5510 hc        1 0MC      0.047700
     70 H24         7.5360   -3.0810    0.3370 h1        1 0MC      0.111700
     71 H25         9.9960    0.4060   -0.5440 h1        1 0MC      0.079700
     72 H26        11.3220   -1.5290    1.4920 hc        1 0MC      0.059700
     73 H27        12.0720    0.0410    0.9680 hc        1 0MC      0.059700
     74 H28        12.0360   -0.6870   -1.4050 hc        1 0MC      0.053200
     75 H29        11.1390   -2.1940   -0.9600 hc        1 0MC      0.053200
     76 H30        12.2550   -3.6790    0.8770 ha        1 0MC      0.148000
     77 H31        14.3790   -0.7870   -1.5230 ha        1 0MC      0.134000
     78 H32        16.5100   -1.9790   -1.1270 ha        1 0MC      0.134000
     79 H33        17.9360   -3.7400   -1.2440 h1        1 0MC      0.039700
     80 H34        18.1630   -2.7350    0.2740 h1        1 0MC      0.039700
     81 H35        18.7180   -4.4880    0.2430 h1        1 0MC      0.039700
     82 H36        13.6610   -6.4880    2.6570 h1        1 0MC      0.044367
     83 H37        12.9270   -4.8040    2.7650 h1        1 0MC      0.044367
     84 H38        12.5500   -5.8780    1.3250 h1        1 0MC      0.044367
     85 H39         7.8080    1.3670    0.3500 ha        1 0MC      0.166000
     86 H40        11.0760    0.2130    2.9620 ha        1 0MC      0.119000
     87 H41        10.2000    1.7260    4.7140 ha        1 0MC      0.116000
     88 H42         8.1260    3.0420    4.3400 ha        1 0MC      0.140000
     89 H43         6.6730    4.5560    3.2980 h1        1 0MC      0.027200
     90 H44         5.9190    3.0160    3.9540 h1        1 0MC      0.027200
@<TRIPOS>BOND
     1    1    2 1   
     2    1   47 1   
     3    1   48 1   
     4    1   49 1   
     5    2    3 1   
     6    2   50 1   
     7    2   51 1   
     8    3    4 1   
     9    3    8 1   
    10    3   52 1   
    11    4    5 1   
    12    4   53 1   
    13    4   54 1   
    14    5    6 1   
    15    5   55 1   
    16    5   56 1   
    17    6    7 1   
    18    6   57 1   
    19    6   58 1   
    20    7    8 1   
    21    7   59 1   
    22    7   60 1   
    23    8    9 1   
    24    8   10 1   
    25    9   61 1   
    26   10   11 2   
    27   10   12 1   
    28   12   13 2   
    29   12   14 1   
    30   14   15 1   
    31   14   19 1   
    32   15   16 1   
    33   15   62 1   
    34   15   63 1   
    35   16   17 1   
    36   16   64 1   
    37   16   65 1   
    38   17   18 1   
    39   17   66 1   
    40   17   67 1   
    41   18   19 1   
    42   18   68 1   
    43   18   69 1   
    44   19   20 1   
    45   19   70 1   
    46   20   21 2   
    47   20   22 1   
    48   22   23 1   
    49   23   24 1   
    50   23   36 1   
    51   23   71 1   
    52   24   25 1   
    53   24   72 1   
    54   24   73 1   
    55   25   26 1   
    56   25   74 1   
    57   25   75 1   
    58   26   27 ar  
    59   26   28 ar  
    60   27   33 ar  
    61   27   76 1   
    62   28   29 ar  
    63   28   77 1   
    64   29   30 ar  
    65   29   78 1   
    66   30   31 1   
    67   30   33 ar  
    68   31   32 1   
    69   32   79 1   
    70   32   80 1   
    71   32   81 1   
    72   33   34 1   
    73   34   35 1   
    74   35   82 1   
    75   35   83 1   
    76   35   84 1   
    77   36   37 ar  
    78   36   38 ar  
    79   37   41 ar  
    80   37   85 1   
    81   38   39 ar  
    82   38   86 1   
    83   39   40 ar  
    84   39   87 1   
    85   40   41 ar  
    86   40   88 1   
    87   41   42 1   
    88   42   43 1   
    89   43   44 1   
    90   43   89 1   
    91   43   90 1   
    92   44   45 1   
    93   44   46 1   
@<TRIPOS>SUBSTRUCTURE
     1 0MC         1 TEMP              0 ****  ****    0 ROOT
