@<TRIPOS>MOLECULE
0MC
   90    93     1     0     0
SMALL
bcc


@<TRIPOS>ATOM
      1 CAA         0.3780    0.1870   -0.3710 c3        1 0MC     -0.086100
      2 CAQ         1.8320    0.1530    0.0170 c3        1 0MC     -0.076400
      3 CBQ         2.0370   -0.0790    1.5080 c3        1 0MC     -0.072700
      4 CAX         1.5990    1.1420    2.3010 c3        1 0MC     -0.096400
      5 CAS         1.8730    0.9850    3.7810 c3        1 0MC     -0.065400
      6 CAU         3.3530    0.7620    4.0070 c3        1 0MC     -0.092400
      7 CBB         3.8180   -0.4850    3.2920 c3        1 0MC     -0.100400
      8 CBT         3.5140   -0.4380    1.7850 c3        1 0MC      0.100800
      9 OAI         4.4030    0.4230    1.0970 oh        1 0MC     -0.630800
     10 CBJ         3.8150   -1.8420    1.2500 c         1 0MC      0.532100
     11 OAG         2.9650   -2.7150    1.0780 o         1 0MC     -0.518100
     12 CBI         5.2880   -2.1820    1.0310 c         1 0MC      0.602100
     13 OAF         5.9780   -2.6000    1.9800 o         1 0MC     -0.594100
     14 N           5.7900   -2.0780   -0.2570 n         1 0MC     -0.450800
     15 CBA         4.9690   -1.5170   -1.3120 c3        1 0MC      0.085000
     16 CAT         5.5830   -1.6660   -2.7010 c3        1 0MC     -0.097400
     17 CAR         6.2200   -3.0280   -2.8660 c3        1 0MC     -0.072400
     18 CB          7.3170   -3.2620   -1.8460 c3        1 0MC     -0.078400
     19 CA          7.1520   -2.4470   -0.5460 c3        1 0MC      0.074700
     20 C           8.0860   -1.2320   -0.6380 c         1 0MC      0.620100
     21 O           8.0630   -0.2940   -1.4360 o         1 0MC     -0.544000
     22 OBF         9.0890   -1.3050    0.2830 os        1 0MC     -0.432900
     23 CBP         9.9970   -0.1820    0.4090 c3        1 0MC      0.193400
     24 CAZ        11.3780   -0.7890    0.6340 c3        1 0MC     -0.078400
     25 CAV        11.8940   -1.4560   -0.6270 c3        1 0MC     -0.038100
     26 CBK        13.1790   -2.1690   -0.3910 ca        1 0MC     -0.066300
     27 CAO        13.1910   -3.3320    0.3940 ca        1 0MC     -0.176000
     28 CAM        14.3680   -1.7030   -0.9510 ca        1 0MC     -0.130000
     29 CAN        15.5710   -2.3810   -0.7400 ca        1 0MC     -0.178000
     30 CBN        15.5920   -3.5360    0.0410 ca        1 0MC      0.090100
     31 OBC        16.7190   -4.2890    0.3110 os        1 0MC     -0.307900
     32 CAB        17.9400   -3.7810   -0.2110 c3        1 0MC      0.112700
     33 CBO        14.3850   -4.0160    0.6150 ca        1 0MC      0.103100
     34 OBD        14.5040   -5.1710    1.3650 os        1 0MC     -0.310900
     35 CAC        13.3160   -5.6120    2.0150 c3        1 0MC      0.110700
     36 CBM         9.5200    0.6960    1.5290 ca        1 0MC     -0.082300
     37 CAP         8.3580    1.4360    1.3170 ca        1 0MC     -0.152000
     38 CAL        10.1900    0.7870    2.7560 ca        1 0MC     -0.172000
     39 CAJ         9.7010    1.6260    3.7530 ca        1 0MC     -0.104000
     40 CAK         8.5380    2.3690    3.5610 ca        1 0MC     -0.210000
     41 CBL         7.8540    2.2650    2.3410 ca        1 0MC      0.151100
     42 OBE         6.6920    2.9200    2.0270 os        1 0MC     -0.289900
     43 CAW         6.0740    3.6570    3.0870 c3        1 0MC     -0.009600
     44 CBG         4.6760    4.0940    2.5860 c         1 0MC      0.930600
     45 OAH         4.3240    5.2680    2.8650 o         1 0MC     -0.829300
     46 OAD         3.9570    3.2450    1.9860 o         1 0MC     -0.829300
     47 H1         -0.1350    1.0680    0.0850 hc        1 0MC      0.026367
     48 H2         -0.1460   -0.7390   -0.0330 hc        1 0MC      0.026367
     49 H3          0.2790    0.2630   -1.4820 hc        1 0MC      0.026367
     50 H4          2.3470   -0.6710   -0.5470 hc        1 0MC      0.047700
     51 H5          2.3350    1.1150   -0.2710 hc        1 0MC      0.047700
     52 H6          1.4200   -0.9640    1.8310 hc        1 0MC      0.050700
     53 H7          2.1420    2.0550    1.9230 hc        1 0MC      0.072700
     54 H8          0.5010    1.3020    2.1390 hc        1 0MC      0.072700
     55 H9          1.5470    1.9130    4.3180 hc        1 0MC      0.028700
     56 H10         1.2850    0.1240    4.1960 hc        1 0MC      0.028700
     57 H11         3.5650    0.6600    5.1020 hc        1 0MC      0.064200
     58 H12         3.9200    1.6590    3.6230 hc        1 0MC      0.064200
     59 H13         4.9250   -0.6130    3.4210 hc        1 0MC      0.053200
     60 H14         3.3090   -1.3830    3.7280 hc        1 0MC      0.053200
     61 H15         4.3040    1.3240    1.4670 ho        1 0MC      0.490000
     62 H16         4.7850   -0.4230   -1.0910 h1        1 0MC      0.065700
     63 H17         3.9740   -2.0510   -1.2920 h1        1 0MC      0.065700
     64 H18         6.3530   -0.8640   -2.8600 hc        1 0MC      0.064700
     65 H19         4.7720   -1.5220   -3.4600 hc        1 0MC      0.064700
     66 H20         6.6460   -3.1230   -3.8990 hc        1 0MC      0.039200
     67 H21         5.4320   -3.8190   -2.7560 hc        1 0MC      0.039200
     68 H22         7.3400   -4.3490   -1.5730 hc        1 0MC      0.047700
     69 H23         8.3130   -3.0080   -2.2950 hc        1 0MC      0.047700
     70 H24         7.5290   -3.0760    0.3230 h1        1 0MC      0.111700
     71 H25         9.9920    0.4100   -0.5520 h1        1 0MC      0.079700
     72 H26        11.3250   -1.5400    1.4640 hc        1 0MC      0.059700
     73 H27        12.0780    0.0300    0.9440 hc        1 0MC      0.059700
     74 H28        11.1240   -2.1910   -0.9910 hc        1 0MC      0.053200
     75 H29        12.0230   -0.6840   -1.4330 hc        1 0MC      0.053200
     76 H30        12.2470   -3.6900    0.8320 ha        1 0MC      0.148000
     77 H31        14.3660   -0.7920   -1.5670 ha        1 0MC      0.134000
     78 H32        16.4940   -1.9940   -1.1920 ha        1 0MC      0.134000
     79 H33        18.7030   -4.5170    0.1500 h1        1 0MC      0.039700
     80 H34        18.1540   -2.7630    0.1950 h1        1 0MC      0.039700
     81 H35        17.9140   -3.7580   -1.3270 h1        1 0MC      0.039700
     82 H36        13.6540   -6.5130    2.5870 h1        1 0MC      0.044367
     83 H37        12.5370   -5.8920    1.2650 h1        1 0MC      0.044367
     84 H38        12.9270   -4.8270    2.7090 h1        1 0MC      0.044367
     85 H39         7.8120    1.3700    0.3620 ha        1 0MC      0.166000
     86 H40        11.0950    0.1950    2.9450 ha        1 0MC      0.119000
     87 H41        10.2350    1.7000    4.7110 ha        1 0MC      0.116000
     88 H42         8.1610    3.0230    4.3590 ha        1 0MC      0.140000
     89 H43         6.7050    4.5460    3.3360 h1        1 0MC      0.027200
     90 H44         5.9520    3.0050    3.9890 h1        1 0MC      0.027200
@<TRIPOS>BOND
     1    1    2 1   
     2    1   47 1   
     3    1   48 1   
     4    1   49 1   
     5    2    3 1   
     6    2   50 1   
     7    2   51 1   
     8    3    4 1   
     9    3    8 1   
    10    3   52 1   
    11    4    5 1   
    12    4   53 1   
    13    4   54 1   
    14    5    6 1   
    15    5   55 1   
    16    5   56 1   
    17    6    7 1   
    18    6   57 1   
    19    6   58 1   
    20    7    8 1   
    21    7   59 1   
    22    7   60 1   
    23    8    9 1   
    24    8   10 1   
    25    9   61 1   
    26   10   11 2   
    27   10   12 1   
    28   12   13 2   
    29   12   14 1   
    30   14   15 1   
    31   14   19 1   
    32   15   16 1   
    33   15   62 1   
    34   15   63 1   
    35   16   17 1   
    36   16   64 1   
    37   16   65 1   
    38   17   18 1   
    39   17   66 1   
    40   17   67 1   
    41   18   19 1   
    42   18   68 1   
    43   18   69 1   
    44   19   20 1   
    45   19   70 1   
    46   20   21 2   
    47   20   22 1   
    48   22   23 1   
    49   23   24 1   
    50   23   36 1   
    51   23   71 1   
    52   24   25 1   
    53   24   72 1   
    54   24   73 1   
    55   25   26 1   
    56   25   74 1   
    57   25   75 1   
    58   26   27 ar  
    59   26   28 ar  
    60   27   33 ar  
    61   27   76 1   
    62   28   29 ar  
    63   28   77 1   
    64   29   30 ar  
    65   29   78 1   
    66   30   31 1   
    67   30   33 ar  
    68   31   32 1   
    69   32   79 1   
    70   32   80 1   
    71   32   81 1   
    72   33   34 1   
    73   34   35 1   
    74   35   82 1   
    75   35   83 1   
    76   35   84 1   
    77   36   37 ar  
    78   36   38 ar  
    79   37   41 ar  
    80   37   85 1   
    81   38   39 ar  
    82   38   86 1   
    83   39   40 ar  
    84   39   87 1   
    85   40   41 ar  
    86   40   88 1   
    87   41   42 1   
    88   42   43 1   
    89   43   44 1   
    90   43   89 1   
    91   43   90 1   
    92   44   45 1   
    93   44   46 1   
@<TRIPOS>SUBSTRUCTURE
     1 0MC         1 TEMP              0 ****  ****    0 ROOT
