@<TRIPOS>MOLECULE
0MD
   90    86     1     0     0
SMALL
bcc


@<TRIPOS>ATOM
      1 CAA        -6.9950   -1.2210    3.7580 c3        1 0MD     -0.209000
      2 CAQ        -5.8940   -1.7780    2.9020 c3        1 0MD     -0.155000
      3 CBQ        -4.5850   -1.7130    3.6570 c3        1 0MD     -0.088000
      4 CAX        -4.5860   -2.7940    4.7330 c3        1 0MD     -0.151000
      5 CAS        -3.2750   -2.9190    5.4340 c3        1 0MD     -0.158000
      6 CAU        -2.1190   -3.0730    4.5000 c3        1 0MD     -0.152000
      7 CBB        -2.0800   -1.9940    3.4200 c3        1 0MD     -0.191000
      8 CBT        -3.4120   -1.8680    2.6380 c3        1 0MD      0.070000
      9 OAI        -3.6140   -2.9900    1.8130 oh        1 0MD     -0.304000
     10 CBJ        -3.3780   -0.7260    1.5840 c1        1 0MD      0.204000
     11 OAG        -3.2770   -0.9980    0.3840 o         1 0MD     -0.254000
     12 CBI        -3.4810    0.7410    2.0350 c1        1 0MD      0.267000
     13 OAF        -4.3210    1.0670    2.8570 o         1 0MD     -0.347000
     14 N          -2.6270    1.7740    1.4030 n2        1 0MD     -0.306000
     15 CBA        -2.7450    3.1990    1.7220 c3        1 0MD     -0.039000
     16 CAT        -1.4520    3.8110    2.1060 c3        1 0MD     -0.179000
     17 CAR        -0.3910    3.5500    1.1470 c3        1 0MD     -0.154000
     18 CB         -0.2510    2.1030    0.8310 c3        1 0MD     -0.169000
     19 CA         -1.5880    1.4520    0.3950 c3        1 0MD      0.028000
     20 C          -1.4540   -0.0560    0.1470 c2        1 0MD      0.287000
     21 O          -1.7030   -0.8220    1.0170 o         1 0MD     -0.347000
     22 OBF        -0.8800   -0.5380   -1.1020 os        1 0MD     -0.277000
     23 CBP         0.5520   -0.4250   -1.1670 c3        1 0MD      0.078000
     24 CAZ         0.9550    0.1350   -2.4950 c3        1 0MD     -0.167000
     25 CAV         0.8980    1.6570   -2.4500 c3        1 0MD     -0.112000
     26 CBK         1.8830    2.2520   -3.5260 c2        1 0MD     -0.065000
     27 CAO         3.0250    2.9060   -3.1150 c2        1 0MD     -0.174000
     28 CAM         1.4690    2.3480   -4.8540 c1        1 0MD     -0.157000
     29 CAN         2.2060    3.1030   -5.7630 c1        1 0MD     -0.130000
     30 CBN         3.3500    3.7580   -5.3510 c1        1 0MD      0.028000
     31 OBC         4.0790    4.5730   -6.2750 o         1 0MD     -0.226000
     32 CAB         4.9150    3.8330   -7.1630 c3        1 0MD     -0.066000
     33 CBO         3.7670    3.6670   -4.0330 c2        1 0MD      0.061000
     34 OBD         4.8310    4.5460   -3.5510 os        1 0MD     -0.234000
     35 CAC         6.1150    3.8880   -3.3910 c3        1 0MD     -0.074000
     36 CBM         1.1730   -1.7920   -0.9950 c1        1 0MD     -0.061000
     37 CAP         2.4670   -1.9150   -0.4550 c1        1 0MD     -0.170000
     38 CAL         0.4400   -2.9190   -1.2850 c1        1 0MD     -0.189000
     39 CAJ         0.9790   -4.1840   -1.0440 c1        1 0MD     -0.154500
     40 CAK         2.2550   -4.3070   -0.5110 c1        1 0MD     -0.154500
     41 CBL         2.9990   -3.1700   -0.2170 c1        1 0MD      0.112000
     42 OBE         4.3190   -3.2980    0.3700 os        1 0MD     -0.178000
     43 CAW         5.2850   -3.9180   -0.4950 c3        1 0MD     -0.116000
     44 CBG         6.6920   -3.6180    0.0140 c2        1 0MD      0.349000
     45 OAH         7.3880   -2.7350   -0.5430 o         1 0MD     -0.556500
     46 OAD         7.1670   -4.2800    0.9810 o         1 0MD     -0.556500
     47 H1         -6.6500   -0.4750    4.2940 hc        1 0MD      0.070000
     48 H2         -7.7150   -0.9070    3.1920 hc        1 0MD      0.070000
     49 H3         -7.3240   -1.9080    4.3420 hc        1 0MD      0.070000
     50 H4         -5.8230   -1.2590    2.0880 hc        1 0MD      0.090000
     51 H5         -6.1030   -2.7390    2.6720 hc        1 0MD      0.090000
     52 H6         -4.5140   -0.8180    4.0990 hc        1 0MD      0.116000
     53 H7         -5.2700   -2.5820    5.3880 hc        1 0MD      0.088500
     54 H8         -4.8110   -3.6850    4.3000 hc        1 0MD      0.088500
     55 H9         -3.1310   -2.1100    5.9840 hc        1 0MD      0.080000
     56 H10        -3.3090   -3.7090    6.0310 hc        1 0MD      0.080000
     57 H11        -2.1800   -3.9500    4.0670 hc        1 0MD      0.097500
     58 H12        -1.2910   -3.0330    5.0150 hc        1 0MD      0.097500
     59 H13        -1.8810   -1.1290    3.8460 hc        1 0MD      0.099500
     60 H14        -1.3420   -2.2130    2.7700 hc        1 0MD      0.099500
     61 H15        -3.6240   -3.7240    2.3110 ho        1 0MD      0.220000
     62 H16        -3.3780    3.3040    2.4670 h1        1 0MD      0.113500
     63 H17        -3.0970    3.6720    0.9380 h1        1 0MD      0.113500
     64 H18        -1.5730    4.7630    2.1810 hc        1 0MD      0.088000
     65 H19        -1.1790    3.4530    2.9910 hc        1 0MD      0.088000
     66 H20        -0.5900    4.0450    0.3040 hc        1 0MD      0.086500
     67 H21         0.4790    3.8860    1.5250 hc        1 0MD      0.086500
     68 H22         0.0790    1.6460    1.6070 hc        1 0MD      0.103500
     69 H23         0.4030    2.0010    0.1020 hc        1 0MD      0.103500
     70 H24        -1.8510    1.7610   -0.4740 h1        1 0MD      0.145000
     71 H25         0.8680    0.1760   -0.4440 h1        1 0MD      0.118000
     72 H26         0.3590   -0.1860   -3.1700 hc        1 0MD      0.094000
     73 H27         1.8670   -0.1500   -2.7030 hc        1 0MD      0.094000
     74 H28         1.1590    1.9650   -1.5650 hc        1 0MD      0.088500
     75 H29         0.0160    1.9450   -2.6370 hc        1 0MD      0.088500
     76 H30         3.2510    2.9300   -2.1890 ha        1 0MD      0.158000
     77 H31         0.6710    1.8900   -5.1440 ha        1 0MD      0.122000
     78 H32         1.9210    3.1670   -6.6690 ha        1 0MD      0.135000
     79 H33         5.4440    3.1910   -6.6520 h1        1 0MD      0.083000
     80 H34         5.5240    4.4560   -7.6430 h1        1 0MD      0.083000
     81 H35         4.3570    3.3550   -7.8130 h1        1 0MD      0.083000
     82 H36         6.7610    4.5170   -2.9510 h1        1 0MD      0.106667
     83 H37         6.4630    3.6270   -4.2760 h1        1 0MD      0.106667
     84 H38         6.0060    3.0890   -2.8330 h1        1 0MD      0.106667
     85 H39         2.9800   -1.1300   -0.2530 ha        1 0MD      0.147000
     86 H40        -0.4810   -2.8320   -1.6690 ha        1 0MD      0.133000
     87 H41         0.4600   -4.9790   -1.2490 ha        1 0MD      0.136500
     88 H42         2.6260   -5.1810   -0.3450 ha        1 0MD      0.136500
     89 H43         5.1420   -4.8860   -0.5010 h1        1 0MD      0.065500
     90 H44         5.1820   -3.5670   -1.4050 h1        1 0MD      0.065500
@<TRIPOS>BOND
     1    1    2 1   
     2    1   47 1   
     3    1   48 1   
     4    1   49 1   
     5    2    3 1   
     6    2   50 1   
     7    2   51 1   
     8    3    4 1   
     9    3    8 1   
    10    3   52 1   
    11    4    5 1   
    12    4   53 1   
    13    4   54 1   
    14    5    6 1   
    15    5   55 1   
    16    5   56 1   
    17    6    7 1   
    18    6   57 1   
    19    6   58 1   
    20    7    8 1   
    21    7   59 1   
    22    7   60 1   
    23    8    9 1   
    24    8   10 1   
    25    9   61 1   
    26   10   11 1   
    27   12   13 1   
    28   14   15 1   
    29   14   19 1   
    30   15   16 1   
    31   15   62 1   
    32   15   63 1   
    33   16   17 1   
    34   16   64 1   
    35   16   65 1   
    36   17   18 1   
    37   17   66 1   
    38   17   67 1   
    39   18   19 1   
    40   18   68 1   
    41   18   69 1   
    42   19   20 1   
    43   19   70 1   
    44   20   21 1   
    45   20   22 1   
    46   22   23 1   
    47   23   24 1   
    48   23   36 1   
    49   23   71 1   
    50   24   25 1   
    51   24   72 1   
    52   24   73 1   
    53   25   26 1   
    54   25   74 1   
    55   25   75 1   
    56   26   27 1   
    57   26   28 1   
    58   27   33 1   
    59   27   76 1   
    60   28   77 1   
    61   29   30 1   
    62   29   78 1   
    63   30   33 1   
    64   31   32 1   
    65   32   79 1   
    66   32   80 1   
    67   32   81 1   
    68   33   34 1   
    69   34   35 1   
    70   35   82 1   
    71   35   83 1   
    72   35   84 1   
    73   36   38 1   
    74   37   41 1   
    75   37   85 1   
    76   38   86 1   
    77   39   40 1   
    78   39   87 1   
    79   40   88 1   
    80   41   42 1   
    81   42   43 1   
    82   43   44 1   
    83   43   89 1   
    84   43   90 1   
    85   44   45 1   
    86   44   46 1   
@<TRIPOS>SUBSTRUCTURE
     1 0MD         1 TEMP              0 ****  ****    0 ROOT
