@<TRIPOS>MOLECULE
0MD
   90    93     1     0     0
SMALL
bcc


@<TRIPOS>ATOM
      1 CAA         1.0810    0.0160    3.7260 c3        1 0MD     -0.090100
      2 CAQ         2.1080    0.1400    2.6320 c3        1 0MD     -0.082400
      3 CBQ         3.4760   -0.3720    3.0600 c3        1 0MD     -0.040700
      4 CAX         3.5070   -1.8930    3.0820 c3        1 0MD     -0.075400
      5 CAS         4.8720   -2.4230    3.4680 c3        1 0MD     -0.077400
      6 CAU         5.9340   -1.9110    2.5190 c3        1 0MD     -0.073400
      7 CBB         5.9510   -0.3980    2.4910 c3        1 0MD     -0.105400
      8 CBT         4.5730    0.1670    2.1140 c3        1 0MD      0.082800
      9 OAI         4.1930   -0.1860    0.7970 oh        1 0MD     -0.575800
     10 CBJ         4.6550    1.6890    2.2590 c         1 0MD      0.494100
     11 OAG         4.7920    2.2700    3.3340 o         1 0MD     -0.502100
     12 CBI         4.5490    2.4560    0.9470 c         1 0MD      0.584100
     13 OAF         3.4420    2.7990    0.5030 o         1 0MD     -0.549100
     14 N           5.7360    2.6490    0.2430 n         1 0MD     -0.472800
     15 CBA         7.0050    2.8260    0.9070 c3        1 0MD      0.094000
     16 CAT         7.5440    4.2600    0.8520 c3        1 0MD     -0.102400
     17 CAR         7.1170    4.9900   -0.4070 c3        1 0MD     -0.078400
     18 CB          6.8110    4.0290   -1.5340 c3        1 0MD     -0.081400
     19 CA          5.6900    3.0470   -1.1510 c3        1 0MD      0.056700
     20 C           5.7830    1.8260   -2.0730 c         1 0MD      0.627100
     21 O           5.7770    0.6320   -1.7630 o         1 0MD     -0.556000
     22 OBF         5.8880    2.1990   -3.3750 os        1 0MD     -0.432900
     23 CBP         5.9760    1.1690   -4.3930 c3        1 0MD      0.195400
     24 CAZ         7.4340    1.0920   -4.8480 c3        1 0MD     -0.093400
     25 CAV         8.2740    0.2810   -3.8800 c3        1 0MD     -0.040100
     26 CBK         9.7290    0.4050   -4.1680 ca        1 0MD     -0.068300
     27 CAO        10.3990    1.5980   -3.8590 ca        1 0MD     -0.175000
     28 CAM        10.4360   -0.6560   -4.7340 ca        1 0MD     -0.120000
     29 CAN        11.8030   -0.5440   -4.9940 ca        1 0MD     -0.175000
     30 CBN        12.4760    0.6390   -4.6920 ca        1 0MD      0.094100
     31 OBC        13.8270    0.8540   -4.8920 os        1 0MD     -0.309900
     32 CAB        14.5100   -0.1600   -5.6190 c3        1 0MD      0.111700
     33 CBO        11.7620    1.7240   -4.1170 ca        1 0MD      0.097100
     34 OBD        12.5150    2.8460   -3.8250 os        1 0MD     -0.310900
     35 CAC        11.7730    4.0250   -3.5350 c3        1 0MD      0.112700
     36 CBM         5.0780    1.5570   -5.5310 ca        1 0MD     -0.076300
     37 CAP         4.7830    0.5810   -6.4820 ca        1 0MD     -0.175000
     38 CAL         4.5600    2.8500   -5.6630 ca        1 0MD     -0.174000
     39 CAJ         3.7440    3.1590   -6.7490 ca        1 0MD     -0.099000
     40 CAK         3.4440    2.2030   -7.7150 ca        1 0MD     -0.212000
     41 CBL         3.9680    0.9050   -7.5870 ca        1 0MD      0.164100
     42 OBE         3.7530   -0.1180   -8.4680 os        1 0MD     -0.285900
     43 CAW         2.9890    0.1980   -9.6380 c3        1 0MD     -0.012600
     44 CBG         2.9760   -1.0750  -10.5360 c         1 0MD      0.926600
     45 OAH         4.0250   -1.3480  -11.1740 o         1 0MD     -0.818800
     46 OAD         1.8850   -1.7010  -10.6020 o         1 0MD     -0.818800
     47 H1          0.1050    0.4370    3.3820 hc        1 0MD      0.030700
     48 H2          0.9220   -1.0540    4.0070 hc        1 0MD      0.030700
     49 H3          1.4040    0.5730    4.6390 hc        1 0MD      0.030700
     50 H4          2.2000    1.2180    2.3260 hc        1 0MD      0.060200
     51 H5          1.7750   -0.4240    1.7200 hc        1 0MD      0.060200
     52 H6          3.7170    0.0210    4.0880 hc        1 0MD      0.059700
     53 H7          3.2330   -2.2750    2.0620 hc        1 0MD      0.053700
     54 H8          2.7390   -2.2650    3.8080 hc        1 0MD      0.053700
     55 H9          5.1190   -2.1090    4.5160 hc        1 0MD      0.038200
     56 H10         4.8570   -3.5440    3.4450 hc        1 0MD      0.038200
     57 H11         6.9420   -2.2880    2.8320 hc        1 0MD      0.050200
     58 H12         5.7280   -2.2950    1.4840 hc        1 0MD      0.050200
     59 H13         6.2340    0.0020    3.5000 hc        1 0MD      0.053200
     60 H14         6.7110   -0.0400    1.7480 hc        1 0MD      0.053200
     61 H15         4.9550   -0.0560    0.2100 ho        1 0MD      0.434000
     62 H16         7.7470    2.1390    0.4030 h1        1 0MD      0.056200
     63 H17         6.9180    2.5070    1.9840 h1        1 0MD      0.056200
     64 H18         7.1920    4.8300    1.7500 hc        1 0MD      0.049700
     65 H19         8.6620    4.2050    0.9070 hc        1 0MD      0.049700
     66 H20         7.9260    5.6960   -0.7290 hc        1 0MD      0.049200
     67 H21         6.2040    5.6070   -0.1920 hc        1 0MD      0.049200
     68 H22         7.7370    3.4540   -1.8030 hc        1 0MD      0.063700
     69 H23         6.4820    4.5820   -2.4520 hc        1 0MD      0.063700
     70 H24         4.6830    3.5260   -1.3640 h1        1 0MD      0.115700
     71 H25         5.6440    0.1830   -3.9620 h1        1 0MD      0.089700
     72 H26         7.4610    0.6210   -5.8660 hc        1 0MD      0.067700
     73 H27         7.8470    2.1300   -4.9400 hc        1 0MD      0.067700
     74 H28         7.9600   -0.7960   -3.9290 hc        1 0MD      0.052700
     75 H29         8.0680    0.6340   -2.8320 hc        1 0MD      0.052700
     76 H30         9.8330    2.4310   -3.4180 ha        1 0MD      0.137000
     77 H31         9.9140   -1.5920   -4.9860 ha        1 0MD      0.141000
     78 H32        12.3380   -1.3930   -5.4440 ha        1 0MD      0.138000
     79 H33        15.5430    0.2560   -5.7360 h1        1 0MD      0.041367
     80 H34        14.0360   -0.3250   -6.6170 h1        1 0MD      0.041367
     81 H35        14.5350   -1.1130   -5.0360 h1        1 0MD      0.041367
     82 H36        12.5580    4.8210   -3.4850 h1        1 0MD      0.040367
     83 H37        11.2520    3.9250   -2.5510 h1        1 0MD      0.040367
     84 H38        11.0360    4.2470   -4.3450 h1        1 0MD      0.040367
     85 H39         5.1760   -0.4410   -6.3950 ha        1 0MD      0.147000
     86 H40         4.7940    3.6140   -4.9090 ha        1 0MD      0.125000
     87 H41         3.3330    4.1740   -6.8470 ha        1 0MD      0.117000
     88 H42         2.8010    2.4610   -8.5680 ha        1 0MD      0.144000
     89 H43         3.4740    1.0430  -10.1870 h1        1 0MD      0.022200
     90 H44         1.9480    0.4740   -9.3320 h1        1 0MD      0.022200
@<TRIPOS>BOND
     1    1    2 1   
     2    1   47 1   
     3    1   48 1   
     4    1   49 1   
     5    2    3 1   
     6    2   50 1   
     7    2   51 1   
     8    3    4 1   
     9    3    8 1   
    10    3   52 1   
    11    4    5 1   
    12    4   53 1   
    13    4   54 1   
    14    5    6 1   
    15    5   55 1   
    16    5   56 1   
    17    6    7 1   
    18    6   57 1   
    19    6   58 1   
    20    7    8 1   
    21    7   59 1   
    22    7   60 1   
    23    8    9 1   
    24    8   10 1   
    25    9   61 1   
    26   10   11 2   
    27   10   12 1   
    28   12   13 2   
    29   12   14 1   
    30   14   15 1   
    31   14   19 1   
    32   15   16 1   
    33   15   62 1   
    34   15   63 1   
    35   16   17 1   
    36   16   64 1   
    37   16   65 1   
    38   17   18 1   
    39   17   66 1   
    40   17   67 1   
    41   18   19 1   
    42   18   68 1   
    43   18   69 1   
    44   19   20 1   
    45   19   70 1   
    46   20   21 2   
    47   20   22 1   
    48   22   23 1   
    49   23   24 1   
    50   23   36 1   
    51   23   71 1   
    52   24   25 1   
    53   24   72 1   
    54   24   73 1   
    55   25   26 1   
    56   25   74 1   
    57   25   75 1   
    58   26   27 ar  
    59   26   28 ar  
    60   27   33 ar  
    61   27   76 1   
    62   28   29 ar  
    63   28   77 1   
    64   29   30 ar  
    65   29   78 1   
    66   30   31 1   
    67   30   33 ar  
    68   31   32 1   
    69   32   79 1   
    70   32   80 1   
    71   32   81 1   
    72   33   34 1   
    73   34   35 1   
    74   35   82 1   
    75   35   83 1   
    76   35   84 1   
    77   36   37 ar  
    78   36   38 ar  
    79   37   41 ar  
    80   37   85 1   
    81   38   39 ar  
    82   38   86 1   
    83   39   40 ar  
    84   39   87 1   
    85   40   41 ar  
    86   40   88 1   
    87   41   42 1   
    88   42   43 1   
    89   43   44 1   
    90   43   89 1   
    91   43   90 1   
    92   44   45 1   
    93   44   46 1   
@<TRIPOS>SUBSTRUCTURE
     1 0MD         1 TEMP              0 ****  ****    0 ROOT
