@<TRIPOS>MOLECULE
0MD
   90    93     1     0     0
SMALL
bcc


@<TRIPOS>ATOM
      1 CAA         0.1070    1.5550    2.3750 c3        1 0MD     -0.089100
      2 CAQ         1.4230    1.3060    1.6860 c3        1 0MD     -0.088400
      3 CBQ         2.2470    0.2330    2.3820 c3        1 0MD     -0.038700
      4 CAX         1.6660   -1.1480    2.1160 c3        1 0MD     -0.076400
      5 CAS         2.4740   -2.2370    2.7870 c3        1 0MD     -0.077400
      6 CAU         3.9120   -2.1980    2.3160 c3        1 0MD     -0.075400
      7 CBB         4.5330   -0.8440    2.5780 c3        1 0MD     -0.104400
      8 CBT         3.7240    0.2850    1.9220 c3        1 0MD      0.080800
      9 OAI         3.7310    0.1960    0.5090 oh        1 0MD     -0.573800
     10 CBJ         4.3330    1.6210    2.3620 c         1 0MD      0.488100
     11 OAG         4.4770    1.9520    3.5370 o         1 0MD     -0.501100
     12 CBI         4.7330    2.5480    1.2190 c         1 0MD      0.590100
     13 OAF         3.8950    3.2720    0.6600 o         1 0MD     -0.554100
     14 N           6.0740    2.5520    0.8470 n         1 0MD     -0.464800
     15 CBA         7.0550    1.8690    1.6630 c3        1 0MD      0.090000
     16 CAT         8.4690    1.9310    1.0880 c3        1 0MD     -0.089400
     17 CAR         8.7700    3.3010    0.5220 c3        1 0MD     -0.076400
     18 CB          7.7840    3.6940   -0.5610 c3        1 0MD     -0.080400
     19 CA          6.4510    2.9260   -0.4970 c3        1 0MD      0.066700
     20 C           6.5210    1.7040   -1.4260 c         1 0MD      0.616100
     21 O           6.3930    0.5150   -1.1210 o         1 0MD     -0.562000
     22 OBF         6.7540    2.0620   -2.7150 os        1 0MD     -0.431900
     23 CBP         6.8640    1.0230   -3.7190 c3        1 0MD      0.196400
     24 CAZ         8.0570    1.4170   -4.5910 c3        1 0MD     -0.084400
     25 CAV         9.3730    1.1650   -3.8810 c3        1 0MD     -0.035100
     26 CBK        10.5390    1.4810   -4.7510 ca        1 0MD     -0.074300
     27 CAO        11.3750    2.5630   -4.4420 ca        1 0MD     -0.175000
     28 CAM        10.8120    0.6950   -5.8710 ca        1 0MD     -0.120000
     29 CAN        11.9070    0.9740   -6.6890 ca        1 0MD     -0.172000
     30 CBN        12.7430    2.0510   -6.3910 ca        1 0MD      0.095100
     31 OBC        13.8590    2.4120   -7.1230 os        1 0MD     -0.309900
     32 CAB        14.0660    1.6870   -8.3290 c3        1 0MD      0.111700
     33 CBO        12.4720    2.8530   -5.2530 ca        1 0MD      0.095100
     34 OBD        13.3660    3.8850   -5.0270 os        1 0MD     -0.308900
     35 CAC        13.0070    4.7980   -3.9980 c3        1 0MD      0.112700
     36 CBM         5.6110    0.9450   -4.5380 ca        1 0MD     -0.085300
     37 CAP         5.4310   -0.1810   -5.3400 ca        1 0MD     -0.174000
     38 CAL         4.6550    1.9660   -4.5330 ca        1 0MD     -0.174000
     39 CAJ         3.5180    1.8520   -5.3310 ca        1 0MD     -0.096000
     40 CAK         3.3230    0.7400   -6.1450 ca        1 0MD     -0.211000
     41 CBL         4.2850   -0.2840   -6.1570 ca        1 0MD      0.163100
     42 OBE         4.2160   -1.4210   -6.9140 os        1 0MD     -0.286900
     43 CAW         3.1090   -1.5180   -7.8180 c3        1 0MD     -0.011600
     44 CBG         3.3150   -2.8160   -8.6550 c         1 0MD      0.926600
     45 OAH         4.2170   -2.8090   -9.5310 o         1 0MD     -0.819800
     46 OAD         2.5100   -3.7580   -8.4280 o         1 0MD     -0.819800
     47 H1          0.2640    1.8360    3.4440 hc        1 0MD      0.030033
     48 H2         -0.5430    0.6470    2.3420 hc        1 0MD      0.030033
     49 H3         -0.4350    2.3900    1.8680 hc        1 0MD      0.030033
     50 H4          2.0120    2.2640    1.6550 hc        1 0MD      0.064200
     51 H5          1.2520    1.0010    0.6190 hc        1 0MD      0.064200
     52 H6          2.2540    0.4280    3.4910 hc        1 0MD      0.056700
     53 H7          1.6460   -1.3250    1.0070 hc        1 0MD      0.055700
     54 H8          0.6100   -1.1790    2.4900 hc        1 0MD      0.055700
     55 H9          2.0280   -3.2370    2.5460 hc        1 0MD      0.038700
     56 H10         2.4370   -2.1090    3.9000 hc        1 0MD      0.038700
     57 H11         4.5100   -2.9870    2.8410 hc        1 0MD      0.050700
     58 H12         3.9500   -2.4130    1.2140 hc        1 0MD      0.050700
     59 H13         4.5800   -0.6470    3.6820 hc        1 0MD      0.053700
     60 H14         5.5800   -0.8340    2.1770 hc        1 0MD      0.053700
     61 H15         4.6290   -0.0350    0.2240 ho        1 0MD      0.428000
     62 H16         6.7640    0.7840    1.7820 h1        1 0MD      0.046200
     63 H17         7.0400    2.3470    2.6850 h1        1 0MD      0.046200
     64 H18         8.5750    1.1570    0.2820 hc        1 0MD      0.057200
     65 H19         9.1920    1.6800    1.9050 hc        1 0MD      0.057200
     66 H20         9.8100    3.3140    0.1060 hc        1 0MD      0.045200
     67 H21         8.7340    4.0550    1.3530 hc        1 0MD      0.045200
     68 H22         8.2340    3.5250   -1.5760 hc        1 0MD      0.063700
     69 H23         7.5590    4.7890   -0.4740 hc        1 0MD      0.063700
     70 H24         5.6330    3.5900   -0.9220 h1        1 0MD      0.121700
     71 H25         7.0520    0.0320   -3.2150 h1        1 0MD      0.084700
     72 H26         8.0070    0.8130   -5.5360 hc        1 0MD      0.070200
     73 H27         7.9730    2.4990   -4.8680 hc        1 0MD      0.070200
     74 H28         9.4050    1.7820   -2.9430 hc        1 0MD      0.046700
     75 H29         9.4300    0.0850   -3.5720 hc        1 0MD      0.046700
     76 H30        11.1550    3.1810   -3.5600 ha        1 0MD      0.135000
     77 H31        10.1550   -0.1530   -6.1180 ha        1 0MD      0.146000
     78 H32        12.0980    0.3430   -7.5690 ha        1 0MD      0.142000
     79 H33        14.2750    0.6110   -8.1100 h1        1 0MD      0.042033
     80 H34        13.1850    1.7820   -9.0090 h1        1 0MD      0.042033
     81 H35        14.9660    2.1790   -8.7760 h1        1 0MD      0.042033
     82 H36        13.0230    4.2930   -3.0010 h1        1 0MD      0.039700
     83 H37        12.0030    5.2470   -4.1910 h1        1 0MD      0.039700
     84 H38        13.8060    5.5800   -4.0540 h1        1 0MD      0.039700
     85 H39         6.1670   -0.9980   -5.3540 ha        1 0MD      0.145000
     86 H40         4.8020    2.8510   -3.8980 ha        1 0MD      0.126000
     87 H41         2.7640    2.6520   -5.3180 ha        1 0MD      0.119000
     88 H42         2.4240    0.6630   -6.7710 ha        1 0MD      0.144000
     89 H43         3.0980   -0.6290   -8.4970 h1        1 0MD      0.022200
     90 H44         2.1590   -1.5740   -7.2300 h1        1 0MD      0.022200
@<TRIPOS>BOND
     1    1    2 1   
     2    1   47 1   
     3    1   48 1   
     4    1   49 1   
     5    2    3 1   
     6    2   50 1   
     7    2   51 1   
     8    3    4 1   
     9    3    8 1   
    10    3   52 1   
    11    4    5 1   
    12    4   53 1   
    13    4   54 1   
    14    5    6 1   
    15    5   55 1   
    16    5   56 1   
    17    6    7 1   
    18    6   57 1   
    19    6   58 1   
    20    7    8 1   
    21    7   59 1   
    22    7   60 1   
    23    8    9 1   
    24    8   10 1   
    25    9   61 1   
    26   10   11 2   
    27   10   12 1   
    28   12   13 2   
    29   12   14 1   
    30   14   15 1   
    31   14   19 1   
    32   15   16 1   
    33   15   62 1   
    34   15   63 1   
    35   16   17 1   
    36   16   64 1   
    37   16   65 1   
    38   17   18 1   
    39   17   66 1   
    40   17   67 1   
    41   18   19 1   
    42   18   68 1   
    43   18   69 1   
    44   19   20 1   
    45   19   70 1   
    46   20   21 2   
    47   20   22 1   
    48   22   23 1   
    49   23   24 1   
    50   23   36 1   
    51   23   71 1   
    52   24   25 1   
    53   24   72 1   
    54   24   73 1   
    55   25   26 1   
    56   25   74 1   
    57   25   75 1   
    58   26   27 ar  
    59   26   28 ar  
    60   27   33 ar  
    61   27   76 1   
    62   28   29 ar  
    63   28   77 1   
    64   29   30 ar  
    65   29   78 1   
    66   30   31 1   
    67   30   33 ar  
    68   31   32 1   
    69   32   79 1   
    70   32   80 1   
    71   32   81 1   
    72   33   34 1   
    73   34   35 1   
    74   35   82 1   
    75   35   83 1   
    76   35   84 1   
    77   36   37 ar  
    78   36   38 ar  
    79   37   41 ar  
    80   37   85 1   
    81   38   39 ar  
    82   38   86 1   
    83   39   40 ar  
    84   39   87 1   
    85   40   41 ar  
    86   40   88 1   
    87   41   42 1   
    88   42   43 1   
    89   43   44 1   
    90   43   89 1   
    91   43   90 1   
    92   44   45 1   
    93   44   46 1   
@<TRIPOS>SUBSTRUCTURE
     1 0MD         1 TEMP              0 ****  ****    0 ROOT
