@<TRIPOS>MOLECULE
0MD
   90    93     1     0     0
SMALL
bcc


@<TRIPOS>ATOM
      1 CAA         7.5110    0.8230    2.6100 c3        1 0MD     -0.089100
      2 CAQ         6.1980    0.8780    1.8730 c3        1 0MD     -0.088400
      3 CBQ         6.3520    1.4030    0.4540 c3        1 0MD     -0.038700
      4 CAX         6.9940    0.3530   -0.4410 c3        1 0MD     -0.076400
      5 CAS         7.1480    0.8440   -1.8650 c3        1 0MD     -0.077400
      6 CAU         5.8040    1.2400   -2.4380 c3        1 0MD     -0.075400
      7 CBB         5.1400    2.2970   -1.5840 c3        1 0MD     -0.104400
      8 CBT         4.9840    1.8310   -0.1290 c3        1 0MD      0.080800
      9 OAI         4.1080    0.7250   -0.0120 oh        1 0MD     -0.573800
     10 CBJ         4.4440    3.0090    0.6900 c         1 0MD      0.488100
     11 OAG         4.9880    4.1090    0.7460 o         1 0MD     -0.501100
     12 CBI         3.1680    2.7110    1.4720 c         1 0MD      0.590100
     13 OAF         3.2130    2.1470    2.5760 o         1 0MD     -0.555100
     14 N           1.9650    3.1090    0.8970 n         1 0MD     -0.465800
     15 CBA         1.9670    3.9620   -0.2720 c3        1 0MD      0.090000
     16 CAT         0.5670    4.2720   -0.7970 c3        1 0MD     -0.089400
     17 CAR        -0.3990    4.5320    0.3370 c3        1 0MD     -0.077400
     18 CB         -0.4840    3.3530    1.2870 c3        1 0MD     -0.079400
     19 CA          0.7390    2.4200    1.2320 c3        1 0MD      0.066700
     20 C           0.4550    1.2660    0.2580 c         1 0MD      0.616100
     21 O           1.0720    0.9750   -0.7700 o         1 0MD     -0.561000
     22 OBF        -0.6170    0.5300    0.6480 os        1 0MD     -0.433900
     23 CBP        -1.0310   -0.5890   -0.1770 c3        1 0MD      0.196400
     24 CAZ        -2.5570   -0.5200   -0.2280 c3        1 0MD     -0.082400
     25 CAV        -3.0300    0.6300   -1.0950 c3        1 0MD     -0.036100
     26 CBK        -4.5130    0.7610   -1.0800 ca        1 0MD     -0.071300
     27 CAO        -5.1500    1.2850    0.0550 ca        1 0MD     -0.175000
     28 CAM        -5.2740    0.3780   -2.1830 ca        1 0MD     -0.122000
     29 CAN        -6.6630    0.5110   -2.1730 ca        1 0MD     -0.175000
     30 CBN        -7.3060    1.0280   -1.0480 ca        1 0MD      0.095100
     31 OBC        -8.6700    1.2210   -0.9370 os        1 0MD     -0.308900
     32 CAB        -9.4590    0.6480   -1.9720 c3        1 0MD      0.111700
     33 CBO        -6.5370    1.4190    0.0800 ca        1 0MD      0.099100
     34 OBD        -7.2570    1.9420    1.1380 os        1 0MD     -0.309900
     35 CAC        -6.5340    2.1030    2.3540 c3        1 0MD      0.111700
     36 CBM        -0.5760   -1.8830    0.4270 ca        1 0MD     -0.087300
     37 CAP        -0.5060   -3.0020   -0.4020 ca        1 0MD     -0.171000
     38 CAL        -0.2530   -1.9900    1.7840 ca        1 0MD     -0.175000
     39 CAJ         0.1430   -3.2200    2.3050 ca        1 0MD     -0.097000
     40 CAK         0.2120   -4.3510    1.4970 ca        1 0MD     -0.211000
     41 CBL        -0.1170   -4.2480    0.1350 ca        1 0MD      0.163100
     42 OBE        -0.0950   -5.2810   -0.7600 os        1 0MD     -0.286900
     43 CAW         0.2430   -6.5710   -0.2370 c3        1 0MD     -0.011600
     44 CBG         0.1100   -7.5890   -1.4090 c         1 0MD      0.926600
     45 OAH        -1.0490   -7.9620   -1.7260 o         1 0MD     -0.819300
     46 OAD         1.1860   -8.0100   -1.9100 o         1 0MD     -0.819300
     47 H1          7.3410    0.4930    3.6640 hc        1 0MD      0.030033
     48 H2          8.2130    0.1010    2.1270 hc        1 0MD      0.030033
     49 H3          7.9980    1.8270    2.6300 hc        1 0MD      0.030033
     50 H4          5.7300   -0.1420    1.8370 hc        1 0MD      0.064200
     51 H5          5.4840    1.5380    2.4370 hc        1 0MD      0.064200
     52 H6          6.9950    2.3270    0.4640 hc        1 0MD      0.056700
     53 H7          7.9990    0.0820   -0.0260 hc        1 0MD      0.056200
     54 H8          6.3550   -0.5710   -0.4310 hc        1 0MD      0.056200
     55 H9          7.8450    1.7220   -1.8910 hc        1 0MD      0.039200
     56 H10         7.6000    0.0330   -2.4930 hc        1 0MD      0.039200
     57 H11         5.9330    1.6320   -3.4800 hc        1 0MD      0.051200
     58 H12         5.1400    0.3360   -2.4890 hc        1 0MD      0.051200
     59 H13         5.7500    3.2380   -1.5890 hc        1 0MD      0.053700
     60 H14         4.1300    2.5340   -2.0110 hc        1 0MD      0.053700
     61 H15         3.3530    0.8710   -0.6040 ho        1 0MD      0.428000
     62 H16         2.4880    4.9240    0.0090 h1        1 0MD      0.046200
     63 H17         2.5610    3.4740   -1.1000 h1        1 0MD      0.046200
     64 H18         0.6310    5.1680   -1.4660 hc        1 0MD      0.057200
     65 H19         0.2030    3.4070   -1.4130 hc        1 0MD      0.057200
     66 H20        -0.0650    5.4430    0.9000 hc        1 0MD      0.046200
     67 H21        -1.4170    4.7520   -0.0790 hc        1 0MD      0.046200
     68 H22        -0.5830    3.7340    2.3380 hc        1 0MD      0.062200
     69 H23        -1.3990    2.7410    1.0660 hc        1 0MD      0.062200
     70 H24         0.8730    1.9390    2.2520 h1        1 0MD      0.120700
     71 H25        -0.5960   -0.4730   -1.2100 h1        1 0MD      0.084700
     72 H26        -2.9320   -1.4950   -0.6370 hc        1 0MD      0.069200
     73 H27        -2.9590   -0.4040    0.8120 hc        1 0MD      0.069200
     74 H28        -2.5670    1.5830   -0.7200 hc        1 0MD      0.047200
     75 H29        -2.6700    0.4760   -2.1480 hc        1 0MD      0.047200
     76 H30        -4.5430    1.5770    0.9230 ha        1 0MD      0.140000
     77 H31        -4.7800   -0.0410   -3.0730 ha        1 0MD      0.139000
     78 H32        -7.2430    0.1980   -3.0530 ha        1 0MD      0.138000
     79 H33       -10.5090    0.8310   -1.6300 h1        1 0MD      0.041367
     80 H34        -9.2680    1.1660   -2.9430 h1        1 0MD      0.041367
     81 H35        -9.2600   -0.4470   -2.0690 h1        1 0MD      0.041367
     82 H36        -7.3240    2.4070    3.0870 h1        1 0MD      0.041700
     83 H37        -6.0540    1.1440    2.6660 h1        1 0MD      0.041700
     84 H38        -5.7670    2.9080    2.2480 h1        1 0MD      0.041700
     85 H39        -0.7500   -2.9390   -1.4720 ha        1 0MD      0.146000
     86 H40        -0.3080   -1.1030    2.4300 ha        1 0MD      0.125000
     87 H41         0.4050   -3.3000    3.3700 ha        1 0MD      0.118000
     88 H42         0.5250   -5.3160    1.9200 ha        1 0MD      0.144000
     89 H43         1.2940   -6.5480    0.1470 h1        1 0MD      0.021700
     90 H44        -0.4690   -6.8410    0.5830 h1        1 0MD      0.021700
@<TRIPOS>BOND
     1    1    2 1   
     2    1   47 1   
     3    1   48 1   
     4    1   49 1   
     5    2    3 1   
     6    2   50 1   
     7    2   51 1   
     8    3    4 1   
     9    3    8 1   
    10    3   52 1   
    11    4    5 1   
    12    4   53 1   
    13    4   54 1   
    14    5    6 1   
    15    5   55 1   
    16    5   56 1   
    17    6    7 1   
    18    6   57 1   
    19    6   58 1   
    20    7    8 1   
    21    7   59 1   
    22    7   60 1   
    23    8    9 1   
    24    8   10 1   
    25    9   61 1   
    26   10   11 2   
    27   10   12 1   
    28   12   13 2   
    29   12   14 1   
    30   14   15 1   
    31   14   19 1   
    32   15   16 1   
    33   15   62 1   
    34   15   63 1   
    35   16   17 1   
    36   16   64 1   
    37   16   65 1   
    38   17   18 1   
    39   17   66 1   
    40   17   67 1   
    41   18   19 1   
    42   18   68 1   
    43   18   69 1   
    44   19   20 1   
    45   19   70 1   
    46   20   21 2   
    47   20   22 1   
    48   22   23 1   
    49   23   24 1   
    50   23   36 1   
    51   23   71 1   
    52   24   25 1   
    53   24   72 1   
    54   24   73 1   
    55   25   26 1   
    56   25   74 1   
    57   25   75 1   
    58   26   27 ar  
    59   26   28 ar  
    60   27   33 ar  
    61   27   76 1   
    62   28   29 ar  
    63   28   77 1   
    64   29   30 ar  
    65   29   78 1   
    66   30   31 1   
    67   30   33 ar  
    68   31   32 1   
    69   32   79 1   
    70   32   80 1   
    71   32   81 1   
    72   33   34 1   
    73   34   35 1   
    74   35   82 1   
    75   35   83 1   
    76   35   84 1   
    77   36   37 ar  
    78   36   38 ar  
    79   37   41 ar  
    80   37   85 1   
    81   38   39 ar  
    82   38   86 1   
    83   39   40 ar  
    84   39   87 1   
    85   40   41 ar  
    86   40   88 1   
    87   41   42 1   
    88   42   43 1   
    89   43   44 1   
    90   43   89 1   
    91   43   90 1   
    92   44   45 1   
    93   44   46 1   
@<TRIPOS>SUBSTRUCTURE
     1 0MD         1 TEMP              0 ****  ****    0 ROOT
