@<TRIPOS>MOLECULE
0MD
   90    93     1     0     0
SMALL
bcc


@<TRIPOS>ATOM
      1 CAA         1.0800    0.0130    3.7310 c3        1 0MD     -0.090100
      2 CAQ         2.1030    0.1430    2.6320 c3        1 0MD     -0.082400
      3 CBQ         3.4750   -0.3620    3.0570 c3        1 0MD     -0.040700
      4 CAX         3.5140   -1.8830    3.0790 c3        1 0MD     -0.074400
      5 CAS         4.8820   -2.4060    3.4610 c3        1 0MD     -0.077400
      6 CAU         5.9390   -1.8890    2.5070 c3        1 0MD     -0.073400
      7 CBB         5.9470   -0.3770    2.4780 c3        1 0MD     -0.105400
      8 CBT         4.5660    0.1810    2.1060 c3        1 0MD      0.082800
      9 OAI         4.1830   -0.1750    0.7910 oh        1 0MD     -0.575800
     10 CBJ         4.6410    1.7040    2.2500 c         1 0MD      0.495100
     11 OAG         4.7750    2.2870    3.3240 o         1 0MD     -0.502100
     12 CBI         4.5320    2.4700    0.9370 c         1 0MD      0.583100
     13 OAF         3.4240    2.8070    0.4910 o         1 0MD     -0.548100
     14 N           5.7190    2.6670    0.2330 n         1 0MD     -0.472800
     15 CBA         6.9850    2.8560    0.9000 c3        1 0MD      0.094000
     16 CAT         7.5120    4.2950    0.8440 c3        1 0MD     -0.102400
     17 CAR         7.0820    5.0190   -0.4170 c3        1 0MD     -0.078400
     18 CB          6.7870    4.0540   -1.5440 c3        1 0MD     -0.081400
     19 CA          5.6710    3.0650   -1.1610 c3        1 0MD      0.055700
     20 C           5.7710    1.8430   -2.0830 c         1 0MD      0.627100
     21 O           5.7570    0.6500   -1.7730 o         1 0MD     -0.556000
     22 OBF         5.8920    2.2170   -3.3830 os        1 0MD     -0.432900
     23 CBP         5.9770    1.1870   -4.4010 c3        1 0MD      0.195400
     24 CAZ         7.4380    1.0910   -4.8420 c3        1 0MD     -0.093400
     25 CAV         8.2550    0.2610   -3.8710 c3        1 0MD     -0.040100
     26 CBK         9.7140    0.3570   -4.1490 ca        1 0MD     -0.068300
     27 CAO        10.4050    1.5370   -3.8330 ca        1 0MD     -0.175000
     28 CAM        10.4050   -0.7160   -4.7110 ca        1 0MD     -0.120000
     29 CAN        11.7760   -0.6300   -4.9610 ca        1 0MD     -0.175000
     30 CBN        12.4690    0.5410   -4.6530 ca        1 0MD      0.094100
     31 OBC        13.8250    0.7300   -4.8430 os        1 0MD     -0.309900
     32 CAB        14.4940   -0.2950   -5.5670 c3        1 0MD      0.111700
     33 CBO        11.7720    1.6370   -4.0810 ca        1 0MD      0.097100
     34 OBD        12.5440    2.7450   -3.7820 os        1 0MD     -0.310900
     35 CAC        11.8220    3.9360   -3.4930 c3        1 0MD      0.112700
     36 CBM         5.0960    1.5890   -5.5480 ca        1 0MD     -0.076300
     37 CAP         4.7920    0.6170   -6.5000 ca        1 0MD     -0.175000
     38 CAL         4.6040    2.8910   -5.6870 ca        1 0MD     -0.174000
     39 CAJ         3.8040    3.2130   -6.7810 ca        1 0MD     -0.099000
     40 CAK         3.4940    2.2610   -7.7480 ca        1 0MD     -0.212000
     41 CBL         3.9930    0.9540   -7.6130 ca        1 0MD      0.164100
     42 OBE         3.7670   -0.0670   -8.4940 os        1 0MD     -0.285900
     43 CAW         3.0190    0.2620   -9.6710 c3        1 0MD     -0.012600
     44 CBG         2.9910   -1.0130  -10.5680 c         1 0MD      0.926600
     45 OAH         4.0420   -1.3080  -11.1930 o         1 0MD     -0.818800
     46 OAD         1.8890   -1.6160  -10.6450 o         1 0MD     -0.818800
     47 H1          1.4030    0.5730    4.6420 hc        1 0MD      0.030700
     48 H2          0.1010    0.4300    3.3900 hc        1 0MD      0.030700
     49 H3          0.9270   -1.0560    4.0120 hc        1 0MD      0.030700
     50 H4          2.1880    1.2210    2.3260 hc        1 0MD      0.060200
     51 H5          1.7700   -0.4230    1.7220 hc        1 0MD      0.060200
     52 H6          3.7180    0.0330    4.0830 hc        1 0MD      0.059700
     53 H7          3.2380   -2.2670    2.0600 hc        1 0MD      0.053700
     54 H8          2.7500   -2.2580    3.8080 hc        1 0MD      0.053700
     55 H9          5.1310   -2.0900    4.5080 hc        1 0MD      0.038200
     56 H10         4.8730   -3.5270    3.4380 hc        1 0MD      0.038200
     57 H11         5.7310   -2.2750    1.4730 hc        1 0MD      0.050200
     58 H12         6.9490   -2.2610    2.8170 hc        1 0MD      0.050200
     59 H13         6.7030   -0.0150    1.7320 hc        1 0MD      0.053200
     60 H14         6.2320    0.0260    3.4860 hc        1 0MD      0.053200
     61 H15         4.9410   -0.0390    0.2000 ho        1 0MD      0.434000
     62 H16         7.7340    2.1760    0.3970 h1        1 0MD      0.055700
     63 H17         6.8990    2.5370    1.9770 h1        1 0MD      0.055700
     64 H18         7.1510    4.8630    1.7400 hc        1 0MD      0.049700
     65 H19         8.6300    4.2500    0.9040 hc        1 0MD      0.049700
     66 H20         6.1650    5.6300   -0.2060 hc        1 0MD      0.049200
     67 H21         7.8870    5.7300   -0.7390 hc        1 0MD      0.049200
     68 H22         7.7170    3.4850   -1.8080 hc        1 0MD      0.063700
     69 H23         6.4560    4.6020   -2.4630 hc        1 0MD      0.063700
     70 H24         4.6620    3.5380   -1.3740 h1        1 0MD      0.115700
     71 H25         5.6260    0.2050   -3.9750 h1        1 0MD      0.089700
     72 H26         7.8680    2.1230   -4.9230 hc        1 0MD      0.067700
     73 H27         7.4680    0.6250   -5.8620 hc        1 0MD      0.067700
     74 H28         8.0490    0.6130   -2.8220 hc        1 0MD      0.052700
     75 H29         7.9220   -0.8100   -3.9260 hc        1 0MD      0.052700
     76 H30         9.8510    2.3800   -3.3950 ha        1 0MD      0.137000
     77 H31         9.8680   -1.6410   -4.9670 ha        1 0MD      0.141000
     78 H32        12.2980   -1.4880   -5.4080 ha        1 0MD      0.138000
     79 H33        14.0240   -0.4500   -6.5690 h1        1 0MD      0.041367
     80 H34        15.5350    0.1010   -5.6770 h1        1 0MD      0.041367
     81 H35        14.4970   -1.2500   -4.9860 h1        1 0MD      0.041367
     82 H36        11.0950    4.1750   -4.3060 h1        1 0MD      0.040367
     83 H37        11.2940    3.8430   -2.5120 h1        1 0MD      0.040367
     84 H38        12.6220    4.7180   -3.4350 h1        1 0MD      0.040367
     85 H39         5.1650   -0.4130   -6.4080 ha        1 0MD      0.147000
     86 H40         4.8450    3.6520   -4.9330 ha        1 0MD      0.125000
     87 H41         3.4120    4.2360   -6.8850 ha        1 0MD      0.116000
     88 H42         2.8640    2.5290   -8.6070 ha        1 0MD      0.144000
     89 H43         1.9810    0.5580   -9.3760 h1        1 0MD      0.022200
     90 H44         3.5260    1.0970  -10.2170 h1        1 0MD      0.022200
@<TRIPOS>BOND
     1    1    2 1   
     2    1   47 1   
     3    1   48 1   
     4    1   49 1   
     5    2    3 1   
     6    2   50 1   
     7    2   51 1   
     8    3    4 1   
     9    3    8 1   
    10    3   52 1   
    11    4    5 1   
    12    4   53 1   
    13    4   54 1   
    14    5    6 1   
    15    5   55 1   
    16    5   56 1   
    17    6    7 1   
    18    6   57 1   
    19    6   58 1   
    20    7    8 1   
    21    7   59 1   
    22    7   60 1   
    23    8    9 1   
    24    8   10 1   
    25    9   61 1   
    26   10   11 2   
    27   10   12 1   
    28   12   13 2   
    29   12   14 1   
    30   14   15 1   
    31   14   19 1   
    32   15   16 1   
    33   15   62 1   
    34   15   63 1   
    35   16   17 1   
    36   16   64 1   
    37   16   65 1   
    38   17   18 1   
    39   17   66 1   
    40   17   67 1   
    41   18   19 1   
    42   18   68 1   
    43   18   69 1   
    44   19   20 1   
    45   19   70 1   
    46   20   21 2   
    47   20   22 1   
    48   22   23 1   
    49   23   24 1   
    50   23   36 1   
    51   23   71 1   
    52   24   25 1   
    53   24   72 1   
    54   24   73 1   
    55   25   26 1   
    56   25   74 1   
    57   25   75 1   
    58   26   27 ar  
    59   26   28 ar  
    60   27   33 ar  
    61   27   76 1   
    62   28   29 ar  
    63   28   77 1   
    64   29   30 ar  
    65   29   78 1   
    66   30   31 1   
    67   30   33 ar  
    68   31   32 1   
    69   32   79 1   
    70   32   80 1   
    71   32   81 1   
    72   33   34 1   
    73   34   35 1   
    74   35   82 1   
    75   35   83 1   
    76   35   84 1   
    77   36   37 ar  
    78   36   38 ar  
    79   37   41 ar  
    80   37   85 1   
    81   38   39 ar  
    82   38   86 1   
    83   39   40 ar  
    84   39   87 1   
    85   40   41 ar  
    86   40   88 1   
    87   41   42 1   
    88   42   43 1   
    89   43   44 1   
    90   43   89 1   
    91   43   90 1   
    92   44   45 1   
    93   44   46 1   
@<TRIPOS>SUBSTRUCTURE
     1 0MD         1 TEMP              0 ****  ****    0 ROOT
