@<TRIPOS>MOLECULE
0ME
   47    50     1     0     0
SMALL
bcc


@<TRIPOS>ATOM
      1 C1         -0.5120   -0.5550   -0.0590 ca        1 0ME     -0.183800
      2 C2          0.7550   -0.0880   -0.4370 ca        1 0ME      0.128100
      3 O3          1.5790    0.6200    0.4260 os        1 0ME     -0.226200
      4 C4         -1.0180   -0.3080    1.3230 c3        1 0ME      0.044900
      5 C5         -0.7730   -1.5010   -2.2750 ca        1 0ME     -0.135000
      6 C6          0.4770   -0.9920   -2.6490 ca        1 0ME     -0.079500
      7 C7          1.2550   -0.2910   -1.7360 ca        1 0ME     -0.125500
      8 C8         -1.2600   -1.2900   -0.9910 ca        1 0ME     -0.116500
      9 C9          0.1040   -0.0410    2.2690 ca        1 0ME     -0.183800
     10 C10         1.3430    0.4020    1.7820 ca        1 0ME      0.128100
     11 C11         2.4160    0.6770    2.6420 ca        1 0ME     -0.125500
     12 C12         2.2350    0.4960    4.0100 ca        1 0ME     -0.079500
     13 C13         1.0130    0.0360    4.5110 ca        1 0ME     -0.135000
     14 C14        -0.0450   -0.2340    3.6480 ca        1 0ME     -0.116500
     15 C15        -1.9390    0.9320    1.3550 c3        1 0ME      0.101800
     16 N16        -2.9940    0.8960    0.3000 n4        1 0ME     -0.683800
     17 C17        -3.8650    2.1400    0.3470 c         1 0ME      0.551100
     18 O18        -4.6260    2.2060    1.2980 o         1 0ME     -0.406100
     19 C19        -3.6880    3.1040   -0.7960 c3        1 0ME     -0.138700
     20 C20        -4.7790    4.1700   -0.7450 c3        1 0ME     -0.076400
     21 C21        -4.5690    5.1680   -1.8650 c3        1 0ME     -0.082400
     22 C22        -3.1550    5.7480   -1.8370 c3        1 0ME      0.151800
     23 N23        -2.1280    4.7230   -1.7930 n3        1 0ME     -0.821200
     24 C24        -2.2970    3.7700   -0.7200 c3        1 0ME      0.173800
     25 H1         -1.6050   -1.2040    1.6770 hc        1 0ME      0.085700
     26 H2         -1.3620   -2.0860   -2.9990 ha        1 0ME      0.155000
     27 H3          0.8560   -1.1660   -3.6690 ha        1 0ME      0.160000
     28 H4          2.2520    0.0930   -2.0010 ha        1 0ME      0.171500
     29 H5         -2.2160   -1.7430   -0.6880 ha        1 0ME      0.132000
     30 H6          3.3750    1.0240    2.2280 ha        1 0ME      0.171500
     31 H7          3.0680    0.7060    4.7010 ha        1 0ME      0.160000
     32 H8          0.8900   -0.1190    5.5940 ha        1 0ME      0.155000
     33 H9         -1.0000   -0.6070    4.0460 ha        1 0ME      0.132000
     34 H10        -2.4490    0.9970    2.3590 hx        1 0ME      0.111700
     35 H11        -1.3250    1.8640    1.1920 hx        1 0ME      0.111700
     36 H12        -3.5770    0.0630    0.4480 hn        1 0ME      0.460800
     37 H13        -3.7800    2.5390   -1.7680 hc        1 0ME      0.110700
     38 H14        -5.7860    3.6880   -0.8430 hc        1 0ME      0.069200
     39 H15        -4.7480    4.6920    0.2480 hc        1 0ME      0.069200
     40 H16        -4.7580    4.6740   -2.8550 hc        1 0ME      0.071200
     41 H17        -5.3030    6.0080   -1.7570 hc        1 0ME      0.071200
     42 H18        -3.0790    6.4570   -0.9610 h1        1 0ME      0.054700
     43 H19        -2.9850    6.3430   -2.7790 h1        1 0ME      0.054700
     44 H20        -1.2140    5.1350   -1.7520 hn        1 0ME      0.394800
     45 H22        -1.4940    2.9890   -0.8370 h1        1 0ME      0.036200
     46 H23        -2.1910    4.2320    0.3060 h1        1 0ME      0.036200
     47 H162       -2.5400    0.8120   -0.6200 hn        1 0ME      0.460800
@<TRIPOS>BOND
     1    1    2 ar  
     2    1    4 1   
     3    1    8 ar  
     4    2    3 1   
     5    2    7 ar  
     6    3   10 1   
     7    4    9 1   
     8    4   15 1   
     9    4   25 1   
    10    5    6 ar  
    11    5    8 ar  
    12    5   26 1   
    13    6    7 ar  
    14    6   27 1   
    15    7   28 1   
    16    8   29 1   
    17    9   10 ar  
    18    9   14 ar  
    19   10   11 ar  
    20   11   12 ar  
    21   11   30 1   
    22   12   13 ar  
    23   12   31 1   
    24   13   14 ar  
    25   13   32 1   
    26   14   33 1   
    27   15   16 1   
    28   15   34 1   
    29   15   35 1   
    30   16   17 1   
    31   16   36 1   
    32   16   47 1   
    33   17   18 2   
    34   17   19 1   
    35   19   20 1   
    36   19   24 1   
    37   19   37 1   
    38   20   21 1   
    39   20   38 1   
    40   20   39 1   
    41   21   22 1   
    42   21   40 1   
    43   21   41 1   
    44   22   23 1   
    45   22   42 1   
    46   22   43 1   
    47   23   24 1   
    48   23   44 1   
    49   24   45 1   
    50   24   46 1   
@<TRIPOS>SUBSTRUCTURE
     1 0ME         1 TEMP              0 ****  ****    0 ROOT
