@<TRIPOS>MOLECULE
0ME
   47    50     1     0     0
SMALL
bcc


@<TRIPOS>ATOM
      1 C1         -0.5050   -0.5470   -0.0770 ca        1 0ME     -0.183800
      2 C2          0.7610   -0.0730   -0.4490 ca        1 0ME      0.128100
      3 O3          1.5810    0.6290    0.4220 os        1 0ME     -0.226200
      4 C4         -1.0160   -0.3140    1.3050 c3        1 0ME      0.044900
      5 C5         -0.7590   -1.4740   -2.3030 ca        1 0ME     -0.135000
      6 C6          0.4900   -0.9580   -2.6700 ca        1 0ME     -0.079500
      7 C7          1.2640   -0.2630   -1.7480 ca        1 0ME     -0.125500
      8 C8         -1.2500   -1.2760   -1.0180 ca        1 0ME     -0.116500
      9 C9          0.1040   -0.0530    2.2560 ca        1 0ME     -0.183800
     10 C10         1.3420    0.3980    1.7760 ca        1 0ME      0.128100
     11 C11         2.4130    0.6680    2.6410 ca        1 0ME     -0.125500
     12 C12         2.2300    0.4730    4.0060 ca        1 0ME     -0.079500
     13 C13         1.0080    0.0050    4.5010 ca        1 0ME     -0.135000
     14 C14        -0.0470   -0.2590    3.6330 ca        1 0ME     -0.116500
     15 C15        -1.9400    0.9230    1.3470 c3        1 0ME      0.101800
     16 N16        -2.9940    0.8920    0.2900 n4        1 0ME     -0.683800
     17 C17        -3.8680    2.1340    0.3460 c         1 0ME      0.551100
     18 O18        -4.6300    2.1900    1.2970 o         1 0ME     -0.406100
     19 C19        -3.6940    3.1070   -0.7900 c3        1 0ME     -0.138700
     20 C20        -4.7880    4.1680   -0.7330 c3        1 0ME     -0.076400
     21 C21        -4.5800    5.1740   -1.8450 c3        1 0ME     -0.082400
     22 C22        -3.1690    5.7580   -1.8130 c3        1 0ME      0.151800
     23 N23        -2.1390    4.7370   -1.7750 n3        1 0ME     -0.821200
     24 C24        -2.3050    3.7760   -0.7090 c3        1 0ME      0.173800
     25 H1         -1.6000   -1.2160    1.6500 hc        1 0ME      0.085700
     26 H2         -1.3450   -2.0540   -3.0330 ha        1 0ME      0.155000
     27 H3          0.8720   -1.1220   -3.6910 ha        1 0ME      0.160000
     28 H4          2.2610    0.1260   -2.0080 ha        1 0ME      0.171500
     29 H5         -2.2050   -1.7340   -0.7210 ha        1 0ME      0.132000
     30 H6          3.3720    1.0200    2.2320 ha        1 0ME      0.171500
     31 H7          3.0600    0.6790    4.7010 ha        1 0ME      0.160000
     32 H8          0.8830   -0.1600    5.5820 ha        1 0ME      0.155000
     33 H9         -1.0030   -0.6380    4.0260 ha        1 0ME      0.132000
     34 H10        -1.3290    1.8580    1.1910 hx        1 0ME      0.111700
     35 H11        -2.4510    0.9780    2.3510 hx        1 0ME      0.111700
     36 H12        -2.5380    0.8170   -0.6300 hn        1 0ME      0.460800
     37 H13        -3.7840    2.5470   -1.7660 hc        1 0ME      0.110700
     38 H14        -4.7590    4.6830    0.2640 hc        1 0ME      0.069200
     39 H15        -5.7940    3.6840   -0.8340 hc        1 0ME      0.069200
     40 H16        -4.7680    4.6870   -2.8380 hc        1 0ME      0.071200
     41 H17        -5.3170    6.0110   -1.7320 hc        1 0ME      0.071200
     42 H18        -3.0950    6.4630   -0.9320 h1        1 0ME      0.054700
     43 H19        -3.0000    6.3610   -2.7510 h1        1 0ME      0.054700
     44 H20        -1.2260    5.1510   -1.7310 hn        1 0ME      0.394800
     45 H22        -2.2000    4.2310    0.3210 h1        1 0ME      0.036200
     46 H23        -1.4990    2.9980   -0.8310 h1        1 0ME      0.036200
     47 H162       -3.5740    0.0570    0.4300 hn        1 0ME      0.460800
@<TRIPOS>BOND
     1    1    2 ar  
     2    1    4 1   
     3    1    8 ar  
     4    2    3 1   
     5    2    7 ar  
     6    3   10 1   
     7    4    9 1   
     8    4   15 1   
     9    4   25 1   
    10    5    6 ar  
    11    5    8 ar  
    12    5   26 1   
    13    6    7 ar  
    14    6   27 1   
    15    7   28 1   
    16    8   29 1   
    17    9   10 ar  
    18    9   14 ar  
    19   10   11 ar  
    20   11   12 ar  
    21   11   30 1   
    22   12   13 ar  
    23   12   31 1   
    24   13   14 ar  
    25   13   32 1   
    26   14   33 1   
    27   15   16 1   
    28   15   34 1   
    29   15   35 1   
    30   16   17 1   
    31   16   36 1   
    32   16   47 1   
    33   17   18 2   
    34   17   19 1   
    35   19   20 1   
    36   19   24 1   
    37   19   37 1   
    38   20   21 1   
    39   20   38 1   
    40   20   39 1   
    41   21   22 1   
    42   21   40 1   
    43   21   41 1   
    44   22   23 1   
    45   22   42 1   
    46   22   43 1   
    47   23   24 1   
    48   23   44 1   
    49   24   45 1   
    50   24   46 1   
@<TRIPOS>SUBSTRUCTURE
     1 0ME         1 TEMP              0 ****  ****    0 ROOT
