@<TRIPOS>MOLECULE
0ME
   47    50     1     0     0
SMALL
bcc


@<TRIPOS>ATOM
      1 C1         -0.5240   -0.5580   -0.0620 ca        1 0ME     -0.183800
      2 C2          0.7460   -0.0970   -0.4360 ca        1 0ME      0.128100
      3 O3          1.5720    0.6060    0.4290 os        1 0ME     -0.226200
      4 C4         -1.0320   -0.3100    1.3190 c3        1 0ME      0.044900
      5 C5         -0.7850   -1.5000   -2.2800 ca        1 0ME     -0.135000
      6 C6          0.4690   -0.9970   -2.6500 ca        1 0ME     -0.079500
      7 C7          1.2480   -0.3010   -1.7350 ca        1 0ME     -0.125500
      8 C8         -1.2740   -1.2880   -0.9960 ca        1 0ME     -0.116500
      9 C9          0.0900   -0.0490    2.2680 ca        1 0ME     -0.183800
     10 C10         1.3310    0.3870    1.7840 ca        1 0ME      0.128100
     11 C11         2.4040    0.6560    2.6470 ca        1 0ME     -0.125500
     12 C12         2.2190    0.4740    4.0140 ca        1 0ME     -0.079500
     13 C13         0.9930    0.0200    4.5120 ca        1 0ME     -0.135000
     14 C14        -0.0640   -0.2440    3.6460 ca        1 0ME     -0.116500
     15 C15        -1.9470    0.9350    1.3510 c3        1 0ME      0.101800
     16 N16        -3.0000    0.9050    0.2930 ny        1 0ME     -0.683800
     17 C17        -3.8640    2.1540    0.3400 c         1 0ME      0.551100
     18 O18        -4.6270    2.2220    1.2880 o         1 0ME     -0.406100
     19 C19        -3.6800    3.1180   -0.8020 c3        1 0ME     -0.138700
     20 C20        -4.7660    4.1890   -0.7520 c3        1 0ME     -0.076400
     21 C21        -4.5480    5.1870   -1.8710 c3        1 0ME     -0.082400
     22 C22        -3.1320    5.7600   -1.8400 c3        1 0ME      0.151800
     23 N23        -2.1110    4.7300   -1.7950 n7        1 0ME     -0.821200
     24 C24        -2.2870    3.7770   -0.7230 c3        1 0ME      0.173800
     25 H1         -1.6240   -1.2040    1.6710 hc        1 0ME      0.085700
     26 H2         -1.3750   -2.0810   -3.0060 ha        1 0ME      0.155000
     27 H3          0.8500   -1.1720   -3.6700 ha        1 0ME      0.160000
     28 H4          2.2480    0.0780   -1.9970 ha        1 0ME      0.171500
     29 H5         -2.2330   -1.7360   -0.6960 ha        1 0ME      0.132000
     30 H6          3.3660    0.9980    2.2360 ha        1 0ME      0.171500
     31 H7          3.0510    0.6790    4.7080 ha        1 0ME      0.160000
     32 H8          0.8670   -0.1360    5.5950 ha        1 0ME      0.155000
     33 H9         -1.0220   -0.6120    4.0420 ha        1 0ME      0.132000
     34 H10        -1.3280    1.8640    1.1890 hx        1 0ME      0.111700
     35 H11        -2.4580    1.0010    2.3530 hx        1 0ME      0.111700
     36 H12        -2.5440    0.8200   -0.6260 hn        1 0ME      0.460800
     37 H13        -3.7740    2.5540   -1.7760 hc        1 0ME      0.110700
     38 H14        -5.7760    3.7130   -0.8530 hc        1 0ME      0.069200
     39 H15        -4.7340    4.7100    0.2410 hc        1 0ME      0.069200
     40 H16        -5.2790    6.0310   -1.7630 hc        1 0ME      0.071200
     41 H17        -4.7380    4.6960   -2.8610 hc        1 0ME      0.071200
     42 H18        -3.0540    6.4680   -0.9630 h1        1 0ME      0.054700
     43 H19        -2.9570    6.3550   -2.7810 h1        1 0ME      0.054700
     44 H20        -1.1940    5.1370   -1.7520 hn        1 0ME      0.394800
     45 H22        -1.4870    2.9920   -0.8400 h1        1 0ME      0.036200
     46 H23        -2.1790    4.2370    0.3040 h1        1 0ME      0.036200
     47 H162       -3.5870    0.0750    0.4380 hn        1 0ME      0.460800
@<TRIPOS>BOND
     1    1    2 ar  
     2    1    4 1   
     3    1    8 ar  
     4    2    3 1   
     5    2    7 ar  
     6    3   10 1   
     7    4    9 1   
     8    4   15 1   
     9    4   25 1   
    10    5    6 ar  
    11    5    8 ar  
    12    5   26 1   
    13    6    7 ar  
    14    6   27 1   
    15    7   28 1   
    16    8   29 1   
    17    9   10 ar  
    18    9   14 ar  
    19   10   11 ar  
    20   11   12 ar  
    21   11   30 1   
    22   12   13 ar  
    23   12   31 1   
    24   13   14 ar  
    25   13   32 1   
    26   14   33 1   
    27   15   16 1   
    28   15   34 1   
    29   15   35 1   
    30   16   17 1   
    31   16   36 1   
    32   16   47 1   
    33   17   18 2   
    34   17   19 1   
    35   19   20 1   
    36   19   24 1   
    37   19   37 1   
    38   20   21 1   
    39   20   38 1   
    40   20   39 1   
    41   21   22 1   
    42   21   40 1   
    43   21   41 1   
    44   22   23 1   
    45   22   42 1   
    46   22   43 1   
    47   23   24 1   
    48   23   44 1   
    49   24   45 1   
    50   24   46 1   
@<TRIPOS>SUBSTRUCTURE
     1 0ME         1 TEMP              0 ****  ****    0 ROOT
