@<TRIPOS>MOLECULE
0ME
   46    49     1     0     0
SMALL
bcc


@<TRIPOS>ATOM
      1 C1         -1.1850   -1.0240   -0.3800 ca        1 0ME     -0.128300
      2 C2         -2.0410   -1.6050    0.5680 ca        1 0ME      0.122100
      3 O3         -3.1270   -0.9360    1.1230 os        1 0ME     -0.232200
      4 C4         -1.3890    0.3840   -0.8290 c3        1 0ME      0.021900
      5 C5          0.0560   -3.1090   -0.4470 ca        1 0ME     -0.150500
      6 C6         -0.7870   -3.6570    0.5230 ca        1 0ME     -0.102000
      7 C7         -1.8480   -2.9150    1.0320 ca        1 0ME     -0.140500
      8 C8         -0.1450   -1.8060   -0.8960 ca        1 0ME     -0.098000
      9 C9         -2.7780    0.8470   -0.5280 ca        1 0ME     -0.128300
     10 C10        -3.5660    0.1800    0.4200 ca        1 0ME      0.122100
     11 C11        -4.8620    0.6190    0.7380 ca        1 0ME     -0.140500
     12 C12        -5.3670    1.7400    0.0880 ca        1 0ME     -0.102000
     13 C13        -4.6010    2.4070   -0.8710 ca        1 0ME     -0.150500
     14 C14        -3.3170    1.9630   -1.1770 ca        1 0ME     -0.098000
     15 C15        -0.4010    1.3560   -0.1380 c3        1 0ME      0.094000
     16 N16         0.9690    1.1940   -0.5310 n         1 0ME     -0.572900
     17 C17         2.0070    1.1870    0.3830 c         1 0ME      0.663100
     18 O18         1.8060    1.4230    1.5890 o         1 0ME     -0.597100
     19 C19         3.4030    0.9190   -0.1700 c3        1 0ME     -0.172700
     20 C20         4.4580    1.3310    0.8470 c3        1 0ME     -0.070400
     21 C21         5.8450    0.9380    0.3840 c3        1 0ME     -0.115400
     22 C22         5.8990   -0.5470    0.0170 c3        1 0ME      0.146800
     23 N23         4.8720   -0.9860   -0.9100 n3        1 0ME     -0.794200
     24 C24         3.5440   -0.5780   -0.5000 c3        1 0ME      0.155800
     25 H1         -1.2280    0.4350   -1.9460 hc        1 0ME      0.061700
     26 H2          0.8830   -3.7080   -0.8550 ha        1 0ME      0.136500
     27 H3         -0.6180   -4.6830    0.8820 ha        1 0ME      0.137500
     28 H4         -2.5300   -3.3310    1.7860 ha        1 0ME      0.152500
     29 H5          0.5210   -1.3860   -1.6650 ha        1 0ME      0.129500
     30 H6         -5.4500    0.0770    1.4920 ha        1 0ME      0.152500
     31 H7         -6.3780    2.0990    0.3300 ha        1 0ME      0.137500
     32 H8         -5.0120    3.2880   -1.3850 ha        1 0ME      0.136500
     33 H9         -2.7140    2.4930   -1.9300 ha        1 0ME      0.129500
     34 H10        -0.7250    2.4060   -0.4030 h1        1 0ME      0.068700
     35 H11        -0.4840    1.2360    0.9810 h1        1 0ME      0.068700
     36 H12         1.1480    0.9070   -1.4630 hn        1 0ME      0.301500
     37 H13         3.5520    1.5230   -1.1080 hc        1 0ME      0.060700
     38 H14         4.4050    2.4390    1.0090 hc        1 0ME      0.062700
     39 H15         4.2280    0.8420    1.8310 hc        1 0ME      0.062700
     40 H16         6.1410    1.5590   -0.5010 hc        1 0ME      0.046200
     41 H17         6.5840    1.1390    1.2000 hc        1 0ME      0.046200
     42 H18         6.9030   -0.7850   -0.4310 h1        1 0ME      0.055700
     43 H19         5.7850   -1.1560    0.9580 h1        1 0ME      0.055700
     44 H20         5.0690   -0.6250   -1.8270 hn        1 0ME      0.347800
     45 H22         3.2740   -1.1720    0.4190 h1        1 0ME      0.058200
     46 H23         2.8220   -0.8520   -1.3190 h1        1 0ME      0.058200
@<TRIPOS>BOND
     1    1    2 ar  
     2    1    4 1   
     3    1    8 ar  
     4    2    3 1   
     5    2    7 ar  
     6    3   10 1   
     7    4    9 1   
     8    4   15 1   
     9    4   25 1   
    10    5    6 ar  
    11    5    8 ar  
    12    5   26 1   
    13    6    7 ar  
    14    6   27 1   
    15    7   28 1   
    16    8   29 1   
    17    9   10 ar  
    18    9   14 ar  
    19   10   11 ar  
    20   11   12 ar  
    21   11   30 1   
    22   12   13 ar  
    23   12   31 1   
    24   13   14 ar  
    25   13   32 1   
    26   14   33 1   
    27   15   16 1   
    28   15   34 1   
    29   15   35 1   
    30   16   17 1   
    31   16   36 1   
    32   17   18 2   
    33   17   19 1   
    34   19   20 1   
    35   19   24 1   
    36   19   37 1   
    37   20   21 1   
    38   20   38 1   
    39   20   39 1   
    40   21   22 1   
    41   21   40 1   
    42   21   41 1   
    43   22   23 1   
    44   22   42 1   
    45   22   43 1   
    46   23   24 1   
    47   23   44 1   
    48   24   45 1   
    49   24   46 1   
@<TRIPOS>SUBSTRUCTURE
     1 0ME         1 TEMP              0 ****  ****    0 ROOT
