@<TRIPOS>MOLECULE
0ME
   46    41     1     0     0
SMALL
bcc


@<TRIPOS>ATOM
      1 C1          3.2580    0.1810   -0.6700 c1        1 0ME     -0.023000
      2 C2          4.3190    0.0030    0.2150 c1        1 0ME     -0.023000
      3 O3          4.1140   -0.7520    1.4770 o         1 0ME     -0.142000
      4 C4          1.8450   -0.2630   -0.2650 c2        1 0ME     -0.034000
      5 C5          4.7570    1.1610   -2.2990 c1        1 0ME     -0.124667
      6 C6          5.8510    0.9760   -1.3810 c1        1 0ME     -0.124667
      7 C7          5.6260    0.4070   -0.1500 c1        1 0ME     -0.119000
      8 C8          3.4870    0.7680   -1.9420 c1        1 0ME     -0.119000
      9 C9          1.6430   -0.8920    1.0840 c1        1 0ME     -0.117000
     10 C10         2.7340   -1.0450    1.9530 c1        1 0ME      0.078000
     11 C11         2.5600   -1.7030    3.1970 c1        1 0ME     -0.124667
     12 C12         1.2890   -2.2030    3.5620 c1        1 0ME     -0.124667
     13 C13         0.2270   -2.0530    2.7160 c1        1 0ME     -0.124667
     14 C14         0.4040   -1.3790    1.4390 c1        1 0ME     -0.124667
     15 C15         0.8870    1.0330   -0.3450 c3        1 0ME     -0.024000
     16 N16        -0.2840    0.7130   -1.1040 n3        1 0ME     -0.376000
     17 C17        -1.5110    1.3240   -0.8000 c1        1 0ME      0.305000
     18 O18        -1.5570    2.5260   -0.5840 o         1 0ME     -0.362000
     19 C19        -2.6900    0.5920   -0.9080 c2        1 0ME     -0.154000
     20 C20        -3.3140    0.1020    0.4780 c3        1 0ME     -0.156000
     21 C21        -4.5010   -0.6990    0.3170 c3        1 0ME     -0.194000
     22 C22        -5.0750   -0.5040   -0.8840 c3        1 0ME     -0.087000
     23 N23        -5.1850    0.6050   -1.4700 n3        1 0ME     -0.272000
     24 C24        -3.9890    1.4340   -1.3130 c3        1 0ME     -0.081000
     25 H1          1.5600   -0.8510   -0.8800 ha        1 0ME      0.102000
     26 H2          4.9070    1.5390   -3.1170 ha        1 0ME      0.137333
     27 H3          6.8200    1.2740   -1.6490 ha        1 0ME      0.137333
     28 H4          6.3390    0.2870    0.4500 ha        1 0ME      0.144000
     29 H5          2.6920    0.9020   -2.6060 ha        1 0ME      0.144000
     30 H6          3.3560   -1.8170    3.8290 ha        1 0ME      0.137333
     31 H7          1.1770   -2.6310    4.3740 ha        1 0ME      0.137333
     32 H8         -0.6460   -2.3980    2.9690 ha        1 0ME      0.137333
     33 H9         -0.3540   -1.2700    0.8330 ha        1 0ME      0.137333
     34 H10         1.4020    1.8230   -0.8120 h1        1 0ME      0.108500
     35 H11         0.6270    1.3010    0.5600 h1        1 0ME      0.108500
     36 H12        -0.2250    0.1220   -1.8220 hn        1 0ME      0.215000
     37 H13        -2.4440   -0.1500   -1.5560 ha        1 0ME      0.101000
     38 H14        -3.5380    0.8870    1.0140 hc        1 0ME      0.091000
     39 H15        -2.6970   -0.3800    0.9170 hc        1 0ME      0.091000
     40 H16        -4.2740   -1.5840    0.3970 hc        1 0ME      0.083500
     41 H17        -5.1430   -0.4660    1.0210 hc        1 0ME      0.083500
     42 H18        -4.5990   -1.0870   -1.5030 h1        1 0ME      0.092000
     43 H19        -5.9840   -0.8560   -0.8070 h1        1 0ME      0.092000
     44 H20        -5.8990    1.0420   -1.1540 hn        1 0ME      0.151000
     45 H22        -4.1550    2.0890   -0.6280 h1        1 0ME      0.108500
     46 H23        -3.8160    1.8940   -2.1520 h1        1 0ME      0.108500
@<TRIPOS>BOND
     1    1    2 1   
     2    1    8 1   
     3    2    7 1   
     4    3   10 1   
     5    4    9 1   
     6    4   15 1   
     7    4   25 1   
     8    5    6 1   
     9    5   26 1   
    10    6   27 1   
    11    7   28 1   
    12    8   29 1   
    13    9   10 1   
    14   11   12 1   
    15   11   30 1   
    16   12   31 1   
    17   13   14 1   
    18   13   32 1   
    19   14   33 1   
    20   15   16 1   
    21   15   34 1   
    22   15   35 1   
    23   16   17 1   
    24   16   36 1   
    25   17   18 1   
    26   19   20 1   
    27   19   24 1   
    28   19   37 1   
    29   20   21 1   
    30   20   38 1   
    31   20   39 1   
    32   21   22 1   
    33   21   40 1   
    34   21   41 1   
    35   22   23 1   
    36   22   42 1   
    37   22   43 1   
    38   23   24 1   
    39   23   44 1   
    40   24   45 1   
    41   24   46 1   
@<TRIPOS>SUBSTRUCTURE
     1 0ME         1 TEMP              0 ****  ****    0 ROOT
