@<TRIPOS>MOLECULE
0MF
   64    65     1     0     0
SMALL
bcc


@<TRIPOS>ATOM
      1 C1         -0.2050    1.0140   -0.6170 c1        1 0MF     -0.226000
      2 C2          0.4280    1.0950    0.3980 c1        1 0MF     -0.122000
      3 C3          0.9180    1.9670   -7.1250 c2        1 0MF     -0.483000
      4 C4         -0.1670   -1.4960    1.9770 c2        1 0MF     -0.121000
      5 C5          1.1970    1.2440    1.5570 c2        1 0MF     -0.178000
      6 C6          0.1830    2.0340   -5.8910 c2        1 0MF      0.014000
      7 C7         -2.4420    3.7560   -1.4960 ca        1 0MF     -0.360000
      8 C8         -2.4770    6.2420   -0.5130 ca        1 0MF      0.031000
      9 C9          1.5110    2.9720   -7.7540 c1        1 0MF      0.293000
     10 C10         0.0010   -0.5160    2.8760 c2        1 0MF     -0.050000
     11 C11        -2.3030   -0.2590    4.0540 c2        1 0MF     -0.231000
     12 C12        -3.3850    4.0660   -0.5180 ca        1 0MF      0.216000
     13 C13        -1.7620    4.8060   -2.2620 ca        1 0MF      0.316000
     14 C14        -1.7920    6.1600   -1.7860 ca        1 0MF     -0.349000
     15 C15         1.0190    0.5320    2.6960 c2        1 0MF      0.113000
     16 C16        -3.6660    5.5240   -0.5850 ca        1 0MF     -0.222000
     17 C17        -0.8410   -0.4360    4.0660 c2        1 0MF     -0.027000
     18 C18        -0.1240    3.2050   -5.2810 c2        1 0MF     -0.099000
     19 C19        -2.6660   -0.2620    5.3890 c2        1 0MF      0.016000
     20 C21        -0.8800    3.2250   -3.9950 c2        1 0MF      0.356000
     21 C22        -3.9600    1.7910    0.1740 c3        1 0MF     -0.074000
     22 C23        -2.5800    3.0900    3.0560 c1        1 0MF     -0.063000
     23 C24        -4.6150    1.0160    1.3380 c3        1 0MF     -0.040000
     24 C25        -3.6690    2.1700    3.3150 c3        1 0MF     -0.107000
     25 C26        -3.9160   -0.1440    6.1380 c3        1 0MF     -0.175000
     26 C27         2.7610    1.7270    3.8080 c3        1 0MF     -0.082000
     27 N28        -0.4360   -0.5250    5.3500 n2        1 0MF      0.020000
     28 N29        -3.9950    3.2220    0.3510 nh        1 0MF     -0.281000
     29 N30        -3.8450    0.9490    2.5540 n         1 0MF     -0.356000
     30 N31        -1.0410    4.4810   -3.3890 n         1 0MF     -0.304000
     31 N32        -1.1030    7.3020   -2.3500 no        1 0MF      0.602000
     32 O33        -1.1170    8.3430   -1.7460 o         1 0MF     -0.393000
     33 O34        -3.2440   -1.2190    2.1080 o         1 0MF     -0.351000
     34 O35        -1.3290    2.1670   -3.5180 o         1 0MF     -0.340000
     35 O36        -0.5330    7.2180   -3.4170 o         1 0MF     -0.393000
     36 O37         0.3650    4.3960   -5.7860 oh        1 0MF     -0.262000
     37 O38        -1.4840   -0.4260    6.1450 os        1 0MF     -0.056000
     38 O39         1.7790    0.6980    3.8340 os        1 0MF     -0.193000
     39 CL4        -4.8780    5.9200   -1.7130 cl        1 0MF     -0.014000
     40 H1         -0.9530   -2.2580    2.0850 ha        1 0MF      0.142500
     41 H2         -0.7490    0.9460   -1.5280 ha        1 0MF      0.236000
     42 H4          0.4570   -1.5670    1.0750 ha        1 0MF      0.142500
     43 H5          1.9880    2.0130    1.4870 ha        1 0MF      0.151000
     44 H6         -0.1330    1.0810   -5.4300 ha        1 0MF      0.167000
     45 H7         -2.1600    2.7090   -1.6770 ha        1 0MF      0.186000
     46 H8         -1.9610    6.5330    0.4070 ha        1 0MF      0.173000
     47 H9         -0.3730    4.8430   -6.2330 ho        1 0MF      0.228000
     48 H10        -4.5140    1.5100   -0.7700 h1        1 0MF      0.111000
     49 H11        -2.8850    1.4670    0.0490 h1        1 0MF      0.111000
     50 H12        -4.7350    3.5990    0.9020 hn        1 0MF      0.240000
     51 H13        -1.8050    2.8410    2.3200 ha        1 0MF      0.076000
     52 H14        -5.6190    1.4710    1.5800 h1        1 0MF      0.114500
     53 H15        -4.7930   -0.0350    0.9600 h1        1 0MF      0.114500
     54 H16        -4.6260    2.7770    3.2300 h1        1 0MF      0.151000
     55 H17        -3.5660    1.9070    4.4200 h1        1 0MF      0.151000
     56 H18        -3.9330    0.8210    6.7070 hc        1 0MF      0.113667
     57 H19        -4.7870   -0.1740    5.4380 hc        1 0MF      0.113667
     58 H20        -4.0070   -0.9850    6.8730 hc        1 0MF      0.113667
     59 H21         3.2050    1.6830    4.8350 h1        1 0MF      0.088667
     60 H22         2.2880    2.7220    3.6240 h1        1 0MF      0.088667
     61 H23         3.5360    1.5110    3.0330 h1        1 0MF      0.088667
     62 H24        -0.5340    5.2290   -3.8430 hn        1 0MF      0.289000
     63 C20        -3.1420   -0.2190    2.8470 c2        1 0MF      0.383000
     64 H3          0.9980    0.9580   -7.5860 ha        1 0MF      0.200000
@<TRIPOS>BOND
     1    1    2 1   
     2    1   41 1   
     3    2    5 1   
     4    3    6 1   
     5    3    9 1   
     6    3   64 1   
     7    4   10 1   
     8    4   40 1   
     9    4   42 1   
    10    5   15 1   
    11    5   43 1   
    12    6   18 1   
    13    6   44 1   
    14    7   12 1   
    15    7   13 1   
    16    7   45 1   
    17    8   14 1   
    18    8   16 1   
    19    8   46 1   
    20   10   15 1   
    21   10   17 1   
    22   11   17 1   
    23   11   19 1   
    24   11   63 1   
    25   12   16 1   
    26   12   28 1   
    27   13   14 1   
    28   13   30 1   
    29   14   31 1   
    30   15   38 1   
    31   16   39 1   
    32   17   27 1   
    33   18   20 1   
    34   18   36 1   
    35   19   25 1   
    36   19   37 1   
    37   20   30 1   
    38   20   34 1   
    39   21   23 1   
    40   21   28 1   
    41   21   48 1   
    42   21   49 1   
    43   22   24 1   
    44   22   51 1   
    45   23   29 1   
    46   23   52 1   
    47   23   53 1   
    48   24   29 1   
    49   24   54 1   
    50   24   55 1   
    51   25   56 1   
    52   25   57 1   
    53   25   58 1   
    54   26   38 1   
    55   26   59 1   
    56   26   60 1   
    57   26   61 1   
    58   27   37 1   
    59   28   50 1   
    60   29   63 1   
    61   30   62 1   
    62   31   32 1   
    63   31   35 1   
    64   33   63 1   
    65   36   47 1   
@<TRIPOS>SUBSTRUCTURE
     1 0MF         1 TEMP              0 ****  ****    0 ROOT
