@<TRIPOS>MOLECULE
0MF
   64    66     1     0     0
SMALL
bcc


@<TRIPOS>ATOM
      1 C1         -1.0620   -2.0610   -0.2440 c3        1 0MF     -0.224000
      2 C2          1.4030   -0.1670   -1.1940 c1        1 0MF      0.087000
      3 C3          3.2150    2.1190   -4.0300 c2        1 0MF     -0.450000
      4 C4         -1.2630   -1.6760    1.1570 c2        1 0MF      0.027000
      5 C5          0.9470   -0.0530   -0.0310 c1        1 0MF     -0.673000
      6 C6          2.1490    2.5130   -3.1450 c2        1 0MF     -0.090000
      7 C7         -2.3520    4.0690   -0.9750 ca        1 0MF     -0.219000
      8 C8         -4.1910    5.9280   -1.9130 ca        1 0MF     -0.040000
      9 C9          4.0280    2.8540   -4.7590 c1        1 0MF      0.204000
     10 C10        -0.5790   -0.7170    1.8300 c2        1 0MF     -0.138000
     11 C11        -2.1880   -0.0450    3.7720 c2        1 0MF     -0.228000
     12 C12        -3.5520    4.2490   -0.2750 ca        1 0MF      0.109000
     13 C13        -2.0220    4.7950   -2.1450 ca        1 0MF      0.181000
     14 C14        -2.9830    5.7420   -2.6110 ca        1 0MF     -0.194000
     15 C15         0.4630    0.1040    1.2220 c2        1 0MF      0.416000
     16 C16        -4.4840    5.1990   -0.7700 ca        1 0MF     -0.104000
     17 C17        -0.8900   -0.4790    3.2380 c2        1 0MF     -0.034000
     18 C18         1.4010    3.6290   -3.2810 c2        1 0MF     -0.042000
     19 C19        -1.9950    0.0330    5.1400 c2        1 0MF      0.031000
     20 C21         0.3040    3.9300   -2.3030 c2        1 0MF      0.378000
     21 C22        -4.7170    2.3900    0.7340 c3        1 0MF     -0.085000
     22 C23        -2.6990    3.2750    1.7810 c3        1 0MF     -0.085000
     23 C24        -5.0920    1.7010    2.0650 c3        1 0MF     -0.044000
     24 C25        -3.1210    2.6170    3.1160 c3        1 0MF     -0.044000
     25 C26        -2.8190    0.3740    6.2970 c3        1 0MF     -0.175000
     26 C27         1.9150    1.9620    1.4980 c3        1 0MF     -0.083000
     27 N28        -0.0330   -0.6270    4.2700 n2        1 0MF      0.007000
     28 N29        -3.8470    3.5460    0.9270 nh        1 0MF     -0.235000
     29 N30        -3.9600    1.4510    2.9370 n         1 0MF     -0.298000
     30 N31        -0.8280    4.5580   -2.8210 n         1 0MF     -0.315000
     31 N32        -2.7890    6.5760   -3.8220 no        1 0MF      0.576000
     32 O33        -3.4260    7.5910   -3.9230 o         1 0MF     -0.362000
     33 O34        -3.9990   -0.8020    2.4510 o         1 0MF     -0.350000
     34 O35         0.4200    3.5990   -1.1090 o         1 0MF     -0.351000
     35 O36        -2.0290    6.2270   -4.6890 o         1 0MF     -0.362000
     36 O37         1.5470    4.5980   -4.2480 oh        1 0MF     -0.255000
     37 O38        -0.6530   -0.3340    5.3950 os        1 0MF     -0.054000
     38 O39         0.8960    1.1010    2.0320 os        1 0MF     -0.187000
     39 CL4        -5.9600    5.4880    0.0150 cl        1 0MF      0.019000
     40 H1         -2.0650   -2.2190    1.7000 ha        1 0MF      0.161000
     41 H2         -1.7920   -2.8480   -0.5530 hc        1 0MF      0.115000
     42 H4         -0.0190   -2.4500   -0.3960 hc        1 0MF      0.115000
     43 H5         -1.1760   -1.1730   -0.9220 hc        1 0MF      0.115000
     44 H6          1.9270    1.8080   -2.3160 ha        1 0MF      0.192000
     45 H7         -1.6270    3.3220   -0.6010 ha        1 0MF      0.183000
     46 H8         -4.9170    6.6800   -2.2810 ha        1 0MF      0.185000
     47 H9          2.0520    4.2170   -4.9870 ho        1 0MF      0.231000
     48 H10        -4.2390    1.6290    0.0530 h1        1 0MF      0.094000
     49 H11        -5.6690    2.7460    0.2490 h1        1 0MF      0.094000
     50 H12        -1.9400    2.6050    1.2830 h1        1 0MF      0.094000
     51 H13        -2.2010    4.2560    2.0140 h1        1 0MF      0.094000
     52 H14        -5.8060    2.3620    2.6340 h1        1 0MF      0.114500
     53 H15        -5.6100    0.7320    1.8200 h1        1 0MF      0.114500
     54 H16        -3.7090    3.3610    3.7260 h1        1 0MF      0.114500
     55 H17        -2.1860    2.3540    3.6820 h1        1 0MF      0.114500
     56 H18        -3.4480    1.2700    6.0650 hc        1 0MF      0.115667
     57 H19        -2.1800    0.5920    7.1900 hc        1 0MF      0.115667
     58 H20        -3.4960   -0.4840    6.5450 hc        1 0MF      0.115667
     59 H21         2.0990    2.6830    2.3340 h1        1 0MF      0.111000
     60 H22         2.8290    1.3650    1.2640 h1        1 0MF      0.111000
     61 H23         1.5340    2.4780    0.5820 h1        1 0MF      0.111000
     62 H24        -0.7360    4.9120   -3.7580 hn        1 0MF      0.286000
     63 C20        -3.4180    0.1620    2.9890 c2        1 0MF      0.370000
     64 H3          3.3870    1.0150   -4.0630 ha        1 0MF      0.218000
@<TRIPOS>BOND
     1    1    4 1   
     2    1   41 1   
     3    1   42 1   
     4    1   43 1   
     5    2    5 1   
     6    3    6 1   
     7    3    9 1   
     8    3   64 1   
     9    4   10 1   
    10    4   40 1   
    11    5   15 1   
    12    6   18 1   
    13    6   44 1   
    14    7   12 1   
    15    7   13 1   
    16    7   45 1   
    17    8   14 1   
    18    8   16 1   
    19    8   46 1   
    20   10   15 1   
    21   10   17 1   
    22   11   17 1   
    23   11   19 1   
    24   11   63 1   
    25   12   16 1   
    26   12   28 1   
    27   13   14 1   
    28   13   30 1   
    29   14   31 1   
    30   15   38 1   
    31   16   39 1   
    32   17   27 1   
    33   18   20 1   
    34   18   36 1   
    35   19   25 1   
    36   19   37 1   
    37   20   30 1   
    38   20   34 1   
    39   21   23 1   
    40   21   28 1   
    41   21   48 1   
    42   21   49 1   
    43   22   24 1   
    44   22   28 1   
    45   22   50 1   
    46   22   51 1   
    47   23   29 1   
    48   23   52 1   
    49   23   53 1   
    50   24   29 1   
    51   24   54 1   
    52   24   55 1   
    53   25   56 1   
    54   25   57 1   
    55   25   58 1   
    56   26   38 1   
    57   26   59 1   
    58   26   60 1   
    59   26   61 1   
    60   27   37 1   
    61   29   63 1   
    62   30   62 1   
    63   31   32 1   
    64   31   35 1   
    65   33   63 1   
    66   36   47 1   
@<TRIPOS>SUBSTRUCTURE
     1 0MF         1 TEMP              0 ****  ****    0 ROOT
