@<TRIPOS>MOLECULE
0MF
   64    54     1     0     0
SMALL
bcc


@<TRIPOS>ATOM
      1 C1          4.1420   -4.7330    0.4470 c1        1 0MF     -0.132750
      2 C2          3.9780   -5.8020   -0.4280 c1        1 0MF     -0.132750
      3 C3          0.9600    9.5880   -0.1970 c1        1 0MF     -0.150500
      4 C4          3.0260   -4.1230    1.0200 c1        1 0MF     -0.132750
      5 C5          2.7010   -6.2630   -0.7320 c1        1 0MF     -0.132750
      6 C6          1.6610    8.4110   -0.2230 c1        1 0MF     -0.150500
      7 C7         -0.9480    2.8800   -0.4150 c1        1 0MF     -0.215000
      8 C8         -1.2660    3.3730   -3.1370 c1        1 0MF     -0.046000
      9 C9         -0.2480    9.3520    0.4360 c1        1 0MF     -0.083500
     10 C10         1.7510   -4.5830    0.7160 c1        1 0MF      0.019000
     11 C11         0.0980   -3.0730    2.5190 c1        1 0MF     -0.228000
     12 C12        -1.3090    1.8410   -1.2730 c1        1 0MF      0.110000
     13 C13        -0.7470    4.1650   -0.9200 c1        1 0MF      0.163000
     14 C14        -0.9060    4.4100   -2.2790 c1        1 0MF     -0.146000
     15 C15         1.5870   -5.6540   -0.1610 c1        1 0MF      0.019000
     16 C16        -1.4670    2.0890   -2.6340 c2        1 0MF     -0.099000
     17 C17         1.0800   -3.7540    1.8190 c1        1 0MF     -0.013000
     18 C18         0.8890    7.4410    0.3950 c1        1 0MF     -0.083500
     19 C19        -0.6140   -3.9960    3.2590 c1        1 0MF      0.024000
     20 C20        -1.0130   -2.0140    2.5490 c1        1 0MF      0.378000
     21 C21         0.3690    6.3690   -0.5560 c1        1 0MF      0.405000
     22 C22        -2.3370    0.7260    0.5400 c3        1 0MF     -0.080500
     23 C23        -0.5100   -0.2890   -0.6260 c3        1 0MF     -0.080500
     24 C24        -2.6230   -0.6020    1.2350 c3        1 0MF     -0.037500
     25 C25        -0.8060   -1.6120    0.0760 c3        1 0MF     -0.037500
     26 C26        -1.6730   -4.7870    4.0360 c2        1 0MF     -0.172000
     27 C27         0.7270   -6.4490   -2.2430 c3        1 0MF     -0.077000
     28 N28         0.9740   -5.0700    2.1230 n2        1 0MF      0.003000
     29 N29        -1.6790    0.5460   -0.7280 n2        1 0MF     -0.239000
     30 N30        -1.4680   -1.4240    1.3190 n3        1 0MF     -0.309000
     31 N31        -0.3520    5.2350   -0.0360 n3        1 0MF     -0.338000
     32 N32        -0.4110    4.8260   -3.5540 no        1 0MF      0.585000
     33 O33         0.1780    4.0260   -4.2750 o         1 0MF     -0.353000
     34 O34        -1.6280   -1.8120    3.5780 o         1 0MF     -0.350000
     35 O35         0.6440    6.4220   -1.7390 o         1 0MF     -0.329000
     36 O36        -0.6370    6.1030   -3.9920 o         1 0MF     -0.353000
     37 O37        -0.2860    8.0260    0.7990 os        1 0MF     -0.110000
     38 O38        -0.0830   -5.2230    3.0220 os        1 0MF     -0.059000
     39 O39         0.6190   -6.4660   -0.8250 o         1 0MF     -0.203000
     40 CL4        -1.9750    0.4880   -3.1150 cl        1 0MF      0.016000
     41 H1          5.0400   -4.4080    0.6620 ha        1 0MF      0.145500
     42 H2          4.7620   -6.2300   -0.8300 ha        1 0MF      0.145500
     43 H3          1.2620   10.4470   -0.5640 DU        1 0MF      0.184000
     44 H4          3.1410   -3.3700    1.6360 ha        1 0MF      0.145500
     45 H5          2.5860   -7.0170   -1.3490 ha        1 0MF      0.145500
     46 H6          2.5530    8.2780   -0.6100 DU        1 0MF      0.184000
     47 H7         -0.8360    2.7070    0.5450 ha        1 0MF      0.155000
     48 H8         -1.3780    3.5460   -4.0970 ha        1 0MF      0.185000
     49 H9         -0.9520   10.0130    0.5970 DU        1 0MF      0.184000
     50 H10        -1.7660    1.2700    1.1190 h1        1 0MF      0.093500
     51 H11        -3.1870    1.1990    0.3940 h1        1 0MF      0.093500
     52 H12         0.1840    0.1940   -0.1200 h1        1 0MF      0.093500
     53 H13        -0.1740   -0.4760   -1.5270 h1        1 0MF      0.093500
     54 H14        -3.3220   -1.0820    0.7310 h1        1 0MF      0.113000
     55 H15        -2.9500   -0.4220    2.1400 h1        1 0MF      0.113000
     56 H16        -1.3720   -2.1610   -0.5050 h1        1 0MF      0.113000
     57 H17         0.0380   -2.0840    0.2340 h1        1 0MF      0.113000
     58 H18        -2.5670   -4.4370    3.8230 ha        1 0MF      0.112667
     59 H19        -1.5070   -4.6970    5.0010 ha        1 0MF      0.112667
     60 H20        -1.6240   -5.7370    3.7830 ha        1 0MF      0.112667
     61 H21         1.1480   -5.6060   -2.5290 h1        1 0MF      0.087333
     62 H22        -0.1670   -6.5190   -2.6400 h1        1 0MF      0.087333
     63 H23         1.2780   -7.2070   -2.5390 h1        1 0MF      0.087333
     64 H24        -0.5910    5.2100    0.8500 hn        1 0MF      0.255000
@<TRIPOS>BOND
     1    1    4 1   
     2    1   41 1   
     3    2    5 1   
     4    2   42 1   
     5    3    6 1   
     6    3    9 1   
     7    4   44 1   
     8    5   45 1   
     9    6   18 1   
    10    7   12 1   
    11    7   47 1   
    12    8   16 1   
    13    8   48 1   
    14    9   37 1   
    15   10   15 1   
    16   11   17 1   
    17   11   19 1   
    18   12   16 1   
    19   13   14 1   
    20   13   31 1   
    21   14   32 1   
    22   16   40 1   
    23   17   28 1   
    24   18   37 1   
    25   19   38 1   
    26   20   30 1   
    27   20   34 1   
    28   21   31 1   
    29   21   35 1   
    30   22   24 1   
    31   22   29 1   
    32   22   50 1   
    33   22   51 1   
    34   23   25 1   
    35   23   29 1   
    36   23   52 1   
    37   23   53 1   
    38   24   30 1   
    39   24   54 1   
    40   24   55 1   
    41   25   30 1   
    42   25   56 1   
    43   25   57 1   
    44   26   58 1   
    45   26   59 1   
    46   26   60 1   
    47   27   39 1   
    48   27   61 1   
    49   27   62 1   
    50   27   63 1   
    51   28   38 1   
    52   31   64 1   
    53   32   33 1   
    54   32   36 1   
@<TRIPOS>SUBSTRUCTURE
     1 0MF         1 TEMP              0 ****  ****    0 ROOT
