@<TRIPOS>MOLECULE
0MF
   64    68     1     0     0
SMALL
bcc


@<TRIPOS>ATOM
      1 C1          3.4720    3.2980   -1.2100 ca        1 0MF     -0.168000
      2 C2          3.1520    3.9440   -0.0180 ca        1 0MF     -0.080000
      3 C3         -5.9860    4.5560   -2.6500 cc        1 0MF     -0.283300
      4 C4          4.0920    2.0500   -1.1840 ca        1 0MF     -0.069000
      5 C5          3.4360    3.3460    1.2080 ca        1 0MF     -0.213000
      6 C6         -4.9710    3.5520   -2.8570 cc        1 0MF     -0.154300
      7 C7         -2.1890   -0.2620   -0.0050 ca        1 0MF     -0.228000
      8 C8         -3.2460   -1.7860    2.0630 ca        1 0MF     -0.032000
      9 C9         -6.4460    4.3950   -1.3550 cd        1 0MF      0.285600
     10 C10         4.4020    1.4340    0.0340 ca        1 0MF     -0.180500
     11 C11         4.6700   -1.0510   -0.7050 cc        1 0MF     -0.378200
     12 C12        -1.4430   -1.3480    0.4840 ca        1 0MF      0.217600
     13 C13        -3.4640    0.0900    0.4950 ca        1 0MF      0.179600
     14 C14        -3.9800   -0.6890    1.5740 ca        1 0MF     -0.252200
     15 C15         4.0570    2.0890    1.2380 ca        1 0MF      0.155100
     16 C16        -2.0110   -2.1240    1.5330 ca        1 0MF     -0.043600
     17 C17         5.0850    0.1500    0.0360 cc        1 0MF      0.423800
     18 C18        -4.8730    2.8380   -1.6730 cd        1 0MF      0.157200
     19 C19         5.6330   -1.9980   -0.4040 cd        1 0MF      0.311000
     20 C21        -4.0090    1.7030   -1.3160 c         1 0MF      0.613600
     21 C22         0.0330   -1.2880   -1.4570 c3        1 0MF      0.158800
     22 C23         0.9690   -1.5830    0.7580 c3        1 0MF      0.158800
     23 C24         1.2600   -2.0030   -2.0710 c3        1 0MF      0.079500
     24 C25         2.2000   -2.2930    0.1460 c3        1 0MF      0.079500
     25 C26         5.8880   -3.3880   -0.7790 c3        1 0MF     -0.148400
     26 C27         4.2400    2.1480    3.6110 c3        1 0MF      0.113700
     27 N28         6.2200   -0.1390    0.7080 nd        1 0MF     -0.334300
     28 N29        -0.2080   -1.7200   -0.0880 nh        1 0MF     -0.641000
     29 N30         2.4420   -1.9510   -1.2360 n         1 0MF     -0.453800
     30 N31        -4.1700    1.1690   -0.0360 n         1 0MF     -0.468100
     31 N32        -5.2830   -0.4260    2.2270 no        1 0MF      0.323200
     32 O33        -5.7880   -1.3070    2.8720 o         1 0MF     -0.218000
     33 O34         3.5560   -0.6380   -2.7560 o         1 0MF     -0.589100
     34 O35        -3.1890    1.2640   -2.1430 o         1 0MF     -0.578100
     35 O36        -5.8120    0.6530    2.1310 o         1 0MF     -0.218000
     36 O37        -5.7810    3.3470   -0.7300 os        1 0MF     -0.353800
     37 O38         6.5630   -1.3890    0.4690 os        1 0MF     -0.116100
     38 O39         4.3240    1.4000    2.4020 os        1 0MF     -0.319900
     39 CL4        -1.2440   -3.5110    2.1460 cl        1 0MF     -0.066400
     40 H1          3.2390    3.7710   -2.1760 ha        1 0MF      0.141000
     41 H2          2.6700    4.9330   -0.0400 ha        1 0MF      0.135000
     42 H4          4.3370    1.5310   -2.1270 ha        1 0MF      0.167000
     43 H5          3.1740    3.8630    2.1410 ha        1 0MF      0.140000
     44 H6         -4.3950    3.3870   -3.7660 ha        1 0MF      0.182000
     45 H7         -1.7640    0.3490   -0.8230 ha        1 0MF      0.186000
     46 H8         -3.6750   -2.4000    2.8800 ha        1 0MF      0.184000
     47 H9         -7.1890    4.8870   -0.7320 h4        1 0MF      0.064100
     48 H10         0.2000   -0.1730   -1.5180 h1        1 0MF      0.058200
     49 H11        -0.8680   -1.5460   -2.0790 h1        1 0MF      0.058200
     50 H12         0.7670   -2.0490    1.7620 h1        1 0MF      0.058200
     51 H13         1.2180   -0.4940    0.9220 h1        1 0MF      0.058200
     52 H14         1.0090   -3.0900   -2.2320 h1        1 0MF      0.072700
     53 H15         1.4710   -1.5280   -3.0710 h1        1 0MF      0.072700
     54 H16         3.0910   -2.0360    0.7840 h1        1 0MF      0.072700
     55 H17         2.0360   -3.4080    0.1940 h1        1 0MF      0.072700
     56 H18         6.2930   -3.4290   -1.8240 hc        1 0MF      0.073367
     57 H19         6.6350   -3.8540   -0.0890 hc        1 0MF      0.073367
     58 H20         4.9360   -3.9740   -0.7420 hc        1 0MF      0.073367
     59 H21         4.8710    3.0670    3.5580 h1        1 0MF      0.047033
     60 H22         3.1770    2.4120    3.8310 h1        1 0MF      0.047033
     61 H23         4.6370    1.4380    4.3810 h1        1 0MF      0.047033
     62 H24        -4.8990    1.5700    0.5250 hn        1 0MF      0.367500
     63 C20         3.5270   -1.1640   -1.6250 c         1 0MF      0.705700
     64 H3         -6.3130    5.2880   -3.3830 ha        1 0MF      0.172000
@<TRIPOS>BOND
     1    1    2 ar  
     2    1    4 ar  
     3    1   40 1   
     4    2    5 ar  
     5    2   41 1   
     6    3    6 1   
     7    3    9 2   
     8    3   64 1   
     9    4   10 ar  
    10    4   42 1   
    11    5   15 ar  
    12    5   43 1   
    13    6   18 2   
    14    6   44 1   
    15    7   12 ar  
    16    7   13 ar  
    17    7   45 1   
    18    8   14 ar  
    19    8   16 ar  
    20    8   46 1   
    21    9   36 1   
    22    9   47 1   
    23   10   15 ar  
    24   10   17 1   
    25   11   17 1   
    26   11   19 2   
    27   11   63 1   
    28   12   16 ar  
    29   12   28 1   
    30   13   14 ar  
    31   13   30 1   
    32   14   31 1   
    33   15   38 1   
    34   16   39 1   
    35   17   27 2   
    36   18   20 1   
    37   18   36 1   
    38   19   25 1   
    39   19   37 1   
    40   20   30 1   
    41   20   34 2   
    42   21   23 1   
    43   21   28 1   
    44   21   48 1   
    45   21   49 1   
    46   22   24 1   
    47   22   28 1   
    48   22   50 1   
    49   22   51 1   
    50   23   29 1   
    51   23   52 1   
    52   23   53 1   
    53   24   29 1   
    54   24   54 1   
    55   24   55 1   
    56   25   56 1   
    57   25   57 1   
    58   25   58 1   
    59   26   38 1   
    60   26   59 1   
    61   26   60 1   
    62   26   61 1   
    63   27   37 1   
    64   29   63 1   
    65   30   62 1   
    66   31   32 1   
    67   31   35 1   
    68   33   63 2   
@<TRIPOS>SUBSTRUCTURE
     1 0MF         1 TEMP              0 ****  ****    0 ROOT
