@<TRIPOS>MOLECULE
0MG
   28    26     1     0     0
SMALL
bcc


@<TRIPOS>ATOM
      1 N          -2.0410   -1.1070    2.2640 n3        1 0MG     -0.890800
      2 CA         -0.6500   -1.3190    2.0170 c3        1 0MG      0.063500
      3 C2          0.0660   -1.5000    3.3230 c         1 0MG      0.455100
      4 O1          0.2010   -0.5570    4.0750 o         1 0MG     -0.520100
      5 C3         -0.0850   -0.1350    1.3030 c3        1 0MG     -0.083400
      6 C4         -0.3650   -0.2560   -0.1750 c3        1 0MG     -0.091400
      7 C5          0.2850    0.9230   -0.9110 c3        1 0MG      0.186800
      8 N2          0.0070    0.8180   -2.3450 nh        1 0MG     -0.814200
      9 C6          0.6070    1.7720   -3.2870 c2        1 0MG      0.993100
     10 N3         -0.1000    2.9420   -3.6520 nh        1 0MG     -0.876800
     11 N4          1.8170    1.5370   -3.7940 n2        1 0MG     -0.831100
     12 C           0.5360   -2.8990    3.7530 c         1 0MG      0.849600
     13 O           1.7630   -3.2220    3.6400 o         1 0MG     -0.843800
     14 OXT        -0.2830   -3.7060    4.2710 o         1 0MG     -0.843800
     15 H          -2.1830   -1.0080    3.1830 hn        1 0MG      0.354300
     16 H1         -0.5320   -2.1390    1.4520 h1        1 0MG      0.061700
     17 H3         -0.5010    0.6810    1.6480 hc        1 0MG      0.071200
     18 H4          0.8720   -0.0950    1.4490 hc        1 0MG      0.071200
     19 H5          0.0110   -1.1070   -0.5150 hc        1 0MG      0.057700
     20 H6         -1.3300   -0.2430   -0.3260 hc        1 0MG      0.057700
     21 H7          1.2480    0.9060   -0.7640 h1        1 0MG      0.079700
     22 H8         -0.0860    1.7730   -0.5630 h1        1 0MG      0.079700
     23 H9         -0.5820    0.1670   -2.6500 hn        1 0MG      0.450800
     24 H10         0.3020    3.5870   -4.1470 hn        1 0MG      0.432800
     25 H11        -0.9380    3.1000   -3.2650 hn        1 0MG      0.432800
     26 H12         2.2730    0.7730   -3.5510 DU        1 0MG      0.273000
     27 H13         2.2030    2.1360   -4.3920 hn        1 0MG      0.470400
     28 H2         -2.5150   -1.8240    1.9590 hn        1 0MG      0.354300
@<TRIPOS>BOND
     1    1    2 1   
     2    1   15 1   
     3    1   28 1   
     4    2    3 1   
     5    2    5 1   
     6    2   16 1   
     7    3    4 2   
     8    3   12 1   
     9    5    6 1   
    10    5   17 1   
    11    5   18 1   
    12    6    7 1   
    13    6   19 1   
    14    6   20 1   
    15    7    8 1   
    16    7   21 1   
    17    7   22 1   
    18    8    9 1   
    19    8   23 1   
    20    9   10 1   
    21    9   11 2   
    22   10   24 1   
    23   10   25 1   
    24   11   27 1   
    25   12   13 1   
    26   12   14 1   
@<TRIPOS>SUBSTRUCTURE
     1 0MG         1 TEMP              0 ****  ****    0 ROOT
