@<TRIPOS>MOLECULE
0MG
   28    27     1     0     0
SMALL
bcc


@<TRIPOS>ATOM
      1 N           2.4990    1.7370    0.4300 n3        1 0MG     -0.891800
      2 CA          1.2840    1.0080    0.1080 c3        1 0MG      0.054500
      3 C2          1.5260   -0.3110   -0.6570 c         1 0MG      0.449100
      4 O1          2.5590   -0.4860   -1.3050 o         1 0MG     -0.529100
      5 C3          0.2870    1.8920   -0.6720 c3        1 0MG     -0.067400
      6 C4         -1.1040    1.9380   -0.0520 c3        1 0MG     -0.078400
      7 C5         -1.6570    0.5230   -0.0470 c3        1 0MG     -0.057700
      8 N2         -3.0590    0.3450    0.2670 nh        1 0MG     -0.374100
      9 C6         -3.5390   -0.9510    0.4300 cz        1 0MG      0.483300
     10 N3         -2.8050   -2.0380    0.0650 nh        1 0MG     -0.493700
     11 N4         -4.8250   -1.1240    0.9460 nh        1 0MG     -0.493700
     12 C           0.4320   -1.3520   -0.5040 c         1 0MG      0.831600
     13 O          -0.3160   -1.6330   -1.4910 o         1 0MG     -0.830800
     14 OXT         0.1790   -1.8240    0.6450 o         1 0MG     -0.830800
     15 H           3.1030    1.1480    0.9730 hn        1 0MG      0.352800
     16 H1          0.8240    0.7110    1.1000 h1        1 0MG      0.080700
     17 H3          0.6640    2.9490   -0.7250 hc        1 0MG      0.063200
     18 H4          0.2110    1.5130   -1.7250 hc        1 0MG      0.063200
     19 H5         -1.0500    2.3470    0.9890 hc        1 0MG      0.047700
     20 H6         -1.7500    2.6230   -0.6590 hc        1 0MG      0.047700
     21 H7         -1.4960    0.0860   -1.0830 h1        1 0MG      0.116700
     22 H8         -1.0500   -0.0650    0.7130 h1        1 0MG      0.116700
     23 H9         -3.5330    1.0880    0.7320 hn        1 0MG      0.289700
     24 H10        -1.8210   -1.9740   -0.2260 hn        1 0MG      0.324450
     25 H11        -3.1860   -2.9510    0.1580 hn        1 0MG      0.324450
     26 H12        -5.2600   -2.0140    0.8760 hn        1 0MG      0.324450
     27 H13        -5.4200   -0.3370    1.0460 hn        1 0MG      0.324450
     28 H2          2.9820    1.9840   -0.4130 hn        1 0MG      0.352800
@<TRIPOS>BOND
     1    1    2 1   
     2    1   15 1   
     3    1   28 1   
     4    2    3 1   
     5    2    5 1   
     6    2   16 1   
     7    3    4 2   
     8    3   12 1   
     9    5    6 1   
    10    5   17 1   
    11    5   18 1   
    12    6    7 1   
    13    6   19 1   
    14    6   20 1   
    15    7    8 1   
    16    7   21 1   
    17    7   22 1   
    18    8    9 2   
    19    8   23 1   
    20    9   10 1   
    21    9   11 1   
    22   10   24 1   
    23   10   25 1   
    24   11   26 1   
    25   11   27 1   
    26   12   13 1   
    27   12   14 1   
@<TRIPOS>SUBSTRUCTURE
     1 0MG         1 TEMP              0 ****  ****    0 ROOT
