@<TRIPOS>MOLECULE
0MH
   64    52     1     0     0
SMALL
bcc


@<TRIPOS>ATOM
      1 C1          7.2010    2.9240    1.4150 c1        1 0MH     -0.132000
      2 C2          7.5310    4.2690    1.2840 c1        1 0MH     -0.132000
      3 C3         -7.2700   -7.2700   -2.7820 c1        1 0MH     -0.146500
      4 C4          5.8880    2.5070    1.2210 c1        1 0MH     -0.132000
      5 C5          6.5470    5.1970    0.9580 c1        1 0MH     -0.132000
      6 C6         -5.7520   -6.8230   -2.5850 c1        1 0MH     -0.146500
      7 C7         -2.8720   -2.1690   -0.3120 c1        1 0MH     -0.218000
      8 C8         -2.7340   -0.3730   -2.4360 c1        1 0MH     -0.030000
      9 C9         -8.0480   -6.0980   -3.1450 c1        1 0MH     -0.465500
     10 C10         4.9040    3.4350    0.8950 c1        1 0MH     -0.072000
     11 C11         2.9140    1.4440    1.2490 c1        1 0MH     -0.222000
     12 C12        -2.2630   -0.9270   -0.1360 c1        1 0MH      0.161000
     13 C13        -3.4120   -2.5110   -1.5490 c1        1 0MH      0.007000
     14 C14        -3.3430   -1.6130   -2.6110 c1        1 0MH      0.007000
     15 C15         5.2340    4.7810    0.7630 c1        1 0MH      0.114000
     16 C16        -2.1950   -0.0300   -1.1990 c1        1 0MH     -0.144000
     17 C17         3.6430    2.6200    1.1990 c2        1 0MH     -0.009000
     18 C18        -5.6610   -5.3940   -2.8360 c1        1 0MH     -0.465500
     19 C19         2.5230    1.2420    2.5550 c1        1 0MH      0.014000
     20 C20         2.3270    0.0380    1.4200 c1        1 0MH      0.388000
     21 C21        -5.0600   -4.0090   -2.6460 c1        1 0MH      0.406000
     22 C22        -0.9700   -1.4990    1.7510 c3        1 0MH     -0.038500
     23 C23        -1.2340    0.7910    1.1110 c3        1 0MH     -0.038500
     24 C24         0.3860   -1.5300    1.0560 c3        1 0MH     -0.051000
     25 C25         0.1240    0.7470    0.4200 c3        1 0MH     -0.051000
     26 C26         2.0240    1.0020    3.9870 c2        1 0MH     -0.170000
     27 C27         4.3420    6.7950   -0.1390 c3        1 0MH     -0.076000
     28 N28         3.6980    3.1310    2.4500 n2        1 0MH      0.002000
     29 N29        -1.8490   -0.5090    1.1870 n3        1 0MH     -0.302000
     30 N30         0.9770   -0.2420    0.9760 n2        1 0MH     -0.322000
     31 N31        -3.9560   -3.8240   -1.7550 n2        1 0MH     -0.341000
     32 N32        -3.9810   -1.3260   -3.8620 n1        1 0MH      0.589000
     33 O33        -5.0170   -1.9030   -4.1670 o         1 0MH     -0.360000
     34 O34         3.0110   -0.8560    1.8900 o         1 0MH     -0.359000
     35 O35        -5.5370   -3.0550   -3.2290 o         1 0MH     -0.333000
     36 O36        -3.4400   -0.3960   -4.7090 os        1 0MH     -0.355000
     37 O37         3.0000    2.2730    3.2990 os        1 0MH     -0.058000
     38 O38         4.1080    5.4350    0.2020 os        1 0MH     -0.201000
     39 S39        -7.0820   -4.8800   -3.1940 ss        1 0MH      0.737000
     40 CL4        -2.1960    1.6170   -1.7840 cl        1 0MH      0.002000
     41 H1          7.8950    2.2680    1.6450 ha        1 0MH      0.144750
     42 H2          8.4570    4.5630    1.4210 ha        1 0MH      0.144750
     43 H3         -7.6180   -8.1800   -2.6750 DU        1 0MH      0.162000
     44 H4          5.6560    1.5590    1.3130 ha        1 0MH      0.144750
     45 H5          6.7800    6.1460    0.8650 ha        1 0MH      0.144750
     46 H6         -5.0080   -7.4120   -2.3380 DU        1 0MH      0.162000
     47 H7         -2.9210   -2.8020    0.4370 ha        1 0MH      0.154000
     48 H8         -2.6860    0.2600   -3.1840 ha        1 0MH      0.184000
     49 H9         -9.0110   -6.0780   -3.3260 DU        1 0MH      0.162000
     50 H10        -0.8350   -1.2990    2.7050 h1        1 0MH      0.099500
     51 H11        -1.3910   -2.3830    1.6680 h1        1 0MH      0.099500
     52 H12        -1.1160    1.1410    2.0230 h1        1 0MH      0.099500
     53 H13        -1.8270    1.3960    0.6120 h1        1 0MH      0.099500
     54 H14         0.9880   -2.1260    1.5580 h1        1 0MH      0.110250
     55 H15         0.2700   -1.8850    0.1470 h1        1 0MH      0.110250
     56 H16         0.5550    1.6270    0.5080 h1        1 0MH      0.110250
     57 H17        -0.0110    0.5520   -0.5340 h1        1 0MH      0.110250
     58 H18         1.3890    1.7110    4.2370 ha        1 0MH      0.110667
     59 H19         2.7880    1.0120    4.6060 ha        1 0MH      0.110667
     60 H20         1.5760    0.1300    4.0350 ha        1 0MH      0.110667
     61 H21         4.1920    6.9210   -1.1030 h1        1 0MH      0.086333
     62 H22         5.2680    7.0320    0.0820 h1        1 0MH      0.086333
     63 H23         3.7260    7.3700    0.3670 h1        1 0MH      0.086333
     64 H24        -3.6270   -4.5360   -1.2800 hn        1 0MH      0.245000
@<TRIPOS>BOND
     1    1    4 1   
     2    1   41 1   
     3    2    5 1   
     4    2   42 1   
     5    3    6 1   
     6    3    9 1   
     7    4   44 1   
     8    5   45 1   
     9    6   18 1   
    10    7   12 1   
    11    7   47 1   
    12    8   16 1   
    13    8   48 1   
    14    9   39 1   
    15   10   15 1   
    16   10   17 1   
    17   11   17 1   
    18   11   19 1   
    19   12   29 1   
    20   13   14 1   
    21   15   38 1   
    22   16   40 1   
    23   17   28 1   
    24   18   39 1   
    25   19   37 1   
    26   20   34 1   
    27   21   31 1   
    28   21   35 1   
    29   22   24 1   
    30   22   29 1   
    31   22   50 1   
    32   22   51 1   
    33   23   25 1   
    34   23   29 1   
    35   23   52 1   
    36   23   53 1   
    37   24   30 1   
    38   24   54 1   
    39   24   55 1   
    40   25   30 1   
    41   25   56 1   
    42   25   57 1   
    43   26   58 1   
    44   26   59 1   
    45   26   60 1   
    46   27   38 1   
    47   27   61 1   
    48   27   62 1   
    49   27   63 1   
    50   28   37 1   
    51   31   64 1   
    52   32   33 1   
@<TRIPOS>SUBSTRUCTURE
     1 0MH         1 TEMP              0 ****  ****    0 ROOT
