@<TRIPOS>MOLECULE
0MH
   64    68     1     0     0
SMALL
bcc


@<TRIPOS>ATOM
      1 C1         -3.3900    3.4890    1.0550 ca        1 0MH     -0.168000
      2 C2         -3.0090    4.0760   -0.1500 ca        1 0MH     -0.080000
      3 C3          5.9450    4.0370    2.9760 cc        1 0MH     -0.172000
      4 C4         -4.0960    2.2880    1.0550 ca        1 0MH     -0.069000
      5 C5         -3.3170    3.4630   -1.3620 ca        1 0MH     -0.213000
      6 C6          4.9570    3.0130    2.9140 cc        1 0MH     -0.071000
      7 C7          2.0290   -0.5260    0.0520 ca        1 0MH     -0.229000
      8 C8          2.9940   -2.1890   -1.9520 ca        1 0MH     -0.031000
      9 C9          6.6100    4.1700    1.7710 cd        1 0MH     -0.151100
     10 C10        -4.4320    1.6590   -0.1500 ca        1 0MH     -0.180500
     11 C11        -4.8870   -0.7770    0.6560 cc        1 0MH     -0.377200
     12 C12         1.2070   -1.5640   -0.4190 ca        1 0MH      0.219600
     13 C13         3.3360   -0.2900   -0.4330 ca        1 0MH      0.184600
     14 C14         3.8060   -1.1400   -1.4810 ca        1 0MH     -0.258200
     15 C15        -4.0250    2.2530   -1.3660 ca        1 0MH      0.155100
     16 C16         1.7290   -2.4140   -1.4350 ca        1 0MH     -0.045600
     17 C17        -5.2040    0.4270   -0.1260 cc        1 0MH      0.423800
     18 C18         4.9200    2.4150    1.6590 cd        1 0MH     -0.227700
     19 C19        -5.9100   -1.6630    0.3660 cd        1 0MH      0.311000
     20 C21         3.9790    1.3310    1.3480 c         1 0MH      0.727700
     21 C22        -0.2900   -1.3280    1.4930 c3        1 0MH      0.158800
     22 C23        -1.2120   -1.6240   -0.7280 c3        1 0MH      0.158800
     23 C24        -1.5750   -1.9290    2.1080 c3        1 0MH      0.079500
     24 C25        -2.5010   -2.2210   -0.1150 c3        1 0MH      0.079500
     25 C26        -6.2690   -3.0190    0.7770 c3        1 0MH     -0.148400
     26 C27        -4.1730    2.2550   -3.7430 c3        1 0MH      0.113700
     27 N28        -6.3470    0.1990   -0.8090 nd        1 0MH     -0.334300
     28 N29        -0.0610   -1.8210    0.1430 nh        1 0MH     -0.641000
     29 N30        -2.7380   -1.8180    1.2520 n         1 0MH     -0.453800
     30 N31         4.1120    0.7480    0.0780 n         1 0MH     -0.480100
     31 N32         5.1350   -1.0020   -2.1180 no        1 0MH      0.325200
     32 O33         5.7610    0.0250   -2.0200 o         1 0MH     -0.222000
     33 O34        -3.7760   -0.3820    2.7120 o         1 0MH     -0.589100
     34 O35         3.1200    0.9560    2.1650 o         1 0MH     -0.577100
     35 O36         5.5670   -1.9290   -2.7500 o         1 0MH     -0.222000
     36 O37        -6.7810   -1.0170   -0.5390 os        1 0MH     -0.116100
     37 O38        -4.3240    1.5500   -2.5150 os        1 0MH     -0.319900
     38 S39         6.0560    3.1020    0.6300 ss        1 0MH      0.093200
     39 CL4         0.8650   -3.7540   -2.0220 cl        1 0MH     -0.067400
     40 H1         -3.1380    3.9730    2.0100 ha        1 0MH      0.141000
     41 H2         -2.4570    5.0280   -0.1490 ha        1 0MH      0.135000
     42 H4         -4.3910    1.8150    2.0080 ha        1 0MH      0.167000
     43 H5         -3.0060    3.9330   -2.3060 ha        1 0MH      0.140000
     44 H6          4.3060    2.7300    3.7470 ha        1 0MH      0.177000
     45 H7          1.6410    0.1420    0.8440 ha        1 0MH      0.186000
     46 H8          3.3850   -2.8590   -2.7430 ha        1 0MH      0.183000
     47 H9          7.4080    4.8870    1.5730 h4        1 0MH      0.180000
     48 H10        -0.3730   -0.2020    1.5160 h1        1 0MH      0.058200
     49 H11         0.5810   -1.6310    2.1390 h1        1 0MH      0.058200
     50 H12        -1.0310   -2.1350   -1.7130 h1        1 0MH      0.058200
     51 H13        -1.3760   -0.5250   -0.9280 h1        1 0MH      0.058200
     52 H14        -1.4090   -3.0260    2.3080 h1        1 0MH      0.072700
     53 H15        -1.7660   -1.4070    3.0880 h1        1 0MH      0.072700
     54 H16        -3.3610   -1.9190   -0.7760 h1        1 0MH      0.072700
     55 H17        -2.4200   -3.3460   -0.1260 h1        1 0MH      0.072700
     56 H18        -6.6900   -3.0010    1.8150 hc        1 0MH      0.073367
     57 H19        -7.0370   -3.4520    0.0880 hc        1 0MH      0.073367
     58 H20        -5.3600   -3.6720    0.7710 hc        1 0MH      0.073367
     59 H21        -4.7380    3.2170   -3.7250 h1        1 0MH      0.047033
     60 H22        -3.0910    2.4380   -3.9540 h1        1 0MH      0.047033
     61 H23        -4.6090    1.5530   -4.4980 h1        1 0MH      0.047033
     62 H24         4.8900    1.0510   -0.4740 hn        1 0MH      0.350500
     63 C20        -3.7680   -0.9430    1.5980 c         1 0MH      0.705700
     64 H3          6.1390    4.6310    3.8720 ha        1 0MH      0.164000
@<TRIPOS>BOND
     1    1    2 ar  
     2    1    4 ar  
     3    1   40 1   
     4    2    5 ar  
     5    2   41 1   
     6    3    6 1   
     7    3    9 2   
     8    3   64 1   
     9    4   10 ar  
    10    4   42 1   
    11    5   15 ar  
    12    5   43 1   
    13    6   18 2   
    14    6   44 1   
    15    7   12 ar  
    16    7   13 ar  
    17    7   45 1   
    18    8   14 ar  
    19    8   16 ar  
    20    8   46 1   
    21    9   38 1   
    22    9   47 1   
    23   10   15 ar  
    24   10   17 1   
    25   11   17 1   
    26   11   19 2   
    27   11   63 1   
    28   12   16 ar  
    29   12   28 1   
    30   13   14 ar  
    31   13   30 1   
    32   14   31 1   
    33   15   37 1   
    34   16   39 1   
    35   17   27 2   
    36   18   20 1   
    37   18   38 1   
    38   19   25 1   
    39   19   36 1   
    40   20   30 1   
    41   20   34 2   
    42   21   23 1   
    43   21   28 1   
    44   21   48 1   
    45   21   49 1   
    46   22   24 1   
    47   22   28 1   
    48   22   50 1   
    49   22   51 1   
    50   23   29 1   
    51   23   52 1   
    52   23   53 1   
    53   24   29 1   
    54   24   54 1   
    55   24   55 1   
    56   25   56 1   
    57   25   57 1   
    58   25   58 1   
    59   26   37 1   
    60   26   59 1   
    61   26   60 1   
    62   26   61 1   
    63   27   36 1   
    64   29   63 1   
    65   30   62 1   
    66   31   32 1   
    67   31   35 1   
    68   33   63 2   
@<TRIPOS>SUBSTRUCTURE
     1 0MH         1 TEMP              0 ****  ****    0 ROOT
