@<TRIPOS>MOLECULE
0MH
   64    64     1     0     0
SMALL
bcc


@<TRIPOS>ATOM
      1 C1          0.1450    1.6540    0.9230 c2        1 0MH     -0.226000
      2 C2          3.7080    0.0950    1.7380 c1        1 0MH      0.027200
      3 C3          1.9240    1.7600   -3.6870 cc        1 0MH     -0.172000
      4 C4         -0.4190    0.5590    1.4380 ce        1 0MH     -0.124000
      5 C5          2.4380   -0.1270    1.5280 cf        1 0MH     -0.179100
      6 C6          0.8660    2.1640   -2.8250 cc        1 0MH     -0.075000
      7 C7         -4.0220    4.3450   -2.0630 ca        1 0MH     -0.201000
      8 C8         -5.0870    6.5300   -3.4190 ca        1 0MH     -0.046000
      9 C9          1.7350    2.2310   -4.9730 cd        1 0MH     -0.152100
     10 C10         0.1490   -0.2780    2.4870 ce        1 0MH     -0.279800
     11 C11        -2.1000   -0.1790    3.7950 cc        1 0MH     -0.379200
     12 C12        -5.2150    4.9220   -1.6060 ca        1 0MH      0.231400
     13 C13        -3.3160    4.8370   -3.1860 ca        1 0MH      0.169600
     14 C14        -3.8820    5.9560   -3.8690 ca        1 0MH     -0.239200
     15 C15         1.4860   -0.5580    2.5530 cf        1 0MH      0.213100
     16 C16        -5.7530    6.0300   -2.3120 ca        1 0MH     -0.012600
     17 C17        -0.8280   -0.8160    3.4190 cc        1 0MH      0.434100
     18 C18        -0.0810    2.9270   -3.5000 cd        1 0MH     -0.227700
     19 C19        -2.7130   -1.0830    4.6450 cd        1 0MH      0.323000
     20 C21        -1.2700    3.4590   -2.8220 c         1 0MH      0.728700
     21 C22        -5.9150    3.3000   -0.0560 c1        1 0MH      0.290500
     22 C23        -0.8480    3.5360    5.4360 c2        1 0MH     -0.294000
     23 C24        -6.0680    2.1140    0.4690 c2        1 0MH     -0.298100
     24 C25        -1.2700    2.3810    4.8970 c2        1 0MH     -0.021400
     25 C26        -3.9730   -1.1350    5.3820 c3        1 0MH     -0.151400
     26 C27         4.9690    0.3290    1.9250 c2        1 0MH     -0.234100
     27 N28        -0.7640   -2.0130    4.0480 nd        1 0MH     -0.396300
     28 N29        -5.8550    4.4930   -0.4210 ne        1 0MH     -0.469800
     29 N30        -2.2410    2.2820    3.9010 n         1 0MH     -0.473100
     30 N31        -2.1320    4.2340   -3.6100 n         1 0MH     -0.478100
     31 N32        -3.2640    6.5850   -5.0600 no        1 0MH      0.322200
     32 O33        -2.4610    5.9810   -5.7280 o         1 0MH     -0.219500
     33 O34        -3.4990    1.1470    2.3980 o         1 0MH     -0.605100
     34 O35        -1.4920    3.2310   -1.6190 o         1 0MH     -0.582100
     35 O36        -3.5950    7.7030   -5.3540 o         1 0MH     -0.219500
     36 O37        -1.8450   -2.1890    4.7800 os        1 0MH     -0.110100
     37 O38         2.1030   -1.2830    3.5360 oh        1 0MH     -0.487100
     38 S39         0.3420    3.1180   -5.1140 ss        1 0MH      0.098200
     39 CL4        -7.2050    6.7590   -1.8310 cl        1 0MH     -0.049400
     40 H1         -1.4190    0.2370    1.0870 ha        1 0MH      0.144000
     41 H2         -0.3570    2.2410    0.1380 ha        1 0MH      0.128500
     42 H4          1.1140    2.0480    1.2580 ha        1 0MH      0.128500
     43 H5          2.0020   -0.0040    0.5170 ha        1 0MH      0.164000
     44 H6          0.8000    1.9070   -1.7610 ha        1 0MH      0.176000
     45 H7         -3.6140    3.4760   -1.5070 ha        1 0MH      0.194000
     46 H8         -5.5060    7.4020   -3.9600 ha        1 0MH      0.184000
     47 H9          2.4100    2.0520   -5.8100 h4        1 0MH      0.180000
     48 H10        -2.6090    1.8920    0.0720 ha        1 0MH      0.002000
     49 H11        -3.2850    1.9150    0.0230 ha        1 0MH      0.002000
     50 H12        -1.2180    4.5240    5.1370 ha        1 0MH      0.126000
     51 H13        -0.0870    3.5350    6.2240 ha        1 0MH      0.126000
     52 H14        -2.6100    3.1270    3.5180 hn        1 0MH      0.328500
     53 H15        -6.9630    1.5070    0.2760 ha        1 0MH      0.175500
     54 H16        -5.3030    1.6800    1.1350 ha        1 0MH      0.175500
     55 H17        -0.8590    1.4070    5.2290 h4        1 0MH      0.146000
     56 H18        -3.9010   -0.5070    6.3070 hc        1 0MH      0.075700
     57 H19        -4.8030   -0.7390    4.7430 hc        1 0MH      0.075700
     58 H20        -4.2120   -2.1870    5.6830 hc        1 0MH      0.075700
     59 H21         1.4740   -1.5070    4.2370 ho        1 0MH      0.439000
     60 H22         5.3500    1.3270    2.1900 ha        1 0MH      0.142000
     61 H23         5.7310   -0.4590    1.8300 ha        1 0MH      0.142000
     62 H24        -1.8370    4.4220   -4.5480 hn        1 0MH      0.350500
     63 C20        -2.6470    1.0960    3.3080 c         1 0MH      0.722700
     64 H3          2.7700    1.1530   -3.3570 ha        1 0MH      0.163000
@<TRIPOS>BOND
     1    1    4 2   
     2    1   41 1   
     3    1   42 1   
     4    2    5 2   
     5    2   26 2   
     6    3    6 1   
     7    3    9 2   
     8    3   64 1   
     9    4   10 1   
    10    4   40 1   
    11    5   15 1   
    12    5   43 1   
    13    6   18 2   
    14    6   44 1   
    15    7   12 ar  
    16    7   13 ar  
    17    7   45 1   
    18    8   14 ar  
    19    8   16 ar  
    20    8   46 1   
    21    9   38 1   
    22    9   47 1   
    23   10   15 2   
    24   10   17 1   
    25   11   17 1   
    26   11   19 2   
    27   11   63 1   
    28   12   16 ar  
    29   12   28 1   
    30   13   14 ar  
    31   13   30 1   
    32   14   31 1   
    33   15   37 1   
    34   16   39 1   
    35   17   27 2   
    36   18   20 1   
    37   18   38 1   
    38   19   25 1   
    39   19   36 1   
    40   20   30 1   
    41   20   34 2   
    42   21   23 2   
    43   21   28 2   
    44   22   24 2   
    45   22   50 1   
    46   22   51 1   
    47   23   53 1   
    48   23   54 1   
    49   24   29 1   
    50   24   55 1   
    51   25   56 1   
    52   25   57 1   
    53   25   58 1   
    54   26   60 1   
    55   26   61 1   
    56   27   36 1   
    57   29   52 1   
    58   29   63 1   
    59   30   62 1   
    60   31   32 1   
    61   31   35 1   
    62   33   63 2   
    63   37   59 1   
    64   48   49 1   
@<TRIPOS>SUBSTRUCTURE
     1 0MH         1 TEMP              0 ****  ****    0 ROOT
