@<TRIPOS>MOLECULE
0MH
   64    66     1     0     0
SMALL
bcc


@<TRIPOS>ATOM
      1 C1         -2.0950   -1.6610    0.7440 c2        1 0MH     -0.222000
      2 C2          1.4380    0.0700    0.2950 c1        1 0MH      0.031200
      3 C3          3.1580    3.3300   -4.7200 cc        1 0MH     -0.172000
      4 C4         -1.8200   -1.8560    2.0350 ce        1 0MH     -0.104000
      5 C5          0.7530   -0.7990    0.9890 cf        1 0MH     -0.184100
      6 C6          2.1510    3.0560   -3.7550 cc        1 0MH     -0.073000
      7 C7         -2.5560    4.2190   -1.2930 ca        1 0MH     -0.349000
      8 C8         -4.2700    6.1770   -1.9870 ca        1 0MH      0.030000
      9 C9          2.9170    4.5250   -5.3750 cd        1 0MH     -0.154100
     10 C10        -0.9020   -1.0560    2.8320 ce        1 0MH     -0.282800
     11 C11        -2.5640   -0.2020    4.6540 cc        1 0MH     -0.371200
     12 C12        -3.8720    4.1590   -0.8400 ca        1 0MH      0.299600
     13 C13        -2.1950    5.0840   -2.4210 ca        1 0MH      0.310600
     14 C14        -3.0810    6.1580   -2.8010 ca        1 0MH     -0.396200
     15 C15         0.2780   -0.5670    2.3530 cf        1 0MH      0.202100
     16 C16        -4.7310    4.8710   -1.8230 ca        1 0MH     -0.157600
     17 C17        -1.3200   -0.8450    4.2130 cc        1 0MH      0.409100
     18 C18         1.1850    4.0600   -3.7250 cd        1 0MH     -0.246700
     19 C19        -2.5360   -0.2920    6.0360 cd        1 0MH      0.325000
     20 C21         0.0440    4.0030   -2.8040 c         1 0MH      0.731700
     21 C22        -3.7130    2.9340    1.2900 c2        1 0MH      0.052800
     22 C23        -2.4120    3.0010    1.6750 c2        1 0MH     -0.214200
     23 C24        -4.4950    2.0360    2.2640 c3        1 0MH      0.110200
     24 C25        -2.2000    2.1690    2.9190 c3        1 0MH      0.116200
     25 C26        -3.4250    0.1080    7.1240 c3        1 0MH     -0.151400
     26 C27         2.0870    0.9400   -0.4140 c2        1 0MH     -0.242100
     27 N28        -0.6470   -1.2570    5.3120 nd        1 0MH     -0.366300
     28 N29        -4.3990    3.5450    0.2500 nh        1 0MH     -0.568400
     29 N30        -3.5010    1.5780    3.2330 n         1 0MH     -0.449800
     30 N31        -0.9910    4.9290   -3.0640 n         1 0MH     -0.454100
     31 N32        -2.7950    7.2360   -3.7260 no        1 0MH      0.347200
     32 O33        -1.7710    7.2470   -4.3770 o         1 0MH     -0.246500
     33 O34        -4.7640   -0.2460    3.7650 o         1 0MH     -0.582100
     34 O35        -0.0030    3.1900   -1.8670 o         1 0MH     -0.563100
     35 O36        -3.5970    8.1270   -3.8380 o         1 0MH     -0.246500
     36 O37        -1.3300   -0.9360    6.3910 os        1 0MH     -0.113100
     37 O38         1.1510    0.2040    3.0770 oh        1 0MH     -0.490100
     38 S39         1.5380    5.2640   -4.8390 ss        1 0MH      0.131200
     39 CL4        -5.1930    3.9190   -3.1530 cl        1 0MH     -0.083400
     40 H1         -2.3170   -2.6690    2.5960 ha        1 0MH      0.136000
     41 H2         -2.7970   -2.3090    0.2020 ha        1 0MH      0.119500
     42 H4         -1.6580   -0.8470    0.1480 ha        1 0MH      0.119500
     43 H5          0.4770   -1.7830    0.5650 ha        1 0MH      0.166000
     44 H6          2.1340    2.1690   -3.1140 ha        1 0MH      0.172000
     45 H7         -1.7680    3.6190   -0.8150 ha        1 0MH      0.195000
     46 H8         -4.5510    7.0400   -1.3760 ha        1 0MH      0.171000
     47 H9          3.5520    4.9480   -6.1540 h4        1 0MH      0.184000
     48 H10        -0.6940    1.0290   -0.9080 ha        1 0MH      0.001500
     49 H11        -1.2890    1.2780   -1.1170 ha        1 0MH      0.001500
     50 H12        -5.3970    3.5530    0.3260 hn        1 0MH      0.466800
     51 H13        -1.5810    3.5460    1.2290 ha        1 0MH      0.171000
     52 H14        -5.2880    2.6230    2.8030 h1        1 0MH      0.075700
     53 H15        -4.9810    1.1720    1.7310 h1        1 0MH      0.075700
     54 H16        -1.8760    2.8220    3.7770 h1        1 0MH      0.067700
     55 H17        -1.4110    1.3830    2.7480 h1        1 0MH      0.067700
     56 H18        -3.2090    1.1650    7.4250 hc        1 0MH      0.076700
     57 H19        -3.2800   -0.5520    8.0150 hc        1 0MH      0.076700
     58 H20        -4.4900    0.0400    6.7820 hc        1 0MH      0.076700
     59 H21         0.8330    0.2970    3.9870 ho        1 0MH      0.430000
     60 H22         3.1860    0.9950   -0.4180 ha        1 0MH      0.150500
     61 H23         1.5620    1.6790   -1.0440 ha        1 0MH      0.150500
     62 H24        -0.8170    5.5460   -3.8420 hn        1 0MH      0.360500
     63 C20        -3.6630    0.3340    3.8350 c         1 0MH      0.708700
     64 H3          4.0080    2.6700   -4.9080 ha        1 0MH      0.166000
@<TRIPOS>BOND
     1    1    4 2   
     2    1   41 1   
     3    1   42 1   
     4    2    5 2   
     5    2   26 2   
     6    3    6 1   
     7    3    9 2   
     8    3   64 1   
     9    4   10 1   
    10    4   40 1   
    11    5   15 1   
    12    5   43 1   
    13    6   18 2   
    14    6   44 1   
    15    7   12 ar  
    16    7   13 ar  
    17    7   45 1   
    18    8   14 ar  
    19    8   16 ar  
    20    8   46 1   
    21    9   38 1   
    22    9   47 1   
    23   10   15 2   
    24   10   17 1   
    25   11   17 1   
    26   11   19 2   
    27   11   63 1   
    28   12   16 ar  
    29   12   28 1   
    30   13   14 ar  
    31   13   30 1   
    32   14   31 1   
    33   15   37 1   
    34   16   39 1   
    35   17   27 2   
    36   18   20 1   
    37   18   38 1   
    38   19   25 1   
    39   19   36 1   
    40   20   30 1   
    41   20   34 2   
    42   21   22 2   
    43   21   23 1   
    44   21   28 1   
    45   22   24 1   
    46   22   51 1   
    47   23   29 1   
    48   23   52 1   
    49   23   53 1   
    50   24   29 1   
    51   24   54 1   
    52   24   55 1   
    53   25   56 1   
    54   25   57 1   
    55   25   58 1   
    56   26   60 1   
    57   26   61 1   
    58   27   36 1   
    59   28   50 1   
    60   29   63 1   
    61   30   62 1   
    62   31   32 1   
    63   31   35 1   
    64   33   63 2   
    65   37   59 1   
    66   48   49 1   
@<TRIPOS>SUBSTRUCTURE
     1 0MH         1 TEMP              0 ****  ****    0 ROOT
