@<TRIPOS>MOLECULE
0MH
   64    67     1     0     0
SMALL
bcc


@<TRIPOS>ATOM
      1 C1          1.2980    0.6800    0.9100 c2        1 0MH     -0.203000
      2 C2          1.5300    2.9980    4.5150 c1        1 0MH     -0.094000
      3 C3         -1.3400    0.0660   -6.6070 c2        1 0MH     -0.172000
      4 C4          0.9190   -0.2360    1.8020 c2        1 0MH     -0.116000
      5 C5          1.3900    1.9240    3.7830 c2        1 0MH     -0.123000
      6 C6         -2.0260    0.6020   -5.4790 c2        1 0MH     -0.075000
      7 C7         -2.1740    3.9820   -1.2580 ca        1 0MH     -0.217000
      8 C8         -1.5150    6.6800   -1.3220 ca        1 0MH     -0.034000
      9 C9         -0.2130    0.8070   -6.9110 c2        1 0MH     -0.424000
     10 C10         0.0270    0.0250    2.9270 c2        1 0MH     -0.151000
     11 C11        -2.5200   -0.5800    3.1890 c2        1 0MH     -0.276000
     12 C12        -2.5340    4.7890   -0.1630 ca        1 0MH      0.137000
     13 C13        -1.5260    4.4800   -2.4090 ca        1 0MH      0.183000
     14 C14        -1.1780    5.8660   -2.4200 ca        1 0MH     -0.218000
     15 C15         0.2460    1.0210    3.8340 c2        1 0MH      0.123000
     16 C16        -2.1750    6.1670   -0.2190 ca        1 0MH     -0.133000
     17 C17        -1.0910   -0.9040    3.0500 c2        1 0MH     -0.031000
     18 C18        -1.3840    1.7290   -4.9790 c2        1 0MH     -0.470000
     19 C19        -3.1520   -1.8200    3.2440 c2        1 0MH      0.086000
     20 C21        -1.9010    2.4600   -3.8130 c2        1 0MH      0.396000
     21 C22        -3.9810    3.0050    0.7320 c3        1 0MH      0.054000
     22 C23        -2.6270    4.3810    2.2190 c3        1 0MH     -0.046000
     23 C24        -3.1650    1.8530    1.1350 c2        1 0MH     -0.734000
     24 C25        -2.8040    3.1490    3.1280 c3        1 0MH     -0.134000
     25 C26        -4.5390   -2.2640    3.3670 c3        1 0MH     -0.189000
     26 C27         1.7020    4.0690    5.2240 c2        1 0MH     -0.166000
     27 N28        -0.9640   -2.2500    3.0370 n2        1 0MH     -0.004000
     28 N29        -3.2890    4.2930    0.9220 nh        1 0MH     -0.231000
     29 N30        -2.6030    1.8410    2.4310 nx        1 0MH      0.157000
     30 N31        -1.2110    3.6320   -3.4710 ns        1 0MH     -0.335000
     31 N32        -0.4750    6.5280   -3.5390 no        1 0MH      0.580000
     32 O33         0.1250    5.8810   -4.3620 o         1 0MH     -0.377500
     33 O34        -4.2300    0.8940    3.9030 o         1 0MH     -0.270000
     34 O35        -2.8890    2.0570   -3.1750 o         1 0MH     -0.330000
     35 O36        -0.4960    7.7300   -3.6010 o         1 0MH     -0.377500
     36 O37        -2.1560   -2.8060    3.1400 os        1 0MH     -0.049000
     37 O38        -0.6080    1.2910    4.8800 oh        1 0MH     -0.262000
     38 S39        -0.0080    2.0860   -5.8740 ss        1 0MH      0.628000
     39 Cl4        -2.5660    7.2480    1.0360 cl        1 0MH     -0.004000
     40 H1          1.2530   -1.2860    1.7150 ha        1 0MH      0.147000
     41 H2          1.9620    0.4290    0.0720 ha        1 0MH      0.120500
     42 H4          0.9670    1.7270    0.9460 ha        1 0MH      0.120500
     43 H5          2.1790    1.6300    3.0630 ha        1 0MH      0.169000
     44 H6         -2.9430    0.1810   -5.0560 ha        1 0MH      0.177000
     45 H7         -2.4050    2.8980   -1.2090 ha        1 0MH      0.200000
     46 H8         -1.2570    7.7570   -1.3510 ha        1 0MH      0.179000
     47 H9          0.4740    0.5950   -7.7310 h4        1 0MH      0.178000
     48 H10        -4.3000    2.8850   -0.3390 h1        1 0MH      0.094500
     49 H11        -4.9180    3.1130    1.3580 h1        1 0MH      0.094500
     50 H12        -1.5260    4.5880    2.1040 h1        1 0MH      0.097000
     51 H13        -3.0890    5.2470    2.7760 h1        1 0MH      0.097000
     52 H14        -1.5960    1.6450    2.3580 hn        1 0MH      0.217000
     53 H15        -3.0440    0.9660    0.5220 hx        1 0MH      0.166000
     54 H16        -3.8510    3.1550    3.5480 hx        1 0MH      0.133000
     55 H17        -2.0670    3.2060    3.9770 hx        1 0MH      0.133000
     56 H18        -4.6240   -3.0780    4.1310 hc        1 0MH      0.126000
     57 H19        -5.1830   -1.3980    3.6700 hc        1 0MH      0.126000
     58 H20        -4.8990   -2.6640    2.3840 hc        1 0MH      0.126000
     59 H21        -1.1790    0.5200    5.0310 ho        1 0MH      0.231000
     60 H22         2.1910    4.0460    6.2110 ha        1 0MH      0.147000
     61 H23         1.3720    5.0620    4.8830 ha        1 0MH      0.147000
     62 H24        -0.5060    3.9420   -4.1090 hn        1 0MH      0.261000
     63 C20        -3.1860    0.7120    3.2670 c2        1 0MH      0.254000
     64 H3         -1.6770   -0.8190   -7.1510 ha        1 0MH      0.162000
@<TRIPOS>BOND
     1    1    4 1   
     2    1   41 1   
     3    1   42 1   
     4    2    5 1   
     5    2   26 1   
     6    3    6 1   
     7    3    9 1   
     8    3   64 1   
     9    4   10 1   
    10    4   40 1   
    11    5   15 1   
    12    5   43 1   
    13    6   18 1   
    14    6   44 1   
    15    7   12 1   
    16    7   13 1   
    17    7   45 1   
    18    8   14 1   
    19    8   16 1   
    20    8   46 1   
    21    9   38 1   
    22    9   47 1   
    23   10   15 1   
    24   10   17 1   
    25   11   17 1   
    26   11   19 1   
    27   11   63 1   
    28   12   16 1   
    29   12   28 1   
    30   13   14 1   
    31   13   30 1   
    32   14   31 1   
    33   15   37 1   
    34   16   39 1   
    35   17   27 1   
    36   18   20 1   
    37   18   38 1   
    38   19   25 1   
    39   19   36 1   
    40   20   30 1   
    41   20   34 1   
    42   21   23 1   
    43   21   28 1   
    44   21   48 1   
    45   21   49 1   
    46   22   24 1   
    47   22   28 1   
    48   22   50 1   
    49   22   51 1   
    50   23   29 1   
    51   23   53 1   
    52   24   29 1   
    53   24   54 1   
    54   24   55 1   
    55   25   56 1   
    56   25   57 1   
    57   25   58 1   
    58   26   60 1   
    59   26   61 1   
    60   27   36 1   
    61   29   52 1   
    62   29   63 1   
    63   30   62 1   
    64   31   32 1   
    65   31   35 1   
    66   33   63 1   
    67   37   59 1   
@<TRIPOS>SUBSTRUCTURE
     1 0MH         1 TEMP              0 ****  ****    0 ROOT
