@<TRIPOS>MOLECULE
0MJ
   64    60     1     0     0
SMALL
bcc


@<TRIPOS>ATOM
      1 C1          3.3540   -2.6450    2.2420 c3        1 0MJ     -0.031000
      2 O2          6.1080   -3.3670    2.6300 os        1 0MJ     -0.142000
      3 C3          4.2430   -2.9890    1.0540 c2        1 0MJ     -0.121500
      4 C4          3.9690   -2.6110    3.6240 c2        1 0MJ     -0.121500
      5 C5          5.5630   -3.2820    1.2510 c2        1 0MJ      0.077500
      6 C6          5.3020   -2.8890    3.7840 c2        1 0MJ      0.077500
      7 C7          2.7370   -1.2340    1.9700 c3        1 0MJ     -0.023000
      8 C8          3.1710   -2.2640    4.7600 c1        1 0MJ     -0.099000
      9 C9          3.7270   -2.9080   -0.2640 c1        1 0MJ     -0.099000
     10 C10         6.4230   -3.5080    0.1290 c1        1 0MJ     -0.139500
     11 C11         5.8900   -2.8320    5.0760 c1        1 0MJ     -0.139500
     12 C12         4.5670   -3.1280   -1.3590 c1        1 0MJ     -0.126000
     13 C13         3.7470   -2.2090    6.0240 c1        1 0MJ     -0.126000
     14 C14         5.9190   -3.4280   -1.1540 c1        1 0MJ     -0.126000
     15 C15         5.1120   -2.4940    6.1840 c1        1 0MJ     -0.126000
     16 N16         1.2960   -1.3410    1.9180 n3        1 0MJ     -0.379000
     17 C17         0.4920   -0.2230    1.3870 c1        1 0MJ      0.306000
     18 C18        -0.9230   -0.4950    0.8140 c2        1 0MJ     -0.161000
     19 C19        -1.5190    0.7290    0.1870 c3        1 0MJ     -0.168000
     20 C20        -2.7680   -0.6840   -1.4430 c3        1 0MJ     -0.095000
     21 N21        -2.2010   -1.8680   -0.8890 n3        1 0MJ     -0.272000
     22 C22        -2.8280    0.4600   -0.4670 c3        1 0MJ      0.002000
     23 C23        -0.8990   -1.6460   -0.2460 c3        1 0MJ     -0.081000
     24 O24         0.8860    0.9160    1.5100 o         1 0MJ     -0.359000
     25 N25        -3.2560    1.6560   -1.1760 n3        1 0MJ     -0.882000
     26 S26        -4.7690    1.7120   -1.8690 s4        1 0MJ      2.074800
     27 O27        -5.0270    0.5300   -2.6760 o         1 0MJ     -0.544400
     28 O28        -5.8130    1.6010   -0.8630 o         1 0MJ     -0.544400
     29 C29        -4.9500    3.2140   -2.8360 c1        1 0MJ     -0.840000
     30 C30        -5.7810    4.2390   -2.3790 c2        1 0MJ     -0.009000
     31 C31        -5.0940    5.6350   -4.2360 c1        1 0MJ      0.001000
     32 C32        -4.2550    4.5950   -4.6950 c1        1 0MJ     -0.160000
     33 C33        -5.8510    5.4560   -3.0850 c1        1 0MJ     -0.159000
     34 C34        -4.1870    3.3940   -3.9950 c1        1 0MJ     -0.012000
     35 C35        -5.1800    6.9570   -5.0160 c3        1 0MJ     -0.194000
     36 H1          2.6290   -3.2890    2.2610 hc        1 0MJ      0.102000
     37 H2          2.9900   -0.6260    2.6870 h1        1 0MJ      0.108000
     38 H3          3.0680   -0.8920    1.1220 h1        1 0MJ      0.108000
     39 H4          2.2070   -2.0630    4.6470 ha        1 0MJ      0.129500
     40 H5          2.7710   -2.6950   -0.4080 ha        1 0MJ      0.129500
     41 H6          7.3380   -3.7110    0.2660 ha        1 0MJ      0.153000
     42 H7          6.8080   -3.0240    5.1850 ha        1 0MJ      0.153000
     43 H8          4.2220   -3.0750   -2.2410 ha        1 0MJ      0.138000
     44 H9          3.2050   -1.9730    6.7960 ha        1 0MJ      0.138000
     45 H10         6.5220   -3.5850   -1.9390 ha        1 0MJ      0.138000
     46 H11         5.5110   -2.4560    7.0590 ha        1 0MJ      0.138000
     47 H12         0.8760   -2.0650    2.3040 hn        1 0MJ      0.217000
     48 H13        -1.4170   -0.7630    1.6350 ha        1 0MJ      0.105000
     49 H14        -1.6460    1.4130    0.8820 hc        1 0MJ      0.105000
     50 H15        -0.8860    1.0790   -0.4970 hc        1 0MJ      0.105000
     51 H16        -2.2220   -0.4060   -2.2280 h1        1 0MJ      0.103000
     52 H17        -3.6550   -0.8800   -1.7410 h1        1 0MJ      0.103000
     53 H18        -2.7950   -2.2400   -0.2720 hn        1 0MJ      0.152000
     54 H20        -3.4770    0.2530    0.2140 h1        1 0MJ      0.114000
     55 H21        -0.2370   -1.4170   -0.9450 h1        1 0MJ      0.100500
     56 H22        -0.6280   -2.4490    0.1800 h1        1 0MJ      0.100500
     57 H23        -2.7190    2.4180   -1.1700 hn        1 0MJ      0.243000
     58 H24        -6.3140    4.1110   -1.5660 ha        1 0MJ      0.144000
     59 H25        -3.7190    4.7190   -5.5070 ha        1 0MJ      0.141000
     60 H26        -6.4430    6.1860   -2.7600 ha        1 0MJ      0.142000
     61 H27        -3.6030    2.6710   -4.3150 ha        1 0MJ      0.157000
     62 H28        -4.4660    7.5500   -4.7280 hc        1 0MJ      0.093000
     63 H29        -5.0880    6.7790   -5.9710 hc        1 0MJ      0.093000
     64 H30        -6.0390    7.3780   -4.8460 hc        1 0MJ      0.093000
@<TRIPOS>BOND
     1    1    3 1   
     2    1    4 1   
     3    1    7 1   
     4    1   36 1   
     5    2    5 1   
     6    2    6 1   
     7    3    5 1   
     8    3    9 1   
     9    4    6 1   
    10    4    8 1   
    11    5   10 1   
    12    6   11 1   
    13    7   16 1   
    14    7   37 1   
    15    7   38 1   
    16    8   39 1   
    17    9   40 1   
    18   10   41 1   
    19   11   42 1   
    20   12   14 1   
    21   12   43 1   
    22   13   15 1   
    23   13   44 1   
    24   14   45 1   
    25   15   46 1   
    26   16   17 1   
    27   16   47 1   
    28   17   24 1   
    29   18   19 1   
    30   18   23 1   
    31   18   48 1   
    32   19   22 1   
    33   19   49 1   
    34   19   50 1   
    35   20   21 1   
    36   20   22 1   
    37   20   51 1   
    38   20   52 1   
    39   21   23 1   
    40   21   53 1   
    41   22   25 1   
    42   22   54 1   
    43   23   55 1   
    44   23   56 1   
    45   25   26 1   
    46   25   57 1   
    47   26   27 1   
    48   26   28 1   
    49   29   30 1   
    50   29   34 1   
    51   30   33 1   
    52   30   58 1   
    53   31   32 1   
    54   31   35 1   
    55   32   59 1   
    56   33   60 1   
    57   34   61 1   
    58   35   62 1   
    59   35   63 1   
    60   35   64 1   
@<TRIPOS>SUBSTRUCTURE
     1 0MJ         1 TEMP              0 ****  ****    0 ROOT
