@<TRIPOS>MOLECULE
0MJ
   66    69     1     0     0
SMALL
bcc


@<TRIPOS>ATOM
      1 C1          0.6800    0.0750   -0.8820 c3        1 0MJ      0.048900
      2 O2          0.3110   -1.1420    1.7160 os        1 0MJ     -0.227200
      3 C3          1.6050    0.3420    0.2580 ca        1 0MJ     -0.192300
      4 C4         -0.0390   -1.2200   -0.7020 ca        1 0MJ     -0.192300
      5 C5          1.3870   -0.2830    1.4950 ca        1 0MJ      0.127600
      6 C6         -0.1750   -1.7730    0.5800 ca        1 0MJ      0.127600
      7 C7         -0.3230    1.2530   -0.9290 c3        1 0MJ      0.104800
      8 C8         -0.5360   -1.9400   -1.7990 ca        1 0MJ     -0.119000
      9 C9          2.7120    1.1870    0.1170 ca        1 0MJ     -0.119000
     10 C10         2.2320   -0.0590    2.5910 ca        1 0MJ     -0.124000
     11 C11        -0.8400   -2.9950    0.7860 ca        1 0MJ     -0.124000
     12 C12         3.5580    1.4160    1.1980 ca        1 0MJ     -0.133500
     13 C13        -1.1900   -3.1510   -1.6070 ca        1 0MJ     -0.133500
     14 C14         3.3150    0.8010    2.4310 ca        1 0MJ     -0.077000
     15 C15        -1.3490   -3.6710   -0.3150 ca        1 0MJ     -0.077000
     16 N16        -1.4470    1.0050   -1.8850 n4        1 0MJ     -0.676800
     17 C17        -2.4580    2.1210   -1.8580 c         1 0MJ      0.541100
     18 C18        -3.5410    2.0310   -0.8080 c3        1 0MJ     -0.131700
     19 C19        -4.2500    3.3770   -0.7020 c3        1 0MJ     -0.104400
     20 C20        -6.3660    2.1330   -0.1580 c3        1 0MJ      0.149800
     21 N21        -5.6430    0.8860   -0.2620 n3        1 0MJ     -0.824200
     22 C22        -5.4150    3.2790    0.2970 c3        1 0MJ      0.134500
     23 C23        -4.5440    0.9230   -1.1980 c3        1 0MJ      0.168800
     24 O24        -2.3070    2.9950   -2.6970 o         1 0MJ     -0.402100
     25 N25        -6.1440    4.5390    0.4810 n3        1 0MJ     -0.994800
     26 S26        -7.3020    4.5420    2.5660 s4        1 0MJ      1.684300
     27 O27        -8.0990    3.5070    2.1900 o         1 0MJ     -0.439900
     28 O28        -6.1440    4.3590    3.2550 o         1 0MJ     -0.439900
     29 C29        -7.8750    5.9780    2.4650 ca        1 0MJ     -0.644500
     30 C30        -9.1560    6.2330    1.8990 ca        1 0MJ      0.035500
     31 C31        -8.9870    8.5970    2.4010 ca        1 0MJ      0.117700
     32 C32        -7.7130    8.3700    2.9610 ca        1 0MJ     -0.164500
     33 C33        -9.6960    7.5010    1.8670 ca        1 0MJ     -0.164500
     34 C34        -7.1750    7.1010    2.9930 ca        1 0MJ      0.035500
     35 C35        -9.5750    9.9480    2.3930 c3        1 0MJ     -0.108800
     36 H1          1.2630    0.0570   -1.8480 hc        1 0MJ      0.091700
     37 H2          0.2130    2.1900   -1.2510 hx        1 0MJ      0.109200
     38 H3         -0.7660    1.4050    0.0960 hx        1 0MJ      0.109200
     39 H4         -0.3560   -1.5730   -2.8210 ha        1 0MJ      0.134000
     40 H5          2.9200    1.6590   -0.8550 ha        1 0MJ      0.134000
     41 H6          2.0370   -0.5690    3.5470 ha        1 0MJ      0.174500
     42 H7         -0.9250   -3.4030    1.8050 ha        1 0MJ      0.174500
     43 H8          4.4310    2.0780    1.0810 ha        1 0MJ      0.159500
     44 H9         -1.5630   -3.7200   -2.4730 ha        1 0MJ      0.159500
     45 H10         3.9940    0.9850    3.2800 ha        1 0MJ      0.164500
     46 H11        -1.8590   -4.6390   -0.1750 ha        1 0MJ      0.164500
     47 H12        -1.0550    0.9180   -2.8330 hn        1 0MJ      0.468800
     48 H13        -3.0750    1.7780    0.1890 hc        1 0MJ      0.117700
     49 H14        -3.5170    4.1580   -0.3680 hc        1 0MJ      0.076700
     50 H15        -4.6330    3.6790   -1.7140 hc        1 0MJ      0.076700
     51 H16        -7.1800    1.9880    0.6100 h1        1 0MJ      0.067700
     52 H17        -6.8490    2.4370   -1.1330 h1        1 0MJ      0.067700
     53 H18        -6.2610    0.1180   -0.4500 hn        1 0MJ      0.419800
     54 H20        -4.9870    3.0150    1.3140 h1        1 0MJ      0.103700
     55 H21        -4.8770    1.1100   -2.2630 h1        1 0MJ      0.052700
     56 H22        -4.0380   -0.0830   -1.1560 h1        1 0MJ      0.052700
     57 H23        -6.7950    4.6800   -0.2740 hn        1 0MJ      0.398800
     58 H24        -9.7360    5.3820    1.4900 ha        1 0MJ      0.170500
     59 H25        -7.1490    9.2200    3.3850 ha        1 0MJ      0.185000
     60 H26       -10.6960    7.6660    1.4270 ha        1 0MJ      0.185000
     61 H27        -6.1810    6.9400    3.4520 ha        1 0MJ      0.170500
     62 H28        -8.7830   10.7390    2.3620 hc        1 0MJ      0.093367
     63 H29       -10.2610   10.0900    1.5200 hc        1 0MJ      0.093367
     64 H30       -10.1760   10.0970    3.3310 hc        1 0MJ      0.093367
     65 H162       -1.8940    0.1070   -1.6380 hn        1 0MJ      0.468800
     66 H252       -5.4910    5.3060    0.4860 hn        1 0MJ      0.398800
@<TRIPOS>BOND
     1    1    3 1   
     2    1    4 1   
     3    1    7 1   
     4    1   36 1   
     5    2    5 1   
     6    2    6 1   
     7    3    5 ar  
     8    3    9 ar  
     9    4    6 ar  
    10    4    8 ar  
    11    5   10 ar  
    12    6   11 ar  
    13    7   16 1   
    14    7   37 1   
    15    7   38 1   
    16    8   13 ar  
    17    8   39 1   
    18    9   12 ar  
    19    9   40 1   
    20   10   14 ar  
    21   10   41 1   
    22   11   15 ar  
    23   11   42 1   
    24   12   14 ar  
    25   12   43 1   
    26   13   15 ar  
    27   13   44 1   
    28   14   45 1   
    29   15   46 1   
    30   16   17 1   
    31   16   47 1   
    32   16   65 1   
    33   17   18 1   
    34   17   24 2   
    35   18   19 1   
    36   18   23 1   
    37   18   48 1   
    38   19   22 1   
    39   19   49 1   
    40   19   50 1   
    41   20   21 1   
    42   20   22 1   
    43   20   51 1   
    44   20   52 1   
    45   21   23 1   
    46   21   53 1   
    47   22   25 1   
    48   22   54 1   
    49   23   55 1   
    50   23   56 1   
    51   25   57 1   
    52   25   66 1   
    53   26   27 1   
    54   26   28 1   
    55   26   29 1   
    56   29   30 ar  
    57   29   34 ar  
    58   30   33 ar  
    59   30   58 1   
    60   31   32 ar  
    61   31   33 ar  
    62   31   35 1   
    63   32   34 ar  
    64   32   59 1   
    65   33   60 1   
    66   34   61 1   
    67   35   62 1   
    68   35   63 1   
    69   35   64 1   
@<TRIPOS>SUBSTRUCTURE
     1 0MJ         1 TEMP              0 ****  ****    0 ROOT
