@<TRIPOS>MOLECULE
0MJ
   64    68     1     0     0
SMALL
bcc


@<TRIPOS>ATOM
      1 C1         -4.0420   -0.2520   -0.0820 c3        1 0MJ      0.009900
      2 O2         -6.5230    1.0740   -0.8810 os        1 0MJ     -0.235200
      3 C3         -5.1680    0.0060    0.8650 ca        1 0MJ     -0.128800
      4 C4         -4.5080   -0.1880   -1.4980 ca        1 0MJ     -0.128800
      5 C5         -6.3370    0.6460    0.4300 ca        1 0MJ      0.117600
      6 C6         -5.7020    0.4720   -1.8280 ca        1 0MJ      0.117600
      7 C7         -2.9330    0.7940    0.1960 c3        1 0MJ      0.091000
      8 C8         -3.7760   -0.7870   -2.5300 ca        1 0MJ     -0.104000
      9 C9         -5.0760   -0.3750    2.2090 ca        1 0MJ     -0.104000
     10 C10        -7.3960    0.9210    1.3100 ca        1 0MJ     -0.141000
     11 C11        -6.1400    0.5800   -3.1570 ca        1 0MJ     -0.141000
     12 C12        -6.1200   -0.1070    3.0910 ca        1 0MJ     -0.151000
     13 C13        -4.2030   -0.6900   -3.8520 ca        1 0MJ     -0.151000
     14 C14        -7.2720    0.5430    2.6430 ca        1 0MJ     -0.104000
     15 C15        -5.3760    0.0020   -4.1640 ca        1 0MJ     -0.104000
     16 N16        -1.7450    0.6460   -0.5920 n         1 0MJ     -0.561900
     17 C17        -0.6090    0.0190   -0.1110 c         1 0MJ      0.656100
     18 C18         0.5430   -0.1640   -1.0930 c3        1 0MJ     -0.171700
     19 C19         1.8020   -0.5670   -0.3410 c3        1 0MJ     -0.088400
     20 C20         2.4780   -1.9360   -2.3320 c3        1 0MJ      0.139800
     21 N21         1.2500   -1.6100   -3.0240 n3        1 0MJ     -0.793200
     22 C22         2.9500   -0.8400   -1.3280 c3        1 0MJ      0.202500
     23 C23         0.1750   -1.2400   -2.1300 c3        1 0MJ      0.154800
     24 O24        -0.5210   -0.3360    1.0810 o         1 0MJ     -0.604100
     25 N25         4.1800   -1.2010   -0.6750 n3        1 0MJ     -0.909100
     26 S26         5.5580   -0.3570   -0.7640 sy        1 0MJ      1.518200
     27 O27         6.6400   -1.2650   -0.7540 o         1 0MJ     -0.655800
     28 O28         5.4930    0.5560   -1.8410 o         1 0MJ     -0.655800
     29 C29         5.5790    0.5070    0.6810 ca        1 0MJ     -0.395500
     30 C30         6.1650   -0.0360    1.8320 ca        1 0MJ     -0.011500
     31 C31         5.6550    1.9680    3.0900 ca        1 0MJ     -0.006300
     32 C32         5.0750    2.5230    1.9410 ca        1 0MJ     -0.160000
     33 C33         6.2040    0.6800    3.0230 ca        1 0MJ     -0.160000
     34 C34         5.0410    1.7980    0.7550 ca        1 0MJ     -0.011500
     35 C35         5.7050    2.7400    4.3520 c3        1 0MJ     -0.068800
     36 H1         -3.6220   -1.2800    0.1200 hc        1 0MJ      0.076700
     37 H2         -3.3560    1.8200   -0.0040 h1        1 0MJ      0.073200
     38 H3         -2.6590    0.7220    1.2890 h1        1 0MJ      0.073200
     39 H4         -2.8630   -1.3540   -2.2900 ha        1 0MJ      0.139000
     40 H5         -4.1670   -0.8850    2.5640 ha        1 0MJ      0.139000
     41 H6         -8.2960    1.4280    0.9370 ha        1 0MJ      0.152500
     42 H7         -7.0750    1.1130   -3.3800 ha        1 0MJ      0.152500
     43 H8         -6.0360   -0.4090    4.1450 ha        1 0MJ      0.137000
     44 H9         -3.6170   -1.1650   -4.6520 ha        1 0MJ      0.137000
     45 H10        -8.0920    0.7550    3.3460 ha        1 0MJ      0.138000
     46 H11        -5.7050    0.0810   -5.2110 ha        1 0MJ      0.138000
     47 H12        -1.8450    0.7600   -1.5740 hn        1 0MJ      0.309500
     48 H13         0.7320    0.8130   -1.6190 hc        1 0MJ      0.069700
     49 H14         2.0830    0.2490    0.3730 hc        1 0MJ      0.066700
     50 H15         1.5910   -1.4830    0.2710 hc        1 0MJ      0.066700
     51 H16         2.3120   -2.8980   -1.7710 h1        1 0MJ      0.064200
     52 H17         3.2790   -2.1110   -3.1020 h1        1 0MJ      0.064200
     53 H18         1.4160   -0.8750   -3.6890 hn        1 0MJ      0.358800
     54 H20         3.1460    0.1110   -1.9160 h1        1 0MJ      0.071700
     55 H21        -0.1490   -2.1700   -1.5810 h1        1 0MJ      0.058700
     56 H22        -0.6910   -0.8820   -2.7540 h1        1 0MJ      0.058700
     57 H23         4.1130   -2.0360   -0.1440 hn        1 0MJ      0.447800
     58 H24         6.6180   -1.0420    1.7820 ha        1 0MJ      0.151000
     59 H25         4.6470    3.5350    1.9800 ha        1 0MJ      0.141000
     60 H26         6.6680    0.2370    3.9170 ha        1 0MJ      0.141000
     61 H27         4.5990    2.2490   -0.1510 ha        1 0MJ      0.151000
     62 H28         6.6360    3.3610    4.3770 hc        1 0MJ      0.053700
     63 H29         4.8250    3.4250    4.4370 hc        1 0MJ      0.053700
     64 H30         5.7130    2.0600    5.2390 hc        1 0MJ      0.053700
@<TRIPOS>BOND
     1    1    3 1   
     2    1    4 1   
     3    1    7 1   
     4    1   36 1   
     5    2    5 1   
     6    2    6 1   
     7    3    5 ar  
     8    3    9 ar  
     9    4    6 ar  
    10    4    8 ar  
    11    5   10 ar  
    12    6   11 ar  
    13    7   16 1   
    14    7   37 1   
    15    7   38 1   
    16    8   13 ar  
    17    8   39 1   
    18    9   12 ar  
    19    9   40 1   
    20   10   14 ar  
    21   10   41 1   
    22   11   15 ar  
    23   11   42 1   
    24   12   14 ar  
    25   12   43 1   
    26   13   15 ar  
    27   13   44 1   
    28   14   45 1   
    29   15   46 1   
    30   16   17 1   
    31   16   47 1   
    32   17   18 1   
    33   17   24 2   
    34   18   19 1   
    35   18   23 1   
    36   18   48 1   
    37   19   22 1   
    38   19   49 1   
    39   19   50 1   
    40   20   21 1   
    41   20   22 1   
    42   20   51 1   
    43   20   52 1   
    44   21   23 1   
    45   21   53 1   
    46   22   25 1   
    47   22   54 1   
    48   23   55 1   
    49   23   56 1   
    50   25   26 1   
    51   25   57 1   
    52   26   27 2   
    53   26   28 2   
    54   26   29 1   
    55   29   30 ar  
    56   29   34 ar  
    57   30   33 ar  
    58   30   58 1   
    59   31   32 ar  
    60   31   33 ar  
    61   31   35 1   
    62   32   34 ar  
    63   32   59 1   
    64   33   60 1   
    65   34   61 1   
    66   35   62 1   
    67   35   63 1   
    68   35   64 1   
@<TRIPOS>SUBSTRUCTURE
     1 0MJ         1 TEMP              0 ****  ****    0 ROOT
