@<TRIPOS>MOLECULE
0MJ
   66    69     1     0     0
SMALL
bcc


@<TRIPOS>ATOM
      1 C1          0.6810    0.0690   -0.8650 c3        1 0MJ      0.048900
      2 O2          0.2950   -1.1540    1.7280 os        1 0MJ     -0.227200
      3 C3          1.6000    0.3310    0.2810 ca        1 0MJ     -0.192300
      4 C4         -0.0420   -1.2240   -0.6920 ca        1 0MJ     -0.192300
      5 C5          1.3740   -0.2960    1.5150 ca        1 0MJ      0.127600
      6 C6         -0.1860   -1.7800    0.5870 ca        1 0MJ      0.127600
      7 C7         -0.3190    1.2490   -0.9150 c3        1 0MJ      0.104800
      8 C8         -0.5350   -1.9410   -1.7940 ca        1 0MJ     -0.119000
      9 C9          2.7100    1.1740    0.1480 ca        1 0MJ     -0.119000
     10 C10         2.2140   -0.0770    2.6170 ca        1 0MJ     -0.124000
     11 C11        -0.8550   -3.0020    0.7870 ca        1 0MJ     -0.124000
     12 C12         3.5500    1.3990    1.2350 ca        1 0MJ     -0.133500
     13 C13        -1.1930   -3.1500   -1.6080 ca        1 0MJ     -0.133500
     14 C14         3.2990    0.7810    2.4640 ca        1 0MJ     -0.077000
     15 C15        -1.3600   -3.6740   -0.3190 ca        1 0MJ     -0.077000
     16 N16        -1.4370    1.0070   -1.8790 ny        1 0MJ     -0.676800
     17 C17        -2.4460    2.1250   -1.8540 c         1 0MJ      0.541100
     18 C18        -3.5350    2.0340   -0.8110 c3        1 0MJ     -0.131700
     19 C19        -4.2420    3.3820   -0.7050 c3        1 0MJ     -0.104400
     20 C20        -6.3630    2.1420   -0.1770 c3        1 0MJ      0.149800
     21 N21        -5.6430    0.8940   -0.2810 n7        1 0MJ     -0.824200
     22 C22        -5.4120    3.2830    0.2870 c3        1 0MJ      0.134500
     23 C23        -4.5390    0.9300   -1.2110 c3        1 0MJ      0.168800
     24 O24        -2.2880    3.0010   -2.6900 o         1 0MJ     -0.402100
     25 N25        -6.1380    4.5450    0.4720 n8        1 0MJ     -0.994800
     26 S26        -7.3090    4.5450    2.5500 s4        1 0MJ      1.684300
     27 O27        -8.1070    3.5130    2.1660 o         1 0MJ     -0.439900
     28 O28        -6.1560    4.3560    3.2440 o         1 0MJ     -0.439900
     29 C29        -7.8770    5.9820    2.4500 ca        1 0MJ     -0.644500
     30 C30        -9.1550    6.2420    1.8770 ca        1 0MJ      0.035500
     31 C31        -8.9820    8.6040    2.3880 ca        1 0MJ      0.117700
     32 C32        -7.7120    8.3720    2.9550 ca        1 0MJ     -0.164500
     33 C33        -9.6900    7.5120    1.8450 ca        1 0MJ     -0.164500
     34 C34        -7.1780    7.1010    2.9860 ca        1 0MJ      0.035500
     35 C35        -9.5660    9.9570    2.3800 c3        1 0MJ     -0.108800
     36 H1          1.2700    0.0510   -1.8280 hc        1 0MJ      0.091700
     37 H2          0.2220    2.1860   -1.2300 hx        1 0MJ      0.109200
     38 H3         -0.7680    1.4000    0.1070 hx        1 0MJ      0.109200
     39 H4         -0.3480   -1.5710   -2.8140 ha        1 0MJ      0.134000
     40 H5          2.9240    1.6490   -0.8220 ha        1 0MJ      0.134000
     41 H6          2.0120   -0.5890    3.5700 ha        1 0MJ      0.174500
     42 H7         -0.9470   -3.4120    1.8050 ha        1 0MJ      0.174500
     43 H8          4.4250    2.0590    1.1240 ha        1 0MJ      0.159500
     44 H9         -1.5620   -3.7170   -2.4780 ha        1 0MJ      0.159500
     45 H10         3.9740    0.9610    3.3170 ha        1 0MJ      0.164500
     46 H11        -1.8730   -4.6410   -0.1830 ha        1 0MJ      0.164500
     47 H12        -1.8880    0.1100   -1.6370 hn        1 0MJ      0.468800
     48 H13        -3.0750    1.7770    0.1870 hc        1 0MJ      0.117700
     49 H14        -4.6180    3.6880   -1.7170 hc        1 0MJ      0.076700
     50 H15        -3.5080    4.1600   -0.3640 hc        1 0MJ      0.076700
     51 H16        -7.1820    1.9970    0.5870 h1        1 0MJ      0.067700
     52 H17        -6.8410    2.4500   -1.1540 h1        1 0MJ      0.067700
     53 H18        -6.2610    0.1280   -0.4740 hn        1 0MJ      0.419800
     54 H20        -4.9900    3.0150    1.3060 h1        1 0MJ      0.103700
     55 H21        -4.0360   -0.0770   -1.1690 h1        1 0MJ      0.052700
     56 H22        -4.8650    1.1220   -2.2760 h1        1 0MJ      0.052700
     57 H23        -5.4840    5.3100    0.4830 hn        1 0MJ      0.398800
     58 H24        -9.7340    5.3940    1.4620 ha        1 0MJ      0.170500
     59 H25        -7.1490    9.2190    3.3860 ha        1 0MJ      0.185000
     60 H26       -10.6880    7.6810    1.4000 ha        1 0MJ      0.185000
     61 H27        -6.1870    6.9360    3.4510 ha        1 0MJ      0.170500
     62 H28        -8.7720   10.7460    2.3570 hc        1 0MJ      0.093367
     63 H29       -10.1720   10.1040    3.3160 hc        1 0MJ      0.093367
     64 H30       -10.2470   10.1030    1.5040 hc        1 0MJ      0.093367
     65 H162       -1.0400    0.9220   -2.8250 hn        1 0MJ      0.468800
     66 H252       -6.7850    4.6910   -0.2860 hn        1 0MJ      0.398800
@<TRIPOS>BOND
     1    1    3 1   
     2    1    4 1   
     3    1    7 1   
     4    1   36 1   
     5    2    5 1   
     6    2    6 1   
     7    3    5 ar  
     8    3    9 ar  
     9    4    6 ar  
    10    4    8 ar  
    11    5   10 ar  
    12    6   11 ar  
    13    7   16 1   
    14    7   37 1   
    15    7   38 1   
    16    8   13 ar  
    17    8   39 1   
    18    9   12 ar  
    19    9   40 1   
    20   10   14 ar  
    21   10   41 1   
    22   11   15 ar  
    23   11   42 1   
    24   12   14 ar  
    25   12   43 1   
    26   13   15 ar  
    27   13   44 1   
    28   14   45 1   
    29   15   46 1   
    30   16   17 1   
    31   16   47 1   
    32   16   65 1   
    33   17   18 1   
    34   17   24 2   
    35   18   19 1   
    36   18   23 1   
    37   18   48 1   
    38   19   22 1   
    39   19   49 1   
    40   19   50 1   
    41   20   21 1   
    42   20   22 1   
    43   20   51 1   
    44   20   52 1   
    45   21   23 1   
    46   21   53 1   
    47   22   25 1   
    48   22   54 1   
    49   23   55 1   
    50   23   56 1   
    51   25   57 1   
    52   25   66 1   
    53   26   27 1   
    54   26   28 1   
    55   26   29 1   
    56   29   30 ar  
    57   29   34 ar  
    58   30   33 ar  
    59   30   58 1   
    60   31   32 ar  
    61   31   33 ar  
    62   31   35 1   
    63   32   34 ar  
    64   32   59 1   
    65   33   60 1   
    66   34   61 1   
    67   35   62 1   
    68   35   63 1   
    69   35   64 1   
@<TRIPOS>SUBSTRUCTURE
     1 0MJ         1 TEMP              0 ****  ****    0 ROOT
