@<TRIPOS>MOLECULE
0MJ
   66    69     1     0     0
SMALL
bcc


@<TRIPOS>ATOM
      1 C1          0.6670    0.0540   -0.8920 c3        1 0MJ      0.048900
      2 O2          0.3240   -1.1340    1.7230 os        1 0MJ     -0.227200
      3 C3          1.6030    0.3330    0.2360 ca        1 0MJ     -0.192300
      4 C4         -0.0510   -1.2380   -0.6900 ca        1 0MJ     -0.192300
      5 C5          1.3980   -0.2780    1.4820 ca        1 0MJ      0.127600
      6 C6         -0.1730   -1.7770    0.5990 ca        1 0MJ      0.127600
      7 C7         -0.3350    1.2320   -0.9420 c3        1 0MJ      0.104800
      8 C8         -0.5590   -1.9700   -1.7740 ca        1 0MJ     -0.119000
      9 C9          2.7100    1.1760    0.0750 ca        1 0MJ     -0.119000
     10 C10         2.2540   -0.0430    2.5670 ca        1 0MJ     -0.124000
     11 C11        -0.8370   -2.9960    0.8250 ca        1 0MJ     -0.124000
     12 C12         3.5660    1.4170    1.1450 ca        1 0MJ     -0.133500
     13 C13        -1.2120   -3.1780   -1.5620 ca        1 0MJ     -0.133500
     14 C14         3.3350    0.8160    2.3870 ca        1 0MJ     -0.077000
     15 C15        -1.3580   -3.6840   -0.2640 ca        1 0MJ     -0.077000
     16 N16        -1.4690    0.9740   -1.8840 n4        1 0MJ     -0.676800
     17 C17        -2.4780    2.0910   -1.8610 c         1 0MJ      0.541100
     18 C18        -3.5500    2.0170   -0.7990 c3        1 0MJ     -0.131700
     19 C19        -4.2580    3.3640   -0.7030 c3        1 0MJ     -0.104400
     20 C20        -6.3670    2.1290   -0.1190 c3        1 0MJ      0.149800
     21 N21        -5.6460    0.8810   -0.2130 n3        1 0MJ     -0.824200
     22 C22        -5.4120    3.2800    0.3090 c3        1 0MJ      0.134500
     23 C23        -4.5580    0.9030   -1.1620 c3        1 0MJ      0.168800
     24 O24        -2.3350    2.9550   -2.7130 o         1 0MJ     -0.402100
     25 N25        -6.1380    4.5430    0.4840 n3        1 0MJ     -0.994800
     26 S26        -7.2750    4.5770    2.5810 s4        1 0MJ      1.684300
     27 O27        -8.0750    3.5350    2.2280 o         1 0MJ     -0.439900
     28 O28        -6.1090    4.4040    3.2600 o         1 0MJ     -0.439900
     29 C29        -7.8490    6.0100    2.4650 ca        1 0MJ     -0.644500
     30 C30        -9.1370    6.2560    1.9090 ca        1 0MJ      0.035500
     31 C31        -8.9640    8.6270    2.3750 ca        1 0MJ      0.117700
     32 C32        -7.6840    8.4090    2.9250 ca        1 0MJ     -0.164500
     33 C33        -9.6770    7.5240    1.8630 ca        1 0MJ     -0.164500
     34 C34        -7.1450    7.1410    2.9690 ca        1 0MJ      0.035500
     35 C35        -9.5530    9.9780    2.3530 c3        1 0MJ     -0.108800
     36 H1          1.2410    0.0250   -1.8630 hc        1 0MJ      0.091700
     37 H2          0.1990    2.1650   -1.2790 hx        1 0MJ      0.108700
     38 H3         -0.7690    1.3960    0.0850 hx        1 0MJ      0.108700
     39 H4         -0.3890   -1.6140   -2.8020 ha        1 0MJ      0.134000
     40 H5          2.9080    1.6380   -0.9040 ha        1 0MJ      0.134000
     41 H6          2.0680   -0.5410    3.5310 ha        1 0MJ      0.174500
     42 H7         -0.9130   -3.3930    1.8490 ha        1 0MJ      0.174500
     43 H8          4.4380    2.0780    1.0120 ha        1 0MJ      0.159500
     44 H9         -1.5940   -3.7570   -2.4180 ha        1 0MJ      0.159500
     45 H10         4.0230    1.0080    3.2270 ha        1 0MJ      0.164500
     46 H11        -1.8670   -4.6500   -0.1070 ha        1 0MJ      0.164500
     47 H12        -1.9140    0.0800   -1.6230 hn        1 0MJ      0.468800
     48 H13        -3.0730    1.7770    0.1970 hc        1 0MJ      0.117700
     49 H14        -4.6520    3.6520   -1.7150 hc        1 0MJ      0.076700
     50 H15        -3.5210    4.1490   -0.3880 hc        1 0MJ      0.076700
     51 H16        -6.8620    2.4190   -1.0930 h1        1 0MJ      0.067700
     52 H17        -7.1730    1.9950    0.6610 h1        1 0MJ      0.067700
     53 H18        -6.2660    0.1100   -0.3830 hn        1 0MJ      0.419800
     54 H20        -4.9720    3.0310    1.3250 h1        1 0MJ      0.103700
     55 H21        -4.0510   -0.1020   -1.1110 h1        1 0MJ      0.052700
     56 H22        -4.9020    1.0760   -2.2250 h1        1 0MJ      0.052700
     57 H23        -6.7970    4.6750   -0.2660 hn        1 0MJ      0.398800
     58 H24        -9.7200    5.3990    1.5180 ha        1 0MJ      0.170500
     59 H25        -7.1160    9.2660    3.3310 ha        1 0MJ      0.185000
     60 H26       -10.6820    7.6810    1.4320 ha        1 0MJ      0.185000
     61 H27        -6.1460    6.9870    3.4210 ha        1 0MJ      0.170500
     62 H28       -10.1430   10.1400    3.2960 hc        1 0MJ      0.093367
     63 H29       -10.2500   10.1060    1.4860 hc        1 0MJ      0.093367
     64 H30        -8.7620   10.7690    2.3010 hc        1 0MJ      0.093367
     65 H162       -1.0860    0.8760   -2.8350 hn        1 0MJ      0.468800
     66 H252       -5.4850    5.3100    0.4720 hn        1 0MJ      0.398800
@<TRIPOS>BOND
     1    1    3 1   
     2    1    4 1   
     3    1    7 1   
     4    1   36 1   
     5    2    5 1   
     6    2    6 1   
     7    3    5 ar  
     8    3    9 ar  
     9    4    6 ar  
    10    4    8 ar  
    11    5   10 ar  
    12    6   11 ar  
    13    7   16 1   
    14    7   37 1   
    15    7   38 1   
    16    8   13 ar  
    17    8   39 1   
    18    9   12 ar  
    19    9   40 1   
    20   10   14 ar  
    21   10   41 1   
    22   11   15 ar  
    23   11   42 1   
    24   12   14 ar  
    25   12   43 1   
    26   13   15 ar  
    27   13   44 1   
    28   14   45 1   
    29   15   46 1   
    30   16   17 1   
    31   16   47 1   
    32   16   65 1   
    33   17   18 1   
    34   17   24 2   
    35   18   19 1   
    36   18   23 1   
    37   18   48 1   
    38   19   22 1   
    39   19   49 1   
    40   19   50 1   
    41   20   21 1   
    42   20   22 1   
    43   20   51 1   
    44   20   52 1   
    45   21   23 1   
    46   21   53 1   
    47   22   25 1   
    48   22   54 1   
    49   23   55 1   
    50   23   56 1   
    51   25   57 1   
    52   25   66 1   
    53   26   27 1   
    54   26   28 1   
    55   26   29 1   
    56   29   30 ar  
    57   29   34 ar  
    58   30   33 ar  
    59   30   58 1   
    60   31   32 ar  
    61   31   33 ar  
    62   31   35 1   
    63   32   34 ar  
    64   32   59 1   
    65   33   60 1   
    66   34   61 1   
    67   35   62 1   
    68   35   63 1   
    69   35   64 1   
@<TRIPOS>SUBSTRUCTURE
     1 0MJ         1 TEMP              0 ****  ****    0 ROOT
