@<TRIPOS>MOLECULE
0MK
   20    20     1     0     0
SMALL
bcc


@<TRIPOS>ATOM
      1 C1         -1.2560   -0.4740    0.3750 c3        1 0MK      0.305900
      2 C2         -0.8180    0.6940   -0.5310 c3        1 0MK      0.127100
      3 C3          0.6700    0.9910   -0.2860 c3        1 0MK      0.152100
      4 C4          1.4550   -0.3120   -0.5490 c3        1 0MK      0.065100
      5 C5          0.9180   -1.4400    0.3390 c3        1 0MK      0.111400
      6 O1         -2.5430   -0.8770   -0.0200 oh        1 0MK     -0.610800
      7 O2         -1.5550    1.8660   -0.2540 oh        1 0MK     -0.574800
      8 O3          0.8280    1.4000    1.0590 oh        1 0MK     -0.585800
      9 O4          2.8060   -0.0220   -0.2250 oh        1 0MK     -0.598800
     10 O5         -0.4730   -1.6410    0.1350 os        1 0MK     -0.451600
     11 H1         -1.2250   -0.1860    1.4620 h2        1 0MK      0.072700
     12 H2         -0.9610    0.4010   -1.6100 h1        1 0MK      0.057700
     13 H3          1.0220    1.8020   -0.9790 h1        1 0MK      0.067700
     14 H4          1.3690   -0.5940   -1.6330 h1        1 0MK      0.055700
     15 H5          1.3830   -2.4250    0.0720 h1        1 0MK      0.062700
     16 H6          1.1150   -1.1930    1.4170 h1        1 0MK      0.062700
     17 H7         -2.6460   -1.8120    0.2040 ho        1 0MK      0.434000
     18 H8         -2.4880    1.6100   -0.2720 ho        1 0MK      0.419000
     19 H9          1.7700    1.5800    1.1780 ho        1 0MK      0.419000
     20 H10         3.3090   -0.8330   -0.3640 ho        1 0MK      0.411000
@<TRIPOS>BOND
     1    1    2 1   
     2    1    6 1   
     3    1   10 1   
     4    1   11 1   
     5    2    3 1   
     6    2    7 1   
     7    2   12 1   
     8    3    4 1   
     9    3    8 1   
    10    3   13 1   
    11    4    5 1   
    12    4    9 1   
    13    4   14 1   
    14    5   10 1   
    15    5   15 1   
    16    5   16 1   
    17    6   17 1   
    18    7   18 1   
    19    8   19 1   
    20    9   20 1   
@<TRIPOS>SUBSTRUCTURE
     1 0MK         1 TEMP              0 ****  ****    0 ROOT
