@<TRIPOS>MOLECULE
0MK
   20    20     1     0     0
SMALL
bcc


@<TRIPOS>ATOM
      1 C1         -1.0810    0.2520   -1.1040 c3        1 0MK      0.305900
      2 C2          0.4350    0.2520   -1.1040 c3        1 0MK      0.127100
      3 C3          1.0000    0.2520    0.2710 c3        1 0MK      0.152100
      4 C4          0.4240   -0.8320    1.1180 c3        1 0MK      0.065100
      5 C5         -1.0980   -0.8290    1.1070 c3        1 0MK      0.111400
      6 O1         -1.5280    0.0810   -2.3980 oh        1 0MK     -0.610800
      7 O2          0.9000    1.4230   -1.7970 oh        1 0MK     -0.574800
      8 O3          0.7190    1.5320    0.8930 oh        1 0MK     -0.585800
      9 O4          0.8780   -0.6580    2.4650 oh        1 0MK     -0.598800
     10 O5         -1.6500   -0.8250   -0.2530 os        1 0MK     -0.451600
     11 H1         -1.3960    1.1150   -0.7730 h2        1 0MK      0.072700
     12 H2          0.7510   -0.5420   -1.5760 h1        1 0MK      0.057700
     13 H3          1.9670    0.1320    0.2160 h1        1 0MK      0.067700
     14 H4          0.7410   -1.6940    0.7860 h1        1 0MK      0.055700
     15 H5         -1.4180   -1.6240    1.5740 h1        1 0MK      0.062700
     16 H6         -1.4150   -0.0360    1.5780 h1        1 0MK      0.062700
     17 H7         -2.3800    0.3240   -2.4520 ho        1 0MK      0.434000
     18 H8          1.4420    1.1810   -2.4570 ho        1 0MK      0.419000
     19 H9          1.4800    1.9120    1.1450 ho        1 0MK      0.419000
     20 H10         1.2310   -1.4170    2.7590 ho        1 0MK      0.411000
@<TRIPOS>BOND
     1    1    2 1   
     2    1    6 1   
     3    1   10 1   
     4    1   11 1   
     5    2    3 1   
     6    2    7 1   
     7    2   12 1   
     8    3    4 1   
     9    3    8 1   
    10    3   13 1   
    11    4    5 1   
    12    4    9 1   
    13    4   14 1   
    14    5   10 1   
    15    5   15 1   
    16    5   16 1   
    17    6   17 1   
    18    7   18 1   
    19    8   19 1   
    20    9   20 1   
@<TRIPOS>SUBSTRUCTURE
     1 0MK         1 TEMP              0 ****  ****    0 ROOT
