@<TRIPOS>MOLECULE
0ML
   31    29     1     0     0
SMALL
bcc


@<TRIPOS>ATOM
      1 N          -2.2310    2.0690   -3.2310 n3        1 0ML     -0.351000
      2 C1         -1.3310    0.9720   -2.9070 c3        1 0ML     -0.040000
      3 C2         -0.3060    1.4420   -1.9210 c3        1 0ML      0.010000
      4 O1          0.8600    0.6800   -2.0570 oh        1 0ML     -0.332000
      5 C3         -0.6470    0.5030   -4.1500 c3        1 0ML     -0.221000
      6 C4         -0.8580    1.2840   -0.5040 c2        1 0ML      0.302000
      7 O2         -2.0450    1.5210   -0.2780 o         1 0ML     -0.382000
      8 N2         -0.0280    0.7410    0.5280 n         1 0ML     -0.345000
      9 C5         -0.6310    0.1340    1.6910 c3        1 0ML     -0.001000
     10 C6          0.4040   -0.7360    2.4120 c2        1 0ML     -0.100000
     11 C7          0.8170   -0.4010    3.6960 c2        1 0ML     -0.124000
     12 C8          1.6520   -1.2570    4.4030 c1        1 0ML     -0.100000
     13 C9          2.0750   -2.4460    3.8290 c1        1 0ML     -0.258000
     14 I1          3.2590   -3.7960    4.9500 i         1 0ML      0.141000
     15 C10         1.6650   -2.7820    2.5500 c1        1 0ML     -0.098000
     16 C11         0.8270   -1.9240    1.8380 c1        1 0ML     -0.116000
     17 H          -3.1030    1.7500   -3.2870 hn        1 0ML      0.160500
     18 H1         -1.8380    0.2410   -2.5210 h1        1 0ML      0.074000
     19 H3         -1.3160    0.3510   -4.8570 hc        1 0ML      0.082333
     20 H4         -0.0200    1.1710   -4.4410 hc        1 0ML      0.082333
     21 H5         -0.1780   -0.3230   -3.9690 hc        1 0ML      0.082333
     22 H6          0.8810    0.7080    0.4140 hn        1 0ML      0.233000
     23 H7         -1.4060   -0.4390    1.4050 h1        1 0ML      0.111500
     24 H8         -0.9530    0.8460    2.3060 h1        1 0ML      0.111500
     25 H9          0.5190    0.4370    4.1040 ha        1 0ML      0.135000
     26 H10         1.9370   -1.0240    5.2920 ha        1 0ML      0.144000
     27 H11         1.9660   -3.6270    2.1420 ha        1 0ML      0.146000
     28 H12         0.5410   -2.1580    0.9480 ha        1 0ML      0.159000
     29 H2         -1.9850    2.4420   -4.0460 hn        1 0ML      0.160500
     30 H14        -0.1010    2.3810   -2.0880 h1        1 0ML      0.116000
     31 H15         1.5740    1.2400   -2.2510 ho        1 0ML      0.218000
@<TRIPOS>BOND
     1    1    2 1   
     2    1   17 1   
     3    1   29 1   
     4    2    3 1   
     5    2    5 1   
     6    2   18 1   
     7    3    4 1   
     8    3    6 1   
     9    3   30 1   
    10    4   31 1   
    11    5   19 1   
    12    5   20 1   
    13    5   21 1   
    14    6    7 1   
    15    6    8 1   
    16    8    9 1   
    17    8   22 1   
    18    9   10 1   
    19    9   23 1   
    20    9   24 1   
    21   10   11 1   
    22   10   16 1   
    23   11   12 1   
    24   11   25 1   
    25   12   26 1   
    26   13   14 1   
    27   13   15 1   
    28   15   27 1   
    29   16   28 1   
@<TRIPOS>SUBSTRUCTURE
     1 0ML         1 TEMP              0 ****  ****    0 ROOT
