@<TRIPOS>MOLECULE
0ML
   31    31     1     0     0
SMALL
bcc


@<TRIPOS>ATOM
      1 N          -3.4820   -1.8460    0.9230 n3        1 0ML     -0.921800
      2 C1         -4.5300   -1.6120   -0.0530 c3        1 0ML      0.132500
      3 C2         -5.0530   -0.1510    0.0510 c3        1 0ML      0.084100
      4 O1         -6.1290    0.0490   -0.8390 oh        1 0ML     -0.586800
      5 C3         -5.7210   -2.5640    0.0400 c3        1 0ML     -0.127100
      6 C4         -3.9150    0.8210   -0.2910 c         1 0ML      0.632100
      7 O2         -3.8440    1.2800   -1.4520 o         1 0ML     -0.628100
      8 N2         -3.0560    1.2080    0.7160 n         1 0ML     -0.526900
      9 C5         -1.9190    2.0500    0.4460 c3        1 0ML      0.121300
     10 C6         -0.6630    1.3260    0.0460 ca        1 0ML     -0.103300
     11 C7         -0.5600    0.7710   -1.2340 ca        1 0ML     -0.119500
     12 C8          0.6090    0.1210   -1.6230 ca        1 0ML     -0.100500
     13 C9          1.6830    0.0220   -0.7370 ca        1 0ML      0.026900
     14 I1          3.3790   -0.9210   -1.3020 i         1 0ML     -0.145900
     15 C10         1.5830    0.5750    0.5400 ca        1 0ML     -0.100500
     16 C11         0.4130    1.2240    0.9310 ca        1 0ML     -0.119500
     17 H          -3.8740   -2.0230    1.8270 hn        1 0ML      0.355800
     18 H1         -4.0740   -1.7240   -1.0830 h1        1 0ML      0.066700
     19 H3         -6.2120   -2.4910    1.0400 hc        1 0ML      0.047033
     20 H4         -6.4740   -2.2940   -0.7400 hc        1 0ML      0.047033
     21 H5         -5.3930   -3.6180   -0.1250 hc        1 0ML      0.047033
     22 H6         -2.9780    0.6050    1.5050 hn        1 0ML      0.319500
     23 H7         -2.1980    2.7640   -0.3840 h1        1 0ML      0.071200
     24 H8         -1.7220    2.6510    1.3810 h1        1 0ML      0.071200
     25 H9         -1.4130    0.8540   -1.9290 ha        1 0ML      0.148000
     26 H10         0.6770   -0.3090   -2.6350 ha        1 0ML      0.144000
     27 H11         2.4240    0.5050    1.2470 ha        1 0ML      0.144000
     28 H12         0.3430    1.6590    1.9400 ha        1 0ML      0.148000
     29 H2         -2.9230   -2.6290    0.6510 hn        1 0ML      0.355800
     30 H14        -5.4830    0.0500    1.0710 h1        1 0ML      0.091700
     31 H15        -5.7650    0.1840   -1.7270 ho        1 0ML      0.428000
@<TRIPOS>BOND
     1    1    2 1   
     2    1   17 1   
     3    1   29 1   
     4    2    3 1   
     5    2    5 1   
     6    2   18 1   
     7    3    4 1   
     8    3    6 1   
     9    3   30 1   
    10    4   31 1   
    11    5   19 1   
    12    5   20 1   
    13    5   21 1   
    14    6    7 2   
    15    6    8 1   
    16    8    9 1   
    17    8   22 1   
    18    9   10 1   
    19    9   23 1   
    20    9   24 1   
    21   10   11 ar  
    22   10   16 ar  
    23   11   12 ar  
    24   11   25 1   
    25   12   13 ar  
    26   12   26 1   
    27   13   14 1   
    28   13   15 ar  
    29   15   16 ar  
    30   15   27 1   
    31   16   28 1   
@<TRIPOS>SUBSTRUCTURE
     1 0ML         1 TEMP              0 ****  ****    0 ROOT
