@<TRIPOS>MOLECULE
0MM
   48    51     1     0     0
SMALL
bcc


@<TRIPOS>ATOM
      1 C1         -0.0490    0.1970   -0.4170 ca        1 0MM     -0.251300
      2 C2          1.3300    0.1750   -0.2270 ca        1 0MM     -0.056000
      3 C3          6.6630   -7.2890   -0.0630 ca        1 0MM     -0.184000
      4 C4          7.4040   -8.4530    0.0830 ca        1 0MM     -0.046000
      5 C5          6.3620   -8.8300    2.2510 ca        1 0MM     -0.049000
      6 C6         -0.8800    0.2640    0.7170 ca        1 0MM      0.422200
      7 C7          1.8440    0.2240    1.0800 ca        1 0MM     -0.253800
      8 C8          4.2350   -0.7250    0.6880 cc        1 0MM     -0.369200
      9 C9          5.7560   -6.8540    0.9320 ca        1 0MM      0.181600
     10 C10         7.2600   -9.2210    1.2480 ca        1 0MM     -0.194200
     11 C11         5.6120   -7.6650    2.0900 ca        1 0MM     -0.015600
     12 C12         3.2820    0.2230    1.2830 cc        1 0MM      0.407800
     13 C13         5.4740   -0.3090    1.1430 cd        1 0MM      0.307000
     14 C14         0.9240    0.2830    2.1560 ca        1 0MM      0.519300
     15 C16         4.6930   -5.2940   -0.6080 c3        1 0MM      0.164800
     16 C17         5.2450   -4.5810    1.6430 c3        1 0MM      0.164800
     17 C18         3.5920   -4.2100   -0.6850 c3        1 0MM      0.088000
     18 C19         4.1510   -3.4890    1.5690 c3        1 0MM      0.088000
     19 C20         6.8580   -0.7410    0.9650 c3        1 0MM     -0.148400
     20 N21        -0.4200    0.3010    1.9780 nb        1 0MM     -0.661000
     21 N22         3.9770    1.1080    2.0310 nd        1 0MM     -0.326300
     22 N23         4.9530   -5.7030    0.7640 nh        1 0MM     -0.641000
     23 N24         3.8250   -3.1050    0.2180 n         1 0MM     -0.464800
     24 N25         8.0600  -10.4600    1.4190 no        1 0MM      0.318200
     25 O26         8.8160  -10.7870    0.5440 o         1 0MM     -0.205500
     26 O27         3.6870   -1.5600   -1.4620 o         1 0MM     -0.598100
     27 O28         7.9310  -11.1020    2.4270 o         1 0MM     -0.205500
     28 O29         5.2600    0.8200    1.9670 os        1 0MM     -0.107100
     29 Cl30        4.4980   -7.2830    3.3150 cl        1 0MM     -0.060400
     30 Cl31        1.5040    0.3150    3.7640 cl        1 0MM     -0.130000
     31 H1         -0.4820    0.1630   -1.4250 ha        1 0MM      0.155000
     32 H2          2.0210    0.1090   -1.0850 ha        1 0MM      0.175000
     33 H4          8.1070   -8.7680   -0.7080 ha        1 0MM      0.175000
     34 H5          6.2420   -9.4490    3.1600 ha        1 0MM      0.186000
     35 H6         -1.9820    0.2880    0.6170 h4        1 0MM      0.032100
     36 H16         4.3360   -6.1910   -1.1860 h1        1 0MM      0.050700
     37 H16A        5.6240   -4.8960   -1.1080 h1        1 0MM      0.050700
     38 H17         6.2420   -4.1170    1.3830 h1        1 0MM      0.050700
     39 H17A        5.2960   -4.9440    2.7070 h1        1 0MM      0.050700
     40 H18         2.6000   -4.6760   -0.4220 h1        1 0MM      0.072950
     41 H18A        3.5450   -3.8360   -1.7470 h1        1 0MM      0.072950
     42 H19         3.2130   -3.8820    2.0590 h1        1 0MM      0.072950
     43 H19A        4.5140   -2.6020    2.1590 h1        1 0MM      0.072950
     44 H20         7.5420   -0.1750    1.6470 hc        1 0MM      0.073700
     45 H20A        6.9470   -1.8360    1.1850 hc        1 0MM      0.073700
     46 H20B        7.1780   -0.5610   -0.0940 hc        1 0MM      0.073700
     47 C15         3.9130   -1.8070   -0.2590 c         1 0MM      0.711700
     48 H3          6.7970   -6.7000   -0.9840 ha        1 0MM      0.153000
@<TRIPOS>BOND
     1    1    2 ar  
     2    1    6 ar  
     3    1   31 1   
     4    2    7 ar  
     5    2   32 1   
     6    3    4 ar  
     7    3    9 ar  
     8    3   48 1   
     9    4   10 ar  
    10    4   33 1   
    11    5   10 ar  
    12    5   11 ar  
    13    5   34 1   
    14    6   20 ar  
    15    6   35 1   
    16    7   12 1   
    17    7   14 ar  
    18    8   12 1   
    19    8   13 2   
    20    8   47 1   
    21    9   11 ar  
    22    9   22 1   
    23   10   24 1   
    24   11   29 1   
    25   12   21 2   
    26   13   19 1   
    27   13   28 1   
    28   14   20 ar  
    29   14   30 1   
    30   15   17 1   
    31   15   22 1   
    32   15   36 1   
    33   15   37 1   
    34   16   18 1   
    35   16   22 1   
    36   16   38 1   
    37   16   39 1   
    38   17   23 1   
    39   17   40 1   
    40   17   41 1   
    41   18   23 1   
    42   18   42 1   
    43   18   43 1   
    44   19   44 1   
    45   19   45 1   
    46   19   46 1   
    47   21   28 1   
    48   23   47 1   
    49   24   25 1   
    50   24   27 1   
    51   26   47 2   
@<TRIPOS>SUBSTRUCTURE
     1 0MM         1 TEMP              0 ****  ****    0 ROOT
