@<TRIPOS>MOLECULE
0MM
   48    51     1     0     0
SMALL
bcc


@<TRIPOS>ATOM
      1 C1         -0.0060    0.2380   -0.4450 ca        1 0MM     -0.251300
      2 C2          1.3660    0.1980   -0.2160 ca        1 0MM     -0.056000
      3 C3          6.6390   -7.3100   -0.1610 ca        1 0MM     -0.184000
      4 C4          7.3680   -8.4840   -0.0350 ca        1 0MM     -0.046000
      5 C5          6.2600   -8.9290    2.0870 ca        1 0MM     -0.049000
      6 C6         -0.8700    0.2730    0.6650 ca        1 0MM      0.422200
      7 C7          1.8430    0.1960    1.1060 ca        1 0MM     -0.253800
      8 C8          4.2370   -0.7570    0.7500 cc        1 0MM     -0.369200
      9 C9          5.7070   -6.9030    0.8220 ca        1 0MM      0.181600
     10 C10         7.1840   -9.2920    1.0970 ca        1 0MM     -0.194200
     11 C11         5.5230   -7.7540    1.9450 ca        1 0MM     -0.015600
     12 C12         3.2740    0.1760    1.3510 cc        1 0MM      0.408800
     13 C13         5.4650   -0.3680    1.2560 cd        1 0MM      0.307000
     14 C14         0.8920    0.2250    2.1560 ca        1 0MM      0.519300
     15 C16         4.7000   -5.2820   -0.6930 c3        1 0MM      0.164800
     16 C17         5.1910   -4.6530    1.5970 c3        1 0MM      0.164800
     17 C18         3.6100   -4.1870   -0.7630 c3        1 0MM      0.088000
     18 C19         4.1070   -3.5500    1.5300 c3        1 0MM      0.088000
     19 C20         6.8510   -0.8050    1.1020 c3        1 0MM     -0.148400
     20 N21        -0.4460    0.2620    1.9400 nb        1 0MM     -0.661000
     21 N22         3.9530    1.0290    2.1500 nd        1 0MM     -0.326300
     22 N23         4.9170   -5.7410    0.6710 nh        1 0MM     -0.641000
     23 N24         3.8240   -3.1160    0.1850 n         1 0MM     -0.464800
     24 N25         7.9700  -10.5430    1.2470 no        1 0MM      0.318200
     25 O26         8.7500  -10.8440    0.3840 o         1 0MM     -0.205500
     26 O27         3.7460   -1.5120   -1.4420 o         1 0MM     -0.598100
     27 O28         7.8070  -11.2190    2.2270 o         1 0MM     -0.205500
     28 O29         5.2340    0.7330    2.1130 os        1 0MM     -0.107100
     29 CL30        4.3760   -7.4060    3.1500 cl        1 0MM     -0.060400
     30 CL31        1.4240    0.1960    3.7810 cl        1 0MM     -0.130000
     31 H1         -0.4100    0.2440   -1.4660 ha        1 0MM      0.155000
     32 H2          2.0820    0.1570   -1.0560 ha        1 0MM      0.175000
     33 H4          8.0920   -8.7770   -0.8160 ha        1 0MM      0.175000
     34 H5          6.1090   -9.5790    2.9690 ha        1 0MM      0.186000
     35 H6         -1.9670    0.3090    0.5340 h4        1 0MM      0.032100
     36 H16         4.3540   -6.1550   -1.3120 h1        1 0MM      0.050700
     37 H16A        5.6490   -4.8740   -1.1510 h1        1 0MM      0.050700
     38 H17         5.2080   -5.0530    2.6480 h1        1 0MM      0.050700
     39 H17A        6.1980   -4.1880    1.3830 h1        1 0MM      0.050700
     40 H18         2.6070   -4.6530   -0.5460 h1        1 0MM      0.072950
     41 H18A        3.5970   -3.7750   -1.8120 h1        1 0MM      0.072950
     42 H19         4.4590   -2.6880    2.1620 h1        1 0MM      0.072950
     43 H19A        3.1520   -3.9530    1.9780 h1        1 0MM      0.072950
     44 H20         7.5180   -0.2690    1.8230 hc        1 0MM      0.073700
     45 H20A        6.9250   -1.9070    1.2870 hc        1 0MM      0.073700
     46 H20B        7.2020   -0.5910    0.0600 hc        1 0MM      0.073700
     47 C15         3.9350   -1.8030   -0.2430 c         1 0MM      0.711700
     48 H3          6.8050   -6.6900   -1.0570 ha        1 0MM      0.153000
@<TRIPOS>BOND
     1    1    2 ar  
     2    1    6 ar  
     3    1   31 1   
     4    2    7 ar  
     5    2   32 1   
     6    3    4 ar  
     7    3    9 ar  
     8    3   48 1   
     9    4   10 ar  
    10    4   33 1   
    11    5   10 ar  
    12    5   11 ar  
    13    5   34 1   
    14    6   20 ar  
    15    6   35 1   
    16    7   12 1   
    17    7   14 ar  
    18    8   12 1   
    19    8   13 2   
    20    8   47 1   
    21    9   11 ar  
    22    9   22 1   
    23   10   24 1   
    24   11   29 1   
    25   12   21 2   
    26   13   19 1   
    27   13   28 1   
    28   14   20 ar  
    29   14   30 1   
    30   15   17 1   
    31   15   22 1   
    32   15   36 1   
    33   15   37 1   
    34   16   18 1   
    35   16   22 1   
    36   16   38 1   
    37   16   39 1   
    38   17   23 1   
    39   17   40 1   
    40   17   41 1   
    41   18   23 1   
    42   18   42 1   
    43   18   43 1   
    44   19   44 1   
    45   19   45 1   
    46   19   46 1   
    47   21   28 1   
    48   23   47 1   
    49   24   25 1   
    50   24   27 1   
    51   26   47 2   
@<TRIPOS>SUBSTRUCTURE
     1 0MM         1 TEMP              0 ****  ****    0 ROOT
