@<TRIPOS>MOLECULE
0MM
   48    43     1     0     0
SMALL
bcc


@<TRIPOS>ATOM
      1 C1         -4.8170    2.8630   -1.2960 c1        1 0MM     -0.111750
      2 C2         -3.5190    2.7120   -0.8860 c1        1 0MM     -0.058000
      3 C3          1.9490   -2.7680    2.3630 c1        1 0MM     -0.111750
      4 C4          1.4480   -3.8490    3.0840 c1        1 0MM     -0.111750
      5 C5          0.6460   -4.8430    1.0400 c1        1 0MM     -0.034000
      6 C6         -5.0910    3.4020   -2.5480 c1        1 0MM     -0.111750
      7 C7         -2.4930    3.0920   -1.7100 c1        1 0MM     -0.074000
      8 C8         -0.3680    2.5660   -0.3060 c1        1 0MM     -0.217000
      9 C9          1.7980   -2.7250    0.9790 c1        1 0MM      0.147000
     10 C10         0.7970   -4.8860    2.4230 c1        1 0MM     -0.162000
     11 C11         1.1460   -3.7620    0.3180 c1        1 0MM     -0.135000
     12 C12        -1.0730    3.3580   -1.1990 c1        1 0MM     -0.032000
     13 C13         0.8160    3.2070   -0.0110 c1        1 0MM      0.020000
     14 C14        -2.7700    3.6300   -2.9610 c2        1 0MM      0.031000
     15 C15        -0.3700    1.2230   -1.0500 c1        1 0MM      0.375000
     16 C16         1.8880   -1.6470   -1.1160 c3        1 0MM     -0.044500
     17 C17         2.2520   -0.4120    0.8980 c3        1 0MM     -0.044500
     18 C18         0.4440   -1.1610   -1.1460 c3        1 0MM     -0.059500
     19 C19         0.8070    0.0670    0.8580 c3        1 0MM     -0.059500
     20 C20         2.0060    3.9860    0.5710 c2        1 0MM     -0.173000
     21 N21        -4.0660    3.7800   -3.3700 n1        1 0MM     -0.130000
     22 N22        -0.3340    4.4650   -1.4470 n2        1 0MM      0.008000
     23 N23         2.4290   -1.6670    0.2160 n3        1 0MM     -0.298000
     24 N24         0.2790    0.0690   -0.4590 n3        1 0MM     -0.317000
     25 N25         0.2840   -5.9960    3.1640 no        1 0MM      0.575000
     26 O26         0.4000   -6.0240    4.3840 o         1 0MM     -0.358000
     27 O27        -0.8030    1.1600   -2.1870 o         1 0MM     -0.327000
     28 O28        -0.3390   -7.0260    2.5110 o         1 0MM     -0.358000
     29 O29         0.8460    4.3730   -0.7060 os        1 0MM     -0.051000
     30 CL30        1.3760   -4.8760   -1.0100 cl        1 0MM      0.002000
     31 CL31       -2.3720    4.5810   -4.3710 cl        1 0MM      0.046000
     32 H1         -5.5530    2.5910   -0.7060 ha        1 0MM      0.162500
     33 H2         -3.3250    2.3330   -0.0040 ha        1 0MM      0.146000
     34 H3          2.4080   -2.0380    2.8290 ha        1 0MM      0.162500
     35 H4          1.5550   -3.8790    4.0600 ha        1 0MM      0.162500
     36 H5          0.1870   -5.5740    0.5740 ha        1 0MM      0.184000
     37 H6         -6.0220    3.5100   -2.8430 ha        1 0MM      0.162500
     38 H16         2.4370   -1.0510   -1.6730 h1        1 0MM      0.102250
     39 H16A        1.9260   -2.5570   -1.4890 h1        1 0MM      0.102250
     40 H17         2.8240    0.2650    0.4720 h1        1 0MM      0.102250
     41 H17A        2.5270   -0.5170    1.8360 h1        1 0MM      0.102250
     42 H18         0.1660   -1.0440   -2.0820 h1        1 0MM      0.111250
     43 H18A       -0.1290   -1.8410   -0.7250 h1        1 0MM      0.111250
     44 H19         0.7630    0.9790    1.2200 h1        1 0MM      0.111250
     45 H19A        0.2590   -0.5260    1.4200 h1        1 0MM      0.111250
     46 H20         1.6780    4.7910    1.0300 ha        1 0MM      0.113667
     47 H20A        2.6140    4.2480   -0.1580 ha        1 0MM      0.113667
     48 H20B        2.4880    3.4170    1.2100 ha        1 0MM      0.113667
@<TRIPOS>BOND
     1    1    6 1   
     2    1   32 1   
     3    2    7 1   
     4    2   33 1   
     5    3    4 1   
     6    3   34 1   
     7    4   35 1   
     8    5   10 1   
     9    5   36 1   
    10    6   37 1   
    11    7   14 1   
    12    8   12 1   
    13    8   13 1   
    14    9   11 1   
    15    9   23 1   
    16   10   25 1   
    17   11   30 1   
    18   12   22 1   
    19   13   29 1   
    20   14   21 1   
    21   14   31 1   
    22   15   24 1   
    23   15   27 1   
    24   16   18 1   
    25   16   23 1   
    26   16   38 1   
    27   16   39 1   
    28   17   19 1   
    29   17   23 1   
    30   17   40 1   
    31   17   41 1   
    32   18   24 1   
    33   18   42 1   
    34   18   43 1   
    35   19   24 1   
    36   19   44 1   
    37   19   45 1   
    38   20   46 1   
    39   20   47 1   
    40   20   48 1   
    41   22   29 1   
    42   25   26 1   
    43   25   28 1   
@<TRIPOS>SUBSTRUCTURE
     1 0MM         1 TEMP              0 ****  ****    0 ROOT
