@<TRIPOS>MOLECULE
0MM
   48    51     1     0     0
SMALL
bcc


@<TRIPOS>ATOM
      1 C1          5.4980    1.5630   -2.2300 ca        1 0MM     -0.251300
      2 C2          4.8850    0.4490   -1.6650 ca        1 0MM     -0.056000
      3 C3         -4.1480   -1.0300   -1.0260 ca        1 0MM     -0.184000
      4 C4         -5.5180   -1.1450   -0.8370 ca        1 0MM     -0.046000
      5 C5         -5.4150    0.5800    0.8780 ca        1 0MM     -0.049000
      6 C6          5.9140    2.6020   -1.3770 ca        1 0MM      0.422200
      7 C7          4.7040    0.3950   -0.2730 ca        1 0MM     -0.253800
      8 C8          2.8200   -1.3910   -0.1030 cc        1 0MM     -0.369200
      9 C9         -3.3670   -0.1180   -0.2760 ca        1 0MM      0.181600
     10 C10        -6.1520   -0.3450    0.1250 ca        1 0MM     -0.194200
     11 C11        -4.0400    0.6980    0.6720 ca        1 0MM     -0.015600
     12 C12         4.0840   -0.7750    0.3240 cc        1 0MM      0.407800
     13 C13         2.6620   -2.4810    0.7350 cd        1 0MM      0.307000
     14 C14         5.1510    1.4960    0.4990 ca        1 0MM      0.519300
     15 C16        -1.4990   -0.3240   -1.8260 c3        1 0MM      0.164800
     16 C17        -1.0970   -0.3860    0.5650 c3        1 0MM      0.164800
     17 C18        -0.0470    0.1540   -2.0620 c3        1 0MM      0.088000
     18 C19         0.3600    0.0850    0.3350 c3        1 0MM      0.088000
     19 C20         1.6760   -3.5480    0.8950 c3        1 0MM     -0.148400
     20 N21         5.7470    2.5860   -0.0440 nb        1 0MM     -0.661000
     21 N22         4.5830   -1.4980    1.3510 nd        1 0MM     -0.326300
     22 N23        -1.9830    0.0490   -0.5060 nh        1 0MM     -0.641000
     23 N24         0.8490   -0.2140   -0.9880 n         1 0MM     -0.464800
     24 N25        -7.6150   -0.4720    0.3430 no        1 0MM      0.318200
     25 O26        -8.2330   -1.2610   -0.3200 o         1 0MM     -0.205500
     26 O27         2.3060   -1.2510   -2.4120 o         1 0MM     -0.598100
     27 O28        -8.1410    0.2160    1.1770 o         1 0MM     -0.205500
     28 O29         3.7710   -2.5010    1.6120 os        1 0MM     -0.107100
     29 CL30       -3.2190    1.8800    1.5750 cl        1 0MM     -0.060400
     30 CL31        4.9280    1.4880    2.1950 cl        1 0MM     -0.130000
     31 H1          5.6560    1.6330   -3.3140 ha        1 0MM      0.155000
     32 H2          4.5290   -0.3860   -2.2950 ha        1 0MM      0.175000
     33 H4         -6.1030   -1.8670   -1.4340 ha        1 0MM      0.175000
     34 H5         -5.9240    1.2190    1.6230 ha        1 0MM      0.186000
     35 H6          6.4100    3.5060   -1.7780 h4        1 0MM      0.032100
     36 H16        -2.1540    0.1680   -2.5980 h1        1 0MM      0.050700
     37 H16A       -1.5390   -1.4410   -1.9850 h1        1 0MM      0.050700
     38 H17        -1.1060   -1.5110    0.6610 h1        1 0MM      0.050700
     39 H17A       -1.4490    0.0510    1.5400 h1        1 0MM      0.050700
     40 H18         0.3130   -0.2900   -3.0330 h1        1 0MM      0.072950
     41 H18A       -0.0410    1.2780   -2.1540 h1        1 0MM      0.072950
     42 H19         0.4070    1.2030    0.4830 h1        1 0MM      0.072950
     43 H19A        1.0020   -0.4040    1.1190 h1        1 0MM      0.072950
     44 H20         1.7030   -4.2260    0.0040 hc        1 0MM      0.073700
     45 H20A        1.8910   -4.1530    1.8120 hc        1 0MM      0.073700
     46 H20B        0.6490   -3.1080    0.9810 hc        1 0MM      0.073700
     47 C15         1.9840   -0.9690   -1.2390 c         1 0MM      0.711700
     48 H3         -3.6720   -1.6730   -1.7830 ha        1 0MM      0.153000
@<TRIPOS>BOND
     1    1    2 ar  
     2    1    6 ar  
     3    1   31 1   
     4    2    7 ar  
     5    2   32 1   
     6    3    4 ar  
     7    3    9 ar  
     8    3   48 1   
     9    4   10 ar  
    10    4   33 1   
    11    5   10 ar  
    12    5   11 ar  
    13    5   34 1   
    14    6   20 ar  
    15    6   35 1   
    16    7   12 1   
    17    7   14 ar  
    18    8   12 1   
    19    8   13 2   
    20    8   47 1   
    21    9   11 ar  
    22    9   22 1   
    23   10   24 1   
    24   11   29 1   
    25   12   21 2   
    26   13   19 1   
    27   13   28 1   
    28   14   20 ar  
    29   14   30 1   
    30   15   17 1   
    31   15   22 1   
    32   15   36 1   
    33   15   37 1   
    34   16   18 1   
    35   16   22 1   
    36   16   38 1   
    37   16   39 1   
    38   17   23 1   
    39   17   40 1   
    40   17   41 1   
    41   18   23 1   
    42   18   42 1   
    43   18   43 1   
    44   19   44 1   
    45   19   45 1   
    46   19   46 1   
    47   21   28 1   
    48   23   47 1   
    49   24   25 1   
    50   24   27 1   
    51   26   47 2   
@<TRIPOS>SUBSTRUCTURE
     1 0MM         1 TEMP              0 ****  ****    0 ROOT
