@<TRIPOS>MOLECULE
0MM
   48    47     1     0     0
SMALL
bcc


@<TRIPOS>ATOM
      1 C1          0.8770   -1.1040   -1.1410 ca        1 0MM     -0.251300
      2 C2          2.2130   -1.1200   -0.7490 ca        1 0MM     -0.055000
      3 C3          5.8840   -6.2350   -0.0110 ca        1 0MM     -0.217000
      4 C4          7.1370   -6.8020   -0.1390 ca        1 0MM     -0.023000
      5 C5          6.2860   -8.9010    0.7690 ca        1 0MM     -0.013000
      6 C6          0.0080   -0.1860   -0.5210 ca        1 0MM      0.423200
      7 C7          2.6500   -0.2240    0.2400 ca        1 0MM     -0.253800
      8 C8          4.8390   -1.3770    1.0600 cc        1 0MM     -0.383200
      9 C9          4.7890   -6.9740    0.5200 ca        1 0MM      0.225600
     10 C10         7.3460   -8.1370    0.2570 ca        1 0MM     -0.239200
     11 C11         5.0270   -8.3270    0.8950 ca        1 0MM     -0.087600
     12 C12         4.0480   -0.2140    0.6360 cc        1 0MM      0.409800
     13 C13         6.0980   -0.8660    1.3270 cd        1 0MM      0.319000
     14 C14         1.6960    0.6560    0.8090 ca        1 0MM      0.518300
     15 C16         1.3870   -5.7840   -2.4800 c1        1 0MM     -0.167750
     16 C17         4.9500   -2.5120    5.6420 c1        1 0MM     -0.167750
     17 C18         2.1120   -4.9740   -1.9800 c1        1 0MM     -0.167750
     18 C19         4.2790   -1.5730    5.3260 c1        1 0MM     -0.167750
     19 C20         7.3810   -1.4120    1.7640 c3        1 0MM     -0.152400
     20 N21         0.3930    0.6740    0.4360 nb        1 0MM     -0.660000
     21 N22         4.8460    0.8760    0.6700 nd        1 0MM     -0.325300
     22 N23         3.5730   -6.3620    0.7260 nh        1 0MM     -0.839200
     23 N24         4.3520   -3.3560    2.3790 n         1 0MM     -0.656000
     24 N25         8.6900   -8.7400    0.1280 no        1 0MM      0.323200
     25 O26         8.8520   -9.8860    0.4530 o         1 0MM     -0.218000
     26 O27         4.0650   -3.4330    0.1250 o         1 0MM     -0.662100
     27 O28         9.5930   -8.0660   -0.2970 o         1 0MM     -0.218000
     28 O29         6.0500    0.5220    1.0680 os        1 0MM     -0.105100
     29 CL30        3.7570   -9.2790    1.5130 cl        1 0MM     -0.085400
     30 CL31        2.1750    1.7450    2.0380 cl        1 0MM     -0.131000
     31 H1          0.5050   -1.7900   -1.9140 ha        1 0MM      0.157000
     32 H2          2.9280   -1.8340   -1.1950 ha        1 0MM      0.170000
     33 H4          7.9740   -6.2130   -0.5540 ha        1 0MM      0.169000
     34 H5          6.4540   -9.9520    1.0690 ha        1 0MM      0.181000
     35 H6         -1.0600   -0.1330   -0.8020 h4        1 0MM      0.033100
     36 H16         3.4170   -5.5000    0.2450 hn        1 0MM      0.434300
     37 H16A        0.7470   -6.5020   -2.9270 ha        1 0MM      0.169500
     38 H17         5.5440   -3.3410    5.9370 ha        1 0MM      0.169500
     39 H17A        2.7800   -6.9510    0.8380 hn        1 0MM      0.434300
     40 H18         4.0320   -4.2900    2.4710 hn        1 0MM      0.326500
     41 H18A        2.7570   -4.2470   -1.5440 ha        1 0MM      0.169500
     42 H19         4.5290   -2.8280    3.2000 hn        1 0MM      0.326500
     43 H19A        3.6840   -0.7360    5.0560 ha        1 0MM      0.169500
     44 H20         7.2210   -2.3600    2.3340 hc        1 0MM      0.076700
     45 H20A        8.0230   -1.6310    0.8710 hc        1 0MM      0.076700
     46 H20B        7.9210   -0.6770    2.4120 hc        1 0MM      0.076700
     47 C15         4.3860   -2.7730    1.1430 c         1 0MM      0.723700
     48 H3          5.7210   -5.1900   -0.3270 ha        1 0MM      0.166000
@<TRIPOS>BOND
     1    1    2 ar  
     2    1    6 ar  
     3    1   31 1   
     4    2    7 ar  
     5    2   32 1   
     6    3    4 ar  
     7    3    9 ar  
     8    3   48 1   
     9    4   10 ar  
    10    4   33 1   
    11    5   10 ar  
    12    5   11 ar  
    13    5   34 1   
    14    6   20 ar  
    15    6   35 1   
    16    7   12 1   
    17    7   14 ar  
    18    8   12 1   
    19    8   13 2   
    20    8   47 1   
    21    9   11 ar  
    22    9   22 1   
    23   10   24 1   
    24   11   29 1   
    25   12   21 2   
    26   13   19 1   
    27   13   28 1   
    28   14   20 ar  
    29   14   30 1   
    30   15   17 3   
    31   15   37 1   
    32   16   18 3   
    33   16   38 1   
    34   17   41 1   
    35   18   43 1   
    36   19   44 1   
    37   19   45 1   
    38   19   46 1   
    39   21   28 1   
    40   22   36 1   
    41   22   39 1   
    42   23   40 1   
    43   23   42 1   
    44   23   47 1   
    45   24   25 1   
    46   24   27 1   
    47   26   47 2   
@<TRIPOS>SUBSTRUCTURE
     1 0MM         1 TEMP              0 ****  ****    0 ROOT
