@<TRIPOS>MOLECULE
0MN
   47    50     1     0     0
SMALL
bcc


@<TRIPOS>ATOM
      1 O3         -0.8130   -2.9050    1.3330 o         1 0MN     -0.405100
      2 C8          0.0470   -2.0850    1.0570 c         1 0MN      0.512100
      3 C7          1.5470   -2.3240    1.0500 c3        1 0MN      0.071400
      4 O2          2.2940   -1.1400    0.8750 os        1 0MN     -0.330900
      5 C6          2.6010   -0.4260    2.0380 ca        1 0MN      0.083100
      6 C5          3.7700    0.3420    1.9810 ca        1 0MN     -0.158000
      7 C4          4.0880    1.1480    3.0750 ca        1 0MN     -0.051000
      8 C3          3.2680    1.1920    4.2000 ca        1 0MN     -0.200000
      9 C22         1.7580   -0.4170    3.1510 ca        1 0MN     -0.264000
     10 C2          2.1050    0.4070    4.2380 ca        1 0MN      0.176100
     11 O1          1.2150    0.3710    5.2840 os        1 0MN     -0.325900
     12 C1          1.5710    1.1150    6.4510 c3        1 0MN      0.108700
     13 N1         -0.4440   -0.6980    0.6900 n4        1 0MN     -0.538200
     14 C9         -0.6370   -0.5560   -0.7560 ca        1 0MN     -0.069400
     15 C14        -1.8990   -0.8170   -1.3190 ca        1 0MN     -0.095500
     16 C13        -2.0790   -0.6630   -2.6890 ca        1 0MN     -0.096500
     17 C12        -1.0150   -0.2530   -3.5100 ca        1 0MN     -0.022900
     18 C11         0.2410   -0.0020   -2.9330 ca        1 0MN     -0.096500
     19 C10         0.4390   -0.1500   -1.5650 ca        1 0MN     -0.095500
     20 C15        -1.1960   -0.0880   -4.9440 cc        1 0MN      0.336800
     21 S          -0.0040    0.7430   -5.8960 ss        1 0MN      0.009900
     22 C21        -0.9120    0.5030   -7.2950 ca        1 0MN     -0.077100
     23 C16        -2.1140   -0.2160   -6.9720 ca        1 0MN      0.071400
     24 N2         -2.2510   -0.5390   -5.6210 nd        1 0MN     -0.488100
     25 C20        -0.6590    0.8870   -8.6140 ca        1 0MN     -0.095000
     26 C19        -1.5780    0.5650   -9.6000 ca        1 0MN     -0.092000
     27 C18        -2.7560   -0.1410   -9.2900 ca        1 0MN     -0.124000
     28 C17        -3.0360   -0.5350   -7.9940 ca        1 0MN     -0.061000
     29 H1          1.7920   -2.9550    0.1450 h1        1 0MN      0.137200
     30 H2          1.8130   -2.8710    1.9970 h1        1 0MN      0.137200
     31 H3          4.4170    0.3020    1.0930 ha        1 0MN      0.166000
     32 H4          5.0070    1.7560    3.0470 ha        1 0MN      0.161000
     33 H5          3.5420    1.8320    5.0520 ha        1 0MN      0.162000
     34 H6          0.8720   -1.0590    3.2330 ha        1 0MN      0.135000
     35 H7          1.6120    2.2070    6.2180 h1        1 0MN      0.060367
     36 H8          2.5460    0.7580    6.8620 h1        1 0MN      0.060367
     37 H9          0.7330    0.8900    7.1590 h1        1 0MN      0.060367
     38 H10         0.2550   -0.0100    1.0080 hn        1 0MN      0.469800
     39 H11        -2.7500   -1.1430   -0.6970 ha        1 0MN      0.164500
     40 H12        -3.0720   -0.8680   -3.1290 ha        1 0MN      0.180500
     41 H13         1.0870    0.3160   -3.5680 ha        1 0MN      0.180500
     42 H14         1.4370    0.0430   -1.1320 ha        1 0MN      0.164500
     43 H15         0.2600    1.4390   -8.8640 ha        1 0MN      0.150000
     44 H16        -1.3880    0.8630  -10.6430 ha        1 0MN      0.150000
     45 H17        -3.4640   -0.3810  -10.0990 ha        1 0MN      0.151000
     46 H18        -3.9570   -1.0870   -7.7510 ha        1 0MN      0.159000
     47 H121       -1.3400   -0.5170    1.1630 hn        1 0MN      0.469800
@<TRIPOS>BOND
     1    1    2 2   
     2    2    3 1   
     3    2   13 1   
     4    3    4 1   
     5    3   29 1   
     6    3   30 1   
     7    4    5 1   
     8    5    6 ar  
     9    5    9 ar  
    10    6    7 ar  
    11    6   31 1   
    12    7    8 ar  
    13    7   32 1   
    14    8   10 ar  
    15    8   33 1   
    16    9   10 ar  
    17    9   34 1   
    18   10   11 1   
    19   11   12 1   
    20   12   35 1   
    21   12   36 1   
    22   12   37 1   
    23   13   14 1   
    24   13   38 1   
    25   13   47 1   
    26   14   15 ar  
    27   14   19 ar  
    28   15   16 ar  
    29   15   39 1   
    30   16   17 ar  
    31   16   40 1   
    32   17   18 ar  
    33   17   20 1   
    34   18   19 ar  
    35   18   41 1   
    36   19   42 1   
    37   20   21 1   
    38   20   24 2   
    39   21   22 1   
    40   22   23 ar  
    41   22   25 ar  
    42   23   24 1   
    43   23   28 ar  
    44   25   26 ar  
    45   25   43 1   
    46   26   27 ar  
    47   26   44 1   
    48   27   28 ar  
    49   27   45 1   
    50   28   46 1   
@<TRIPOS>SUBSTRUCTURE
     1 0MN         1 TEMP              0 ****  ****    0 ROOT
