@<TRIPOS>MOLECULE
0MN
   46    37     1     0     0
SMALL
bcc


@<TRIPOS>ATOM
      1 O3          0.0080    0.3600    0.7860 o         1 0MN     -0.346000
      2 C8          1.2300    0.0990    0.8300 c1        1 0MN      0.277000
      3 C7          2.0010    0.1400    2.2100 c2        1 0MN     -0.048000
      4 O2          1.1360    0.3900    3.2010 os        1 0MN     -0.215000
      5 C6          1.7310    0.3640    4.5130 c1        1 0MN      0.084000
      6 C5          2.3700    1.4880    5.0040 c1        1 0MN     -0.224000
      7 C4          2.9400    1.4690    6.2780 c1        1 0MN     -0.126833
      8 C3          2.8640    0.3070    7.0630 c1        1 0MN     -0.126833
      9 C22         1.6550   -0.7910    5.2930 c1        1 0MN     -0.127000
     10 C2          2.2290   -0.8130    6.5760 c1        1 0MN      0.027000
     11 O1          2.2730   -1.9840    7.2840 o         1 0MN     -0.208000
     12 C1          1.3060   -2.0720    8.3000 c3        1 0MN     -0.077000
     13 N1          1.9100   -0.2180   -0.3270 n3        1 0MN     -0.310000
     14 C9          1.2160   -0.2490   -1.5790 c1        1 0MN      0.093000
     15 C14         0.6890    0.9230   -2.1140 c1        1 0MN     -0.126833
     16 C13        -0.0240    0.8830   -3.3160 c1        1 0MN     -0.126833
     17 C12        -0.2060   -0.3340   -3.9790 c1        1 0MN     -0.068000
     18 C11         0.3260   -1.5100   -3.4380 c1        1 0MN     -0.086000
     19 C10         1.0320   -1.4690   -2.2470 c1        1 0MN     -0.184000
     20 C15        -1.0750   -0.4010   -5.2110 c2        1 0MN     -0.158000
     21 S          -2.4560   -0.6770   -4.6200 ss        1 0MN      0.398000
     22 C21        -3.4950   -0.0400   -5.5540 c1        1 0MN     -0.316000
     23 C16        -2.7960    0.5740   -6.6260 c1        1 0MN      0.027000
     24 N2         -1.2540    0.3450   -6.4080 n1        1 0MN     -0.101000
     25 C20        -4.8580    0.0640   -5.4770 c1        1 0MN     -0.090000
     26 C19        -5.5610    0.7760   -6.4520 c1        1 0MN     -0.126833
     27 C18        -4.8710    1.3830   -7.5130 c1        1 0MN     -0.126833
     28 C17        -3.4950    1.2790   -7.5940 c1        1 0MN     -0.127000
     29 H1          2.4240   -0.7020    2.3640 h4        1 0MN      0.134000
     30 H2          2.6640    0.8300    2.1850 h4        1 0MN      0.134000
     31 H3          2.4220    2.2840    4.4670 ha        1 0MN      0.152000
     32 H4          3.3990    2.2790    6.6300 ha        1 0MN      0.147667
     33 H5          3.2870    0.2930    8.0060 ha        1 0MN      0.147667
     34 H6          1.2000   -1.5910    4.9430 ha        1 0MN      0.158000
     35 H7          0.5080   -1.6020    8.0260 h1        1 0MN      0.086000
     36 H8          1.0970   -2.9840    8.4590 h1        1 0MN      0.086000
     37 H9          1.6750   -1.6480    9.1630 h1        1 0MN      0.086000
     38 H10         2.7850   -0.3040   -0.3090 hn        1 0MN      0.246000
     39 H11         0.8120    1.7370   -1.6680 ha        1 0MN      0.147667
     40 H12        -0.4060    1.7300   -3.7050 ha        1 0MN      0.147667
     41 H13         0.1930   -2.3960   -3.9200 ha        1 0MN      0.139000
     42 H14         1.3950   -2.2760   -1.8790 ha        1 0MN      0.136000
     43 H15        -5.3380   -0.3560   -4.7380 ha        1 0MN      0.139000
     44 H16        -6.5550    0.8510   -6.3960 ha        1 0MN      0.147667
     45 H17        -5.3600    1.8770   -8.1890 ha        1 0MN      0.147667
     46 H18        -3.0250    1.6930   -8.3180 ha        1 0MN      0.158000
@<TRIPOS>BOND
     1    1    2 1   
     2    2   13 1   
     3    3    4 1   
     4    3   29 1   
     5    3   30 1   
     6    4    5 1   
     7    5    6 1   
     8    6   31 1   
     9    7    8 1   
    10    7   32 1   
    11    8   33 1   
    12    9   10 1   
    13    9   34 1   
    14   11   12 1   
    15   12   35 1   
    16   12   36 1   
    17   12   37 1   
    18   13   14 1   
    19   13   38 1   
    20   14   19 1   
    21   15   16 1   
    22   15   39 1   
    23   16   40 1   
    24   17   18 1   
    25   17   20 1   
    26   18   41 1   
    27   19   42 1   
    28   20   21 1   
    29   20   24 1   
    30   21   22 1   
    31   22   25 1   
    32   23   28 1   
    33   25   43 1   
    34   26   27 1   
    35   26   44 1   
    36   27   45 1   
    37   28   46 1   
@<TRIPOS>SUBSTRUCTURE
     1 0MN         1 TEMP              0 ****  ****    0 ROOT
