@<TRIPOS>MOLECULE
0MN
   46    49     1     0     0
SMALL
bcc


@<TRIPOS>ATOM
      1 O3          1.2400    2.8620   -0.5160 o         1 0MN     -0.584100
      2 C8          1.3410    1.7460    0.0250 c         1 0MN      0.667100
      3 C7          1.9530    1.6900    1.4290 c3        1 0MN      0.053400
      4 O2          1.4940    0.5200    2.1060 os        1 0MN     -0.342900
      5 C6          1.9470    0.3650    3.4070 ca        1 0MN      0.152100
      6 C5          2.8350    1.2410    4.0450 ca        1 0MN     -0.232000
      7 C4          3.2200    0.9690    5.3570 ca        1 0MN     -0.060000
      8 C3          2.7400   -0.1490    6.0330 ca        1 0MN     -0.229000
      9 C22         1.4420   -0.7700    4.0570 ca        1 0MN     -0.184000
     10 C2          1.8520   -1.0140    5.3770 ca        1 0MN      0.156100
     11 O1          1.3120   -2.1520    5.9420 os        1 0MN     -0.323900
     12 C1          1.6890   -2.4280    7.2870 c3        1 0MN      0.112700
     13 N1          0.9950    0.5530   -0.5820 ns        1 0MN     -0.452100
     14 C9          0.4120    0.3820   -1.8460 ca        1 0MN      0.085600
     15 C14         0.2700    1.4270   -2.7830 ca        1 0MN     -0.175000
     16 C13        -0.2970    1.1820   -4.0300 ca        1 0MN     -0.070500
     17 C12        -0.7350   -0.1000   -4.3830 ca        1 0MN     -0.151900
     18 C11        -0.5990   -1.1430   -3.4530 ca        1 0MN     -0.070500
     19 C10        -0.0380   -0.9140   -2.2070 ca        1 0MN     -0.175000
     20 C15        -1.3220   -0.3680   -5.6860 cc        1 0MN      0.438800
     21 S          -1.5240   -2.0280   -6.2080 ss        1 0MN     -0.054100
     22 C21        -2.1950   -1.5130   -7.6700 ca        1 0MN     -0.089100
     23 C16        -2.2350   -0.0780   -7.7020 ca        1 0MN      0.088400
     24 N2         -1.7300    0.5480   -6.5540 nd        1 0MN     -0.528100
     25 C20        -2.6710   -2.2510   -8.7540 ca        1 0MN     -0.091000
     26 C19        -3.1820   -1.5840   -9.8570 ca        1 0MN     -0.122000
     27 C18        -3.2240   -0.1800   -9.8940 ca        1 0MN     -0.131000
     28 C17        -2.7590    0.5800   -8.8340 ca        1 0MN     -0.076000
     29 H1          1.6330    2.6100    1.9870 h1        1 0MN      0.078200
     30 H2          3.0700    1.6630    1.3250 h1        1 0MN      0.078200
     31 H3          3.2280    2.1300    3.5360 ha        1 0MN      0.141000
     32 H4          3.9170    1.6520    5.8670 ha        1 0MN      0.137000
     33 H5          3.0590   -0.3420    7.0660 ha        1 0MN      0.142000
     34 H6          0.7440   -1.4490    3.5510 ha        1 0MN      0.165000
     35 H7          1.1320   -3.3700    7.5230 h1        1 0MN      0.046700
     36 H8          2.7910   -2.5910    7.3610 h1        1 0MN      0.046700
     37 H9          1.3680   -1.5990    7.9640 h1        1 0MN      0.046700
     38 H10         1.0460   -0.2670   -0.0130 hn        1 0MN      0.335500
     39 H11         0.6010    2.4510   -2.5400 ha        1 0MN      0.156500
     40 H12        -0.3990    2.0170   -4.7430 ha        1 0MN      0.149000
     41 H13        -0.9450   -2.1580   -3.7110 ha        1 0MN      0.149000
     42 H14         0.0530   -1.7540   -1.5000 ha        1 0MN      0.156500
     43 H15        -2.6400   -3.3510   -8.7300 ha        1 0MN      0.139000
     44 H16        -3.5590   -2.1580  -10.7170 ha        1 0MN      0.135000
     45 H17        -3.6350    0.3210  -10.7840 ha        1 0MN      0.136000
     46 H18        -2.7930    1.6790   -8.8630 ha        1 0MN      0.151000
@<TRIPOS>BOND
     1    1    2 2   
     2    2    3 1   
     3    2   13 1   
     4    3    4 1   
     5    3   29 1   
     6    3   30 1   
     7    4    5 1   
     8    5    6 ar  
     9    5    9 ar  
    10    6    7 ar  
    11    6   31 1   
    12    7    8 ar  
    13    7   32 1   
    14    8   10 ar  
    15    8   33 1   
    16    9   10 ar  
    17    9   34 1   
    18   10   11 1   
    19   11   12 1   
    20   12   35 1   
    21   12   36 1   
    22   12   37 1   
    23   13   14 1   
    24   13   38 1   
    25   14   15 ar  
    26   14   19 ar  
    27   15   16 ar  
    28   15   39 1   
    29   16   17 ar  
    30   16   40 1   
    31   17   18 ar  
    32   17   20 1   
    33   18   19 ar  
    34   18   41 1   
    35   19   42 1   
    36   20   21 1   
    37   20   24 2   
    38   21   22 1   
    39   22   23 ar  
    40   22   25 ar  
    41   23   24 1   
    42   23   28 ar  
    43   25   26 ar  
    44   25   43 1   
    45   26   27 ar  
    46   26   44 1   
    47   27   28 ar  
    48   27   45 1   
    49   28   46 1   
@<TRIPOS>SUBSTRUCTURE
     1 0MN         1 TEMP              0 ****  ****    0 ROOT
