@<TRIPOS>MOLECULE
0MN
   46    49     1     0     0
SMALL
bcc


@<TRIPOS>ATOM
      1 O3          1.6330    0.1780    3.1290 o         1 0MN     -0.584100
      2 C8          2.1400    0.3510    2.0060 c         1 0MN      0.667100
      3 C7          3.6540    0.5770    1.9370 c3        1 0MN      0.053400
      4 O2          4.1390    0.1970    0.6490 os        1 0MN     -0.342900
      5 C6          5.5060    0.3210    0.4630 ca        1 0MN      0.152100
      6 C5          6.3930    0.8240    1.4240 ca        1 0MN     -0.232000
      7 C4          7.7490    0.9040    1.1110 ca        1 0MN     -0.060000
      8 C3          8.2280    0.4960   -0.1310 ca        1 0MN     -0.229000
      9 C22         5.9540   -0.1000   -0.7970 ca        1 0MN     -0.184000
     10 C2          7.3250   -0.0050   -1.0800 ca        1 0MN      0.156100
     11 O1          7.6800   -0.4380   -2.3420 os        1 0MN     -0.323900
     12 C1          9.0650   -0.3730   -2.6630 c3        1 0MN      0.112700
     13 N1          1.4190    0.4160    0.8280 n         1 0MN     -0.452100
     14 C9          0.0380    0.2260    0.6670 ca        1 0MN      0.085600
     15 C14        -0.8630    0.1300    1.7480 ca        1 0MN     -0.175000
     16 C13        -2.2250   -0.0350    1.5160 ca        1 0MN     -0.070500
     17 C12        -2.7300   -0.1060    0.2120 ca        1 0MN     -0.151900
     18 C11        -1.8370   -0.0140   -0.8670 ca        1 0MN     -0.070500
     19 C10        -0.4780    0.1490   -0.6520 ca        1 0MN     -0.175000
     20 C15        -4.1530   -0.2690   -0.0410 cc        1 0MN      0.438800
     21 S          -4.7710    0.0000   -1.6580 ss        1 0MN     -0.054100
     22 C21        -6.3390   -0.3550   -1.1450 ca        1 0MN     -0.089100
     23 C16        -6.3290   -0.6660    0.2570 ca        1 0MN      0.088400
     24 N2         -5.0650   -0.6090    0.8600 nd        1 0MN     -0.528100
     25 C20        -7.5390   -0.3790   -1.8590 ca        1 0MN     -0.091000
     26 C19        -8.7140   -0.7060   -1.1990 ca        1 0MN     -0.122000
     27 C18        -8.7100   -1.0120    0.1720 ca        1 0MN     -0.131000
     28 C17        -7.5360   -0.9960    0.9070 ca        1 0MN     -0.076000
     29 H1          3.8560    1.6670    2.1190 h1        1 0MN      0.078200
     30 H2          4.1380   -0.0500    2.7320 h1        1 0MN      0.078200
     31 H3          6.0420    1.1520    2.4110 ha        1 0MN      0.141000
     32 H4          8.4530    1.2970    1.8610 ha        1 0MN      0.137000
     33 H5          9.3010    0.5690   -0.3540 ha        1 0MN      0.142000
     34 H6          5.2530   -0.4970   -1.5430 ha        1 0MN      0.165000
     35 H7          9.4280    0.6820   -2.6310 h1        1 0MN      0.046700
     36 H8          9.6610   -1.0150   -1.9690 h1        1 0MN      0.046700
     37 H9          9.1070   -0.7750   -3.7070 h1        1 0MN      0.046700
     38 H10         1.9500    0.4770   -0.0160 hn        1 0MN      0.335500
     39 H11        -0.5010    0.1790    2.7890 ha        1 0MN      0.156500
     40 H12        -2.9080   -0.1100    2.3780 ha        1 0MN      0.149000
     41 H13        -2.2160   -0.0740   -1.9010 ha        1 0MN      0.149000
     42 H14         0.1960    0.2150   -1.5210 ha        1 0MN      0.156500
     43 H15        -7.5480   -0.1410   -2.9330 ha        1 0MN      0.139000
     44 H16        -9.6640   -0.7270   -1.7530 ha        1 0MN      0.135000
     45 H17        -9.6590   -1.2670    0.6670 ha        1 0MN      0.136000
     46 H18        -7.5330   -1.2360    1.9800 ha        1 0MN      0.151000
@<TRIPOS>BOND
     1    1    2 2   
     2    2    3 1   
     3    2   13 1   
     4    3    4 1   
     5    3   29 1   
     6    3   30 1   
     7    4    5 1   
     8    5    6 ar  
     9    5    9 ar  
    10    6    7 ar  
    11    6   31 1   
    12    7    8 ar  
    13    7   32 1   
    14    8   10 ar  
    15    8   33 1   
    16    9   10 ar  
    17    9   34 1   
    18   10   11 1   
    19   11   12 1   
    20   12   35 1   
    21   12   36 1   
    22   12   37 1   
    23   13   14 1   
    24   13   38 1   
    25   14   15 ar  
    26   14   19 ar  
    27   15   16 ar  
    28   15   39 1   
    29   16   17 ar  
    30   16   40 1   
    31   17   18 ar  
    32   17   20 1   
    33   18   19 ar  
    34   18   41 1   
    35   19   42 1   
    36   20   21 1   
    37   20   24 2   
    38   21   22 1   
    39   22   23 ar  
    40   22   25 ar  
    41   23   24 1   
    42   23   28 ar  
    43   25   26 ar  
    44   25   43 1   
    45   26   27 ar  
    46   26   44 1   
    47   27   28 ar  
    48   27   45 1   
    49   28   46 1   
@<TRIPOS>SUBSTRUCTURE
     1 0MN         1 TEMP              0 ****  ****    0 ROOT
