@<TRIPOS>MOLECULE
0MN
   46    49     1     0     0
SMALL
bcc


@<TRIPOS>ATOM
      1 O3          0.5170    2.9710    0.5470 o         1 0MN     -0.582100
      2 C8          1.5750    2.3180    0.5390 c         1 0MN      0.634100
      3 C7          2.6130    2.5780    1.6370 c3        1 0MN      0.050400
      4 O2          3.4320    1.4550    1.9280 os        1 0MN     -0.331900
      5 C6          2.9190    0.5260    2.8230 ca        1 0MN      0.131100
      6 C5          3.8730   -0.3590    3.3600 ca        1 0MN     -0.183000
      7 C4          3.4480   -1.3470    4.2390 ca        1 0MN     -0.069000
      8 C3          2.1030   -1.4660    4.5970 ca        1 0MN     -0.229000
      9 C22         1.5680    0.4340    3.1540 ca        1 0MN     -0.223000
     10 C2          1.1720   -0.5750    4.0530 ca        1 0MN      0.159100
     11 O1         -0.1800   -0.5910    4.3300 os        1 0MN     -0.321900
     12 C1         -0.6290   -1.6110    5.2160 c3        1 0MN      0.112700
     13 N1          1.9150    1.3970   -0.4360 n         1 0MN     -0.457100
     14 C9          1.1400    0.9890   -1.5320 ca        1 0MN      0.087600
     15 C14        -0.0770    1.6030   -1.8910 ca        1 0MN     -0.175500
     16 C13        -0.7880    1.1600   -3.0020 ca        1 0MN     -0.070500
     17 C12        -0.3140    0.1010   -3.7850 ca        1 0MN     -0.152900
     18 C11         0.8990   -0.5130   -3.4330 ca        1 0MN     -0.070500
     19 C10         1.6170   -0.0840   -2.3280 ca        1 0MN     -0.175500
     20 C15        -1.0520   -0.3730   -4.9450 cc        1 0MN      0.438800
     21 S          -0.6360   -1.9230   -5.6480 ss        1 0MN     -0.055100
     22 C21        -1.8380   -1.7420   -6.8190 ca        1 0MN     -0.089100
     23 C16        -2.5180   -0.4930   -6.6230 ca        1 0MN      0.088400
     24 N2         -2.0460    0.2670   -5.5440 nd        1 0MN     -0.529100
     25 C20        -2.2160   -2.5890   -7.8630 ca        1 0MN     -0.091000
     26 C19        -3.2520   -2.2090   -8.7030 ca        1 0MN     -0.122000
     27 C18        -3.9210   -0.9880   -8.5150 ca        1 0MN     -0.131000
     28 C17        -3.5690   -0.1270   -7.4890 ca        1 0MN     -0.076000
     29 H1          2.0810    2.9560    2.5490 h1        1 0MN      0.095200
     30 H2          3.3420    3.3500    1.2630 h1        1 0MN      0.095200
     31 H3          4.9290   -0.2580    3.0780 ha        1 0MN      0.151000
     32 H4          4.1830   -2.0470    4.6650 ha        1 0MN      0.137000
     33 H5          1.7930   -2.2530    5.2970 ha        1 0MN      0.141000
     34 H6          0.8100    1.1110    2.7330 ha        1 0MN      0.166000
     35 H7         -1.7330   -1.4320    5.2760 h1        1 0MN      0.047033
     36 H8         -0.1550   -1.4960    6.2210 h1        1 0MN      0.047033
     37 H9         -0.4160   -2.6220    4.7930 h1        1 0MN      0.047033
     38 H10         2.7650    0.8930   -0.2920 hn        1 0MN      0.331500
     39 H11        -0.4830    2.4390   -1.2960 ha        1 0MN      0.156500
     40 H12        -1.7370    1.6580   -3.2620 ha        1 0MN      0.148500
     41 H13         1.2900   -1.3460   -4.0410 ha        1 0MN      0.148500
     42 H14         2.5640   -0.5880   -2.0790 ha        1 0MN      0.156500
     43 H15        -1.6960   -3.5460   -8.0140 ha        1 0MN      0.139000
     44 H16        -3.5580   -2.8690   -9.5280 ha        1 0MN      0.135000
     45 H17        -4.7390   -0.7140   -9.1990 ha        1 0MN      0.136000
     46 H18        -4.0920    0.8300   -7.3430 ha        1 0MN      0.151000
@<TRIPOS>BOND
     1    1    2 2   
     2    2    3 1   
     3    2   13 1   
     4    3    4 1   
     5    3   29 1   
     6    3   30 1   
     7    4    5 1   
     8    5    6 ar  
     9    5    9 ar  
    10    6    7 ar  
    11    6   31 1   
    12    7    8 ar  
    13    7   32 1   
    14    8   10 ar  
    15    8   33 1   
    16    9   10 ar  
    17    9   34 1   
    18   10   11 1   
    19   11   12 1   
    20   12   35 1   
    21   12   36 1   
    22   12   37 1   
    23   13   14 1   
    24   13   38 1   
    25   14   15 ar  
    26   14   19 ar  
    27   15   16 ar  
    28   15   39 1   
    29   16   17 ar  
    30   16   40 1   
    31   17   18 ar  
    32   17   20 1   
    33   18   19 ar  
    34   18   41 1   
    35   19   42 1   
    36   20   21 1   
    37   20   24 2   
    38   21   22 1   
    39   22   23 ar  
    40   22   25 ar  
    41   23   24 1   
    42   23   28 ar  
    43   25   26 ar  
    44   25   43 1   
    45   26   27 ar  
    46   26   44 1   
    47   27   28 ar  
    48   27   45 1   
    49   28   46 1   
@<TRIPOS>SUBSTRUCTURE
     1 0MN         1 TEMP              0 ****  ****    0 ROOT
