@<TRIPOS>MOLECULE
0MO
   42    43     1     0     0
SMALL
bcc


@<TRIPOS>ATOM
      1 C1         -0.1590    0.0650    0.2910 c3        1 0MO     -0.092100
      2 N1          9.1670   -2.0620   -1.9070 ns        1 0MO     -0.524900
      3 O1          4.0380    0.0920    2.7130 os        1 0MO     -0.306900
      4 C2          1.3430    0.0530    0.1670 c3        1 0MO     -0.079400
      5 N2          7.9190   -2.3430    0.0670 ns        1 0MO     -0.512900
      6 O2          4.9490    0.0050    5.1430 os        1 0MO     -0.301900
      7 C3          2.0060    0.0790    1.5270 c3        1 0MO     -0.085400
      8 O3          7.1530   -3.3010   -1.9560 o         1 0MO     -0.619500
      9 C4          3.5170    0.0660    1.3760 c3        1 0MO      0.125400
     10 C5          5.4100    0.0350    2.8210 ca        1 0MO      0.116100
     11 C6          5.9100   -0.0100    4.1540 ca        1 0MO      0.105100
     12 C7          5.4330   -0.0510    6.4810 c3        1 0MO      0.109700
     13 C8          7.2850   -0.0600    4.3730 ca        1 0MO     -0.176000
     14 C9          8.1650   -0.0690    3.2880 ca        1 0MO     -0.122000
     15 C10         7.6840   -0.0280    1.9820 ca        1 0MO     -0.091300
     16 C11         8.6260   -0.0330    0.8300 c3        1 0MO     -0.054100
     17 C12         9.0260   -1.4540    0.4240 c3        1 0MO      0.054700
     18 C13         9.9400   -1.4170   -0.8540 c3        1 0MO      0.040000
     19 C14         7.9930   -2.6340   -1.3280 c         1 0MO      0.739500
     20 C15         6.3010    0.0260    1.7490 ca        1 0MO     -0.189000
     21 H1         -0.5140   -0.8250    0.8640 hc        1 0MO      0.035367
     22 H1A        -0.6300    0.0460   -0.7210 hc        1 0MO      0.035367
     23 H1B        -0.5030    0.9840    0.8240 hc        1 0MO      0.035367
     24 H41         9.6620   -2.6320   -2.5540 hn        1 0MO      0.308500
     25 H2          1.6790    0.9410   -0.4320 hc        1 0MO      0.040700
     26 H2A         1.6670   -0.8650   -0.3920 hc        1 0MO      0.040700
     27 HN2         7.0220   -2.1110    0.4310 hn        1 0MO      0.313500
     28 H3          1.6960    0.9960    2.0930 hc        1 0MO      0.059700
     29 H3A         1.6850   -0.8090    2.1320 hc        1 0MO      0.059700
     30 H4          3.8630   -0.8640    0.8540 h1        1 0MO      0.038700
     31 H4A         3.8750    0.9700    0.8170 h1        1 0MO      0.038700
     32 H7          4.4960   -0.0340    7.0940 h1        1 0MO      0.044700
     33 H7A         6.0030   -0.9950    6.6570 h1        1 0MO      0.044700
     34 H7B         6.0690    0.8390    6.7090 h1        1 0MO      0.044700
     35 H8          7.6880   -0.0930    5.3950 ha        1 0MO      0.141000
     36 H9          9.2490   -0.1100    3.4740 ha        1 0MO      0.133000
     37 H11         8.1640    0.4960   -0.0460 hc        1 0MO      0.060700
     38 H11A        9.5630    0.5220    1.1020 hc        1 0MO      0.060700
     39 H12         9.5790   -1.9350    1.2800 h1        1 0MO      0.076700
     40 H15         5.9290    0.0730    0.7150 ha        1 0MO      0.141000
     41 H13        10.1570   -0.3600   -1.1630 h1        1 0MO      0.055200
     42 H22        10.9090   -1.9410   -0.6470 h1        1 0MO      0.055200
@<TRIPOS>BOND
     1    1    4 1   
     2    1   21 1   
     3    1   22 1   
     4    1   23 1   
     5    2   18 1   
     6    2   19 1   
     7    2   24 1   
     8    3    9 1   
     9    3   10 1   
    10    4    7 1   
    11    4   25 1   
    12    4   26 1   
    13    5   17 1   
    14    5   19 1   
    15    5   27 1   
    16    6   11 1   
    17    6   12 1   
    18    7    9 1   
    19    7   28 1   
    20    7   29 1   
    21    8   19 2   
    22    9   30 1   
    23    9   31 1   
    24   10   11 ar  
    25   10   20 ar  
    26   11   13 ar  
    27   12   32 1   
    28   12   33 1   
    29   12   34 1   
    30   13   14 ar  
    31   13   35 1   
    32   14   15 ar  
    33   14   36 1   
    34   15   16 1   
    35   15   20 ar  
    36   16   17 1   
    37   16   37 1   
    38   16   38 1   
    39   17   18 1   
    40   17   39 1   
    41   18   41 1   
    42   18   42 1   
    43   20   40 1   
@<TRIPOS>SUBSTRUCTURE
     1 0MO         1 TEMP              0 ****  ****    0 ROOT
