@<TRIPOS>MOLECULE
0MO
   42    41     1     0     0
SMALL
bcc


@<TRIPOS>ATOM
      1 C1         -6.2380    2.4070   -0.0880 c3        1 0MO     -0.210000
      2 N1          5.4610   -2.2510   -2.3800 n         1 0MO     -0.335000
      3 O1         -2.0820   -0.0460    0.5610 os        1 0MO     -0.217000
      4 C2         -4.7330    2.4950   -0.0890 c3        1 0MO     -0.157000
      5 N2          3.2620   -3.0200   -2.0640 n         1 0MO     -0.322000
      6 O2         -0.8300    0.0780    3.0580 os        1 0MO     -0.205000
      7 C3         -4.1460    1.0960    0.0070 c3        1 0MO     -0.165000
      8 O3          4.6540   -4.0720   -3.6850 o         1 0MO     -0.341000
      9 C4         -2.6270    1.1830    0.0330 c3        1 0MO     -0.020000
     10 C5         -0.6290   -0.0540    0.6580 c2        1 0MO      0.041000
     11 C6         -0.0110    0.2070    1.8860 c2        1 0MO      0.056000
     12 C7         -0.4970    0.9940    4.1040 c3        1 0MO     -0.078000
     13 C8          1.3720    0.0790    2.0130 c1        1 0MO     -0.187000
     14 C9          2.1420   -0.3110    0.9140 c1        1 0MO     -0.101000
     15 C10         1.5270   -0.5740   -0.3140 c1        1 0MO     -0.104000
     16 C11         2.3910   -0.8410   -1.5610 c2        1 0MO     -0.139000
     17 C12         3.4460   -1.9050   -1.2380 c3        1 0MO     -0.022000
     18 C13         4.8170   -1.3530   -1.4970 c3        1 0MO     -0.076000
     19 C14         4.4760   -3.2130   -2.8380 c2        1 0MO      0.330000
     20 C15         0.1420   -0.4450   -0.4420 c2        1 0MO     -0.118000
     21 H1         -6.6180    3.3080   -0.1130 hc        1 0MO      0.074000
     22 H1A        -6.5360    1.9050   -0.8760 hc        1 0MO      0.074000
     23 H1B        -6.5350    1.9530    0.7160 hc        1 0MO      0.074000
     24 H41         6.2990   -2.1640   -2.7010 hn        1 0MO      0.222000
     25 H2         -4.4300    2.9210   -0.9210 hc        1 0MO      0.078000
     26 H2A        -4.4350    3.0300    0.6820 hc        1 0MO      0.078000
     27 HN2         2.4920   -3.4950   -2.1530 hn        1 0MO      0.230000
     28 H3         -4.4600    0.6680    0.8240 hc        1 0MO      0.095500
     29 H3A        -4.4250    0.5770   -0.7560 hc        1 0MO      0.095500
     30 H4         -2.2910    1.3240   -0.8830 h1        1 0MO      0.082000
     31 H4A        -2.3510    1.9350    0.6020 h1        1 0MO      0.082000
     32 H7         -1.2800    1.1200    4.6910 h1        1 0MO      0.085667
     33 H7A         0.2570    0.6320    4.6330 h1        1 0MO      0.085667
     34 H7B        -0.2400    1.8510    3.7170 h1        1 0MO      0.085667
     35 H8          1.8060    0.2630    2.8760 ha        1 0MO      0.140000
     36 H9          3.1170   -0.4010    1.0050 ha        1 0MO      0.133000
     37 H11         2.8380   -0.0080   -1.8340 ha        1 0MO      0.100500
     38 H11A        1.8210   -1.1580   -2.2890 ha        1 0MO      0.100500
     39 H12         3.3710   -2.1710   -0.3070 h1        1 0MO      0.115000
     40 H15        -0.2890   -0.6280   -1.3030 ha        1 0MO      0.150000
     41 H13         5.2980   -1.3990   -0.6550 h1        1 0MO      0.094000
     42 H22         4.6930   -0.5180   -1.9920 h1        1 0MO      0.094000
@<TRIPOS>BOND
     1    1    4 1   
     2    1   21 1   
     3    1   22 1   
     4    1   23 1   
     5    2   18 1   
     6    2   19 1   
     7    2   24 1   
     8    3    9 1   
     9    3   10 1   
    10    4    7 1   
    11    4   25 1   
    12    4   26 1   
    13    5   17 1   
    14    5   19 1   
    15    5   27 1   
    16    6   11 1   
    17    6   12 1   
    18    7    9 1   
    19    7   28 1   
    20    7   29 1   
    21    8   19 1   
    22    9   30 1   
    23    9   31 1   
    24   10   11 1   
    25   10   20 1   
    26   11   13 1   
    27   12   32 1   
    28   12   33 1   
    29   12   34 1   
    30   13   35 1   
    31   14   15 1   
    32   14   36 1   
    33   15   20 1   
    34   16   17 1   
    35   16   37 1   
    36   16   38 1   
    37   17   18 1   
    38   17   39 1   
    39   18   41 1   
    40   18   42 1   
    41   20   40 1   
@<TRIPOS>SUBSTRUCTURE
     1 0MO         1 TEMP              0 ****  ****    0 ROOT
