@<TRIPOS>MOLECULE
0MO
   42    43     1     0     0
SMALL
bcc


@<TRIPOS>ATOM
      1 C1          4.5050    4.4540   -0.0910 c3        1 0MO     -0.092100
      2 N1         -4.7590    1.2060   -0.1210 n         1 0MO     -0.524900
      3 O1          2.3860    0.0970   -0.0810 os        1 0MO     -0.306900
      4 C2          3.2260    3.6980   -0.3450 c3        1 0MO     -0.079400
      5 N2         -2.8080    0.3660    0.8890 n         1 0MO     -0.512900
      6 O2          2.8900   -2.3740    0.5400 os        1 0MO     -0.301900
      7 C3          3.4050    2.2180   -0.0890 c3        1 0MO     -0.085400
      8 O3         -3.5140    2.5770    1.3510 o         1 0MO     -0.619500
      9 C4          2.1060    1.4770   -0.3510 c3        1 0MO      0.125400
     10 C5          1.3200   -0.7670   -0.2080 ca        1 0MO      0.116100
     11 C6          1.5970   -2.1220    0.1290 ca        1 0MO      0.105100
     12 C7          3.1790   -3.7230    0.8920 c3        1 0MO      0.109700
     13 C8          0.5890   -3.0780    0.0260 ca        1 0MO     -0.176000
     14 C9         -0.6860   -2.7040   -0.4040 ca        1 0MO     -0.122000
     15 C10        -0.9660   -1.3800   -0.7350 ca        1 0MO     -0.091300
     16 C11        -2.3240   -0.9880   -1.1970 c3        1 0MO     -0.054100
     17 C12        -3.2610   -0.6840   -0.0250 c3        1 0MO      0.054700
     18 C13        -4.6510   -0.1790   -0.5590 c3        1 0MO      0.040000
     19 C14        -3.6750    1.4920    0.7640 c         1 0MO      0.739500
     20 C15         0.0440   -0.4090   -0.6360 ca        1 0MO     -0.189000
     21 H1          4.8360    4.3260    0.9680 hc        1 0MO      0.035367
     22 H1A         5.3200    4.0860   -0.7600 hc        1 0MO      0.035367
     23 H1B         4.3540    5.5440   -0.2840 hc        1 0MO      0.035367
     24 H41        -5.6560    1.5280    0.1620 hn        1 0MO      0.308500
     25 H2          2.4140    4.0980    0.3190 hc        1 0MO      0.040700
     26 H2A         2.8970    3.8590   -1.4050 hc        1 0MO      0.040700
     27 HN2        -1.8300    0.5510    0.9090 hn        1 0MO      0.313500
     28 H3          4.2100    1.8030   -0.7510 hc        1 0MO      0.059700
     29 H3A         3.7260    2.0420    0.9710 hc        1 0MO      0.059700
     30 H4          1.7830    1.5920   -1.4190 h1        1 0MO      0.038700
     31 H4A         1.2910    1.8380    0.3300 h1        1 0MO      0.038700
     32 H7          4.2570   -3.6850    1.1920 h1        1 0MO      0.044700
     33 H7A         2.5430   -4.0540    1.7480 h1        1 0MO      0.044700
     34 H7B         3.0380   -4.3990    0.0140 h1        1 0MO      0.044700
     35 H8          0.7860   -4.1290    0.2810 ha        1 0MO      0.141000
     36 H9         -1.4740   -3.4680   -0.4810 ha        1 0MO      0.133000
     37 H11        -2.2570   -0.0920   -1.8710 hc        1 0MO      0.060700
     38 H11A       -2.7800   -1.8230   -1.7920 hc        1 0MO      0.060700
     39 H12        -3.4000   -1.6210    0.5840 h1        1 0MO      0.076700
     40 H15        -0.1810    0.6320   -0.9130 ha        1 0MO      0.141000
     41 H13        -5.4740   -0.8240   -0.1540 h1        1 0MO      0.055200
     42 H22        -4.6860   -0.2060   -1.6800 h1        1 0MO      0.055200
@<TRIPOS>BOND
     1    1    4 1   
     2    1   21 1   
     3    1   22 1   
     4    1   23 1   
     5    2   18 1   
     6    2   19 1   
     7    2   24 1   
     8    3    9 1   
     9    3   10 1   
    10    4    7 1   
    11    4   25 1   
    12    4   26 1   
    13    5   17 1   
    14    5   19 1   
    15    5   27 1   
    16    6   11 1   
    17    6   12 1   
    18    7    9 1   
    19    7   28 1   
    20    7   29 1   
    21    8   19 2   
    22    9   30 1   
    23    9   31 1   
    24   10   11 ar  
    25   10   20 ar  
    26   11   13 ar  
    27   12   32 1   
    28   12   33 1   
    29   12   34 1   
    30   13   14 ar  
    31   13   35 1   
    32   14   15 ar  
    33   14   36 1   
    34   15   16 1   
    35   15   20 ar  
    36   16   17 1   
    37   16   37 1   
    38   16   38 1   
    39   17   18 1   
    40   17   39 1   
    41   18   41 1   
    42   18   42 1   
    43   20   40 1   
@<TRIPOS>SUBSTRUCTURE
     1 0MO         1 TEMP              0 ****  ****    0 ROOT
