@<TRIPOS>MOLECULE
0MO
   42    43     1     0     0
SMALL
bcc


@<TRIPOS>ATOM
      1 C1         -0.1600    0.0640    0.2940 c3        1 0MO     -0.092100
      2 N1          9.1690   -2.0580   -1.9080 n         1 0MO     -0.524900
      3 O1          4.0380    0.0880    2.7130 os        1 0MO     -0.306900
      4 C2          1.3420    0.0520    0.1690 c3        1 0MO     -0.079400
      5 N2          7.9220   -2.3410    0.0670 n         1 0MO     -0.512900
      6 O2          4.9500    0.0010    5.1440 os        1 0MO     -0.301900
      7 C3          2.0050    0.0760    1.5290 c3        1 0MO     -0.085400
      8 O3          7.1560   -3.3010   -1.9570 o         1 0MO     -0.619500
      9 C4          3.5160    0.0640    1.3770 c3        1 0MO      0.125400
     10 C5          5.4100    0.0330    2.8210 ca        1 0MO      0.116100
     11 C6          5.9100   -0.0120    4.1540 ca        1 0MO      0.105100
     12 C7          5.4340   -0.0540    6.4810 c3        1 0MO      0.109700
     13 C8          7.2850   -0.0600    4.3720 ca        1 0MO     -0.176000
     14 C9          8.1650   -0.0680    3.2870 ca        1 0MO     -0.122000
     15 C10         7.6830   -0.0270    1.9810 ca        1 0MO     -0.091300
     16 C11         8.6250   -0.0300    0.8290 c3        1 0MO     -0.054100
     17 C12         9.0270   -1.4500    0.4230 c3        1 0MO      0.054700
     18 C13         9.9400   -1.4120   -0.8560 c3        1 0MO      0.040000
     19 C14         7.9950   -2.6320   -1.3280 c         1 0MO      0.739500
     20 C15         6.3000    0.0250    1.7490 ca        1 0MO     -0.189000
     21 H1         -0.5150   -0.8280    0.8650 hc        1 0MO      0.035367
     22 H1A        -0.5040    0.9820    0.8290 hc        1 0MO      0.035367
     23 H1B        -0.6320    0.0470   -0.7180 hc        1 0MO      0.035367
     24 H41         9.6640   -2.6270   -2.5550 hn        1 0MO      0.308500
     25 H2          1.6660   -0.8640   -0.3920 hc        1 0MO      0.040700
     26 H2A         1.6770    0.9420   -0.4280 hc        1 0MO      0.040700
     27 HN2         7.0240   -2.1110    0.4310 hn        1 0MO      0.313500
     28 H3          1.6950    0.9910    2.0970 hc        1 0MO      0.059700
     29 H3A         1.6850   -0.8130    2.1320 hc        1 0MO      0.059700
     30 H4          3.8730    0.9690    0.8200 h1        1 0MO      0.038700
     31 H4A         3.8620   -0.8650    0.8530 h1        1 0MO      0.038700
     32 H7          6.0060   -0.9980    6.6570 h1        1 0MO      0.044700
     33 H7A         4.4980   -0.0390    7.0940 h1        1 0MO      0.044700
     34 H7B         6.0690    0.8370    6.7090 h1        1 0MO      0.044700
     35 H8          7.6890   -0.0930    5.3940 ha        1 0MO      0.141000
     36 H9          9.2490   -0.1060    3.4730 ha        1 0MO      0.133000
     37 H11         8.1620    0.4980   -0.0470 hc        1 0MO      0.060700
     38 H11A        9.5610    0.5270    1.1000 hc        1 0MO      0.060700
     39 H12         9.5810   -1.9310    1.2780 h1        1 0MO      0.076700
     40 H15         5.9280    0.0720    0.7150 ha        1 0MO      0.141000
     41 H13        10.1560   -0.3550   -1.1650 h1        1 0MO      0.055200
     42 H22        10.9110   -1.9340   -0.6500 h1        1 0MO      0.055200
@<TRIPOS>BOND
     1    1    4 1   
     2    1   21 1   
     3    1   22 1   
     4    1   23 1   
     5    2   18 1   
     6    2   19 1   
     7    2   24 1   
     8    3    9 1   
     9    3   10 1   
    10    4    7 1   
    11    4   25 1   
    12    4   26 1   
    13    5   17 1   
    14    5   19 1   
    15    5   27 1   
    16    6   11 1   
    17    6   12 1   
    18    7    9 1   
    19    7   28 1   
    20    7   29 1   
    21    8   19 2   
    22    9   30 1   
    23    9   31 1   
    24   10   11 ar  
    25   10   20 ar  
    26   11   13 ar  
    27   12   32 1   
    28   12   33 1   
    29   12   34 1   
    30   13   14 ar  
    31   13   35 1   
    32   14   15 ar  
    33   14   36 1   
    34   15   16 1   
    35   15   20 ar  
    36   16   17 1   
    37   16   37 1   
    38   16   38 1   
    39   17   18 1   
    40   17   39 1   
    41   18   41 1   
    42   18   42 1   
    43   20   40 1   
@<TRIPOS>SUBSTRUCTURE
     1 0MO         1 TEMP              0 ****  ****    0 ROOT
