@<TRIPOS>MOLECULE
0MP
   75    78     1     0     0
SMALL
bcc


@<TRIPOS>ATOM
      1 C2          0.5810    0.0490    1.6590 cy        1 0MP     -0.090400
      2 C3          2.0320    0.5670    1.6430 cy        1 0MP     -0.079400
      3 C4          1.5320    2.0150    1.4700 cy        1 0MP     -0.090400
      4 C1          0.0590    1.5030    1.4510 cy        1 0MP      0.091800
      5 C13        -0.7320    1.7320    0.1740 c3        1 0MP     -0.120400
      6 O12        -0.5830    2.0320    2.6230 os        1 0MP     -0.440100
      7 C5         -1.9450    1.7470    2.6780 ca        1 0MP      0.628600
      8 N10        -2.4520    1.2190    3.8170 nb        1 0MP     -0.623000
      9 C9         -3.7860    1.0440    3.8360 ca        1 0MP      0.469200
     10 C8         -4.6610    1.3620    2.7640 ca        1 0MP     -0.169600
     11 C14        -6.1160    1.0870    2.8780 c3        1 0MP     -0.043100
     12 C15        -6.9290    2.2330    3.4940 c3        1 0MP     -0.051000
     13 C17        -8.3850    1.7880    3.5670 c3        1 0MP     -0.091433
     14 C18        -6.4340    2.5440    4.8980 c3        1 0MP     -0.091433
     15 C16        -6.8340    3.4770    2.6260 c3        1 0MP     -0.091433
     16 C7         -4.1080    1.9050    1.6000 ca        1 0MP     -0.039000
     17 C6         -2.7260    2.1100    1.5490 ca        1 0MP     -0.363600
     18 C11        -1.9650    2.6220    0.3780 c3        1 0MP      0.228800
     19 N29        -1.5550    4.0630    0.6940 ny        1 0MP     -0.771000
     20 C28        -1.1350    4.8390   -0.4980 c3        1 0MP      0.055800
     21 C26        -0.5850    6.2300   -0.1060 c3        1 0MP      0.109100
     22 O30         0.3870    6.0910    0.9040 oh        1 0MP     -0.555800
     23 C25         0.0010    6.9960   -1.3190 c3        1 0MP      0.094500
     24 N27        -1.0040    7.3380   -2.3830 ny        1 0MP     -0.691800
     25 C33        -2.2950    7.9710   -1.8730 c         1 0MP      0.579100
     26 C35        -2.4650    9.4220   -2.1450 c3        1 0MP     -0.195100
     27 O34        -3.0580    7.1930   -1.3210 o         1 0MP     -0.445100
     28 C31         0.7240    8.2580   -0.8070 c3        1 0MP     -0.042100
     29 C19         1.2030    9.1390   -1.9030 ca        1 0MP     -0.207300
     30 C20         1.9650    8.6270   -2.9630 ca        1 0MP     -0.109500
     31 C21         2.4760    9.4660   -3.9430 ca        1 0MP     -0.152000
     32 C22         2.2370   10.8560   -3.8630 ca        1 0MP      0.185900
     33 F32         2.7310   11.6780   -4.8080 f         1 0MP     -0.091900
     34 C23         1.4870   11.3800   -2.7910 ca        1 0MP     -0.152000
     35 C24         0.9810   10.5210   -1.8230 ca        1 0MP     -0.109500
     36 H1          0.2650   -0.3830    2.6350 hc        1 0MP      0.072700
     37 H2          0.3270   -0.6460    0.8320 hc        1 0MP      0.072700
     38 H3          2.5820    0.3930    2.5930 hc        1 0MP      0.080200
     39 H4          2.6370    0.1930    0.7890 hc        1 0MP      0.080200
     40 H5          1.7520    2.6710    2.3420 hc        1 0MP      0.072700
     41 H6          1.8470    2.5040    0.5260 hc        1 0MP      0.072700
     42 H7         -1.1220    0.7430   -0.2000 hc        1 0MP      0.091200
     43 H8         -0.0610    2.1400   -0.6250 hc        1 0MP      0.091200
     44 H9         -4.1900    0.6100    4.7760 h4        1 0MP      0.066100
     45 H10        -6.5340    0.8650    1.8590 hc        1 0MP      0.070700
     46 H11        -6.2680    0.1690    3.5090 hc        1 0MP      0.070700
     47 H12        -8.4840    0.8820    4.2130 hc        1 0MP      0.041256
     48 H13        -9.0120    2.6030    4.0020 hc        1 0MP      0.041256
     49 H14        -8.7720    1.5450    2.5490 hc        1 0MP      0.041256
     50 H15        -7.0570    3.3520    5.3540 hc        1 0MP      0.041256
     51 H16        -5.3720    2.8850    4.8740 hc        1 0MP      0.041256
     52 H17        -6.5050    1.6370    5.5450 hc        1 0MP      0.041256
     53 H18        -7.2410    3.2720    1.6060 hc        1 0MP      0.041256
     54 H19        -5.7710    3.8050    2.5270 hc        1 0MP      0.041256
     55 H20        -7.4230    4.3080    3.0830 hc        1 0MP      0.041256
     56 H21        -4.7520    2.1510    0.7420 ha        1 0MP      0.153000
     57 H22        -2.5940    2.6590   -0.5570 hx        1 0MP      0.105700
     58 H23        -2.3490    4.5310    1.1490 hn        1 0MP      0.471300
     59 H25        -2.0320    4.9620   -1.1700 hx        1 0MP      0.104700
     60 H26        -0.3420    4.2480   -1.0390 hx        1 0MP      0.104700
     61 H27        -1.4000    6.8440    0.3860 h1        1 0MP      0.123700
     62 H28         1.2070    5.7460    0.5190 ho        1 0MP      0.434000
     63 H29         0.7680    6.3320   -1.8280 hx        1 0MP      0.106700
     64 H30        -0.5380    8.0010   -3.0300 hn        1 0MP      0.471300
     65 H31        -2.7500    9.5760   -3.2210 hc        1 0MP      0.130700
     66 H32        -3.3000    9.8140   -1.5020 hc        1 0MP      0.130700
     67 H33        -1.5290   10.0020   -1.9280 hc        1 0MP      0.130700
     68 H34         0.0460    8.8200   -0.1090 hc        1 0MP      0.099700
     69 H35         1.6040    7.9110   -0.1940 hc        1 0MP      0.099700
     70 H36         2.2040    7.5530   -3.0070 ha        1 0MP      0.139500
     71 H37         3.0860    9.0680   -4.7710 ha        1 0MP      0.183000
     72 H38         1.3270   12.4690   -2.7200 ha        1 0MP      0.183000
     73 H39         0.4290   10.9450   -0.9660 ha        1 0MP      0.139500
     74 H292       -0.7800    4.0300    1.3800 hn        1 0MP      0.471300
     75 H272       -1.2420    6.4840   -2.8990 hn        1 0MP      0.471300
@<TRIPOS>BOND
     1    1    2 1   
     2    1    4 1   
     3    1   36 1   
     4    1   37 1   
     5    2    3 1   
     6    2   38 1   
     7    2   39 1   
     8    3    4 1   
     9    3   40 1   
    10    3   41 1   
    11    4    5 1   
    12    4    6 1   
    13    5   18 1   
    14    5   42 1   
    15    5   43 1   
    16    6    7 1   
    17    7    8 ar  
    18    7   17 ar  
    19    8    9 ar  
    20    9   10 ar  
    21    9   44 1   
    22   10   11 1   
    23   10   16 ar  
    24   11   12 1   
    25   11   45 1   
    26   11   46 1   
    27   12   13 1   
    28   12   14 1   
    29   12   15 1   
    30   13   47 1   
    31   13   48 1   
    32   13   49 1   
    33   14   50 1   
    34   14   51 1   
    35   14   52 1   
    36   15   53 1   
    37   15   54 1   
    38   15   55 1   
    39   16   17 ar  
    40   16   56 1   
    41   17   18 1   
    42   18   19 1   
    43   18   57 1   
    44   19   20 1   
    45   19   58 1   
    46   19   74 1   
    47   20   21 1   
    48   20   59 1   
    49   20   60 1   
    50   21   22 1   
    51   21   23 1   
    52   21   61 1   
    53   22   62 1   
    54   23   24 1   
    55   23   28 1   
    56   23   63 1   
    57   24   25 1   
    58   24   64 1   
    59   24   75 1   
    60   25   26 1   
    61   25   27 2   
    62   26   65 1   
    63   26   66 1   
    64   26   67 1   
    65   28   29 1   
    66   28   68 1   
    67   28   69 1   
    68   29   30 ar  
    69   29   35 ar  
    70   30   31 ar  
    71   30   70 1   
    72   31   32 ar  
    73   31   71 1   
    74   32   33 1   
    75   32   34 ar  
    76   34   35 ar  
    77   34   72 1   
    78   35   73 1   
@<TRIPOS>SUBSTRUCTURE
     1 0MP         1 TEMP              0 ****  ****    0 ROOT
