@<TRIPOS>MOLECULE
0MP
   73    76     1     0     0
SMALL
bcc


@<TRIPOS>ATOM
      1 C2          2.9510   -3.9210    1.2150 cy        1 0MP     -0.094900
      2 C3          2.8870   -5.3240    0.5790 cy        1 0MP     -0.091400
      3 C4          2.9310   -4.7040   -0.8320 cy        1 0MP     -0.094900
      4 C1          2.9550   -3.2780   -0.2040 cy        1 0MP      0.131800
      5 C13         1.7810   -2.3990   -0.5460 c3        1 0MP     -0.131400
      6 O12         4.2060   -2.6790   -0.5410 os        1 0MP     -0.412100
      7 C5          4.3300   -1.3390   -0.2130 ca        1 0MP      0.621600
      8 N10         5.6170   -0.9020   -0.2930 nb        1 0MP     -0.676000
      9 C9          5.8280    0.3940   -0.0140 ca        1 0MP      0.424200
     10 C8          4.8190    1.3060    0.3600 ca        1 0MP     -0.227600
     11 C14         5.1510    2.7130    0.6920 c3        1 0MP     -0.019100
     12 C15         5.1140    3.6750   -0.5030 c3        1 0MP     -0.052000
     13 C17         5.4820    5.0670   -0.0020 c3        1 0MP     -0.088100
     14 C18         6.1180    3.2450   -1.5600 c3        1 0MP     -0.088100
     15 C16         3.7190    3.7170   -1.1050 c3        1 0MP     -0.088100
     16 C7          3.5060    0.8270    0.4370 ca        1 0MP     -0.041000
     17 C6          3.2330   -0.5120    0.1400 ca        1 0MP     -0.252600
     18 C11         1.8410   -1.0780    0.2430 c3        1 0MP      0.242800
     19 N29         0.8310   -0.1010   -0.1330 n3        1 0MP     -0.823200
     20 C28        -0.5190   -0.4570    0.2480 c3        1 0MP      0.144800
     21 C26        -1.5760    0.4100   -0.4600 c3        1 0MP      0.120100
     22 O30        -1.4470    0.2990   -1.8670 oh        1 0MP     -0.590800
     23 C25        -3.0110   -0.0110   -0.0330 c3        1 0MP      0.087700
     24 N27        -3.2200    0.0520    1.3950 n         1 0MP     -0.560900
     25 C33        -3.1350    1.2320    2.1230 c         1 0MP      0.651100
     26 C35        -3.5580    1.1730    3.5720 c3        1 0MP     -0.177100
     27 O34        -2.6860    2.2820    1.6230 o         1 0MP     -0.600100
     28 C31        -4.0160    0.8270   -0.8500 c3        1 0MP     -0.072100
     29 C19        -5.4090    0.3290   -0.7170 ca        1 0MP     -0.096300
     30 C20        -5.7710   -0.9140   -1.2520 ca        1 0MP     -0.108000
     31 C21        -7.0740   -1.3860   -1.1480 ca        1 0MP     -0.163500
     32 C22        -8.0440   -0.5990   -0.4980 ca        1 0MP      0.121900
     33 F32        -9.3170   -1.0490   -0.3890 f         1 0MP     -0.139900
     34 C23        -7.6940    0.6550    0.0350 ca        1 0MP     -0.163500
     35 C24        -6.3830    1.1070   -0.0800 ca        1 0MP     -0.108000
     36 H1          2.0660   -3.6500    1.8250 hc        1 0MP      0.064450
     37 H2          3.8850   -3.7260    1.7840 hc        1 0MP      0.064450
     38 H3          3.7630   -5.9650    0.8140 hc        1 0MP      0.053700
     39 H4          1.9500   -5.8770    0.7990 hc        1 0MP      0.053700
     40 H5          3.8530   -4.9400   -1.4050 hc        1 0MP      0.064450
     41 H6          2.0320   -4.8920   -1.4540 hc        1 0MP      0.064450
     42 H7          1.7940   -2.1910   -1.6480 hc        1 0MP      0.059200
     43 H8          0.8340   -2.9460   -0.3060 hc        1 0MP      0.059200
     44 H9          6.8810    0.7250   -0.0940 h4        1 0MP      0.025100
     45 H10         4.4290    3.0900    1.4670 hc        1 0MP      0.048200
     46 H11         6.1800    2.7530    1.1430 hc        1 0MP      0.048200
     47 H12         6.5070    5.0630    0.4410 hc        1 0MP      0.036033
     48 H13         5.4630    5.7950   -0.8480 hc        1 0MP      0.036033
     49 H14         4.7580    5.4050    0.7760 hc        1 0MP      0.036033
     50 H15         5.8730    2.2220   -1.9350 hc        1 0MP      0.036033
     51 H16         6.0980    3.9560   -2.4210 hc        1 0MP      0.036033
     52 H17         7.1490    3.2300   -1.1330 hc        1 0MP      0.036033
     53 H18         2.9770    4.0610   -0.3450 hc        1 0MP      0.036033
     54 H19         3.6940    4.4200   -1.9720 hc        1 0MP      0.036033
     55 H20         3.4190    2.7010   -1.4590 hc        1 0MP      0.036033
     56 H21         2.6920    1.5110    0.7280 ha        1 0MP      0.160000
     57 H22         1.6660   -1.3270    1.3370 h1        1 0MP      0.065700
     58 H23         0.8860    0.1200   -1.1110 hn        1 0MP      0.378800
     59 H25        -0.7590   -1.5410    0.0350 h1        1 0MP      0.034700
     60 H26        -0.6000   -0.3010    1.3600 h1        1 0MP      0.034700
     61 H27        -1.4180    1.5060   -0.2450 h1        1 0MP      0.128700
     62 H28        -1.5600   -0.6310   -2.0980 ho        1 0MP      0.391000
     63 H29        -3.1470   -1.0970   -0.3280 h1        1 0MP      0.044700
     64 H30        -3.7870   -0.6710    1.7730 hn        1 0MP      0.306500
     65 H31        -2.9430    0.4240    4.1280 hc        1 0MP      0.067700
     66 H32        -3.4050    2.1790    4.0310 hc        1 0MP      0.067700
     67 H33        -4.6360    0.8940    3.6550 hc        1 0MP      0.067700
     68 H34        -3.9430    1.9010   -0.5230 hc        1 0MP      0.082200
     69 H35        -3.7040    0.7840   -1.9290 hc        1 0MP      0.082200
     70 H36        -5.0150   -1.5240   -1.7700 ha        1 0MP      0.139000
     71 H37        -7.3580   -2.3600   -1.5690 ha        1 0MP      0.149500
     72 H38        -8.4600    1.2680    0.5320 ha        1 0MP      0.149500
     73 H39        -6.1130    2.0930    0.3300 ha        1 0MP      0.139000
@<TRIPOS>BOND
     1    1    2 1   
     2    1    4 1   
     3    1   36 1   
     4    1   37 1   
     5    2    3 1   
     6    2   38 1   
     7    2   39 1   
     8    3    4 1   
     9    3   40 1   
    10    3   41 1   
    11    4    5 1   
    12    4    6 1   
    13    5   18 1   
    14    5   42 1   
    15    5   43 1   
    16    6    7 1   
    17    7    8 ar  
    18    7   17 ar  
    19    8    9 ar  
    20    9   10 ar  
    21    9   44 1   
    22   10   11 1   
    23   10   16 ar  
    24   11   12 1   
    25   11   45 1   
    26   11   46 1   
    27   12   13 1   
    28   12   14 1   
    29   12   15 1   
    30   13   47 1   
    31   13   48 1   
    32   13   49 1   
    33   14   50 1   
    34   14   51 1   
    35   14   52 1   
    36   15   53 1   
    37   15   54 1   
    38   15   55 1   
    39   16   17 ar  
    40   16   56 1   
    41   17   18 1   
    42   18   19 1   
    43   18   57 1   
    44   19   20 1   
    45   19   58 1   
    46   20   21 1   
    47   20   59 1   
    48   20   60 1   
    49   21   22 1   
    50   21   23 1   
    51   21   61 1   
    52   22   62 1   
    53   23   24 1   
    54   23   28 1   
    55   23   63 1   
    56   24   25 1   
    57   24   64 1   
    58   25   26 1   
    59   25   27 2   
    60   26   65 1   
    61   26   66 1   
    62   26   67 1   
    63   28   29 1   
    64   28   68 1   
    65   28   69 1   
    66   29   30 ar  
    67   29   35 ar  
    68   30   31 ar  
    69   30   70 1   
    70   31   32 ar  
    71   31   71 1   
    72   32   33 1   
    73   32   34 ar  
    74   34   35 ar  
    75   34   72 1   
    76   35   73 1   
@<TRIPOS>SUBSTRUCTURE
     1 0MP         1 TEMP              0 ****  ****    0 ROOT
