@<TRIPOS>MOLECULE
0MP
   73    69     1     0     0
SMALL
bcc


@<TRIPOS>ATOM
      1 C2          1.6420   -1.9760   -2.9300 cy        1 0MP     -0.094400
      2 C3          3.1150   -2.1670   -2.8640 cy        1 0MP     -0.090400
      3 C4          3.0400   -2.2810   -1.3630 cy        1 0MP     -0.094400
      4 C1          1.5470   -2.1220   -1.4150 cy        1 0MP      0.129800
      5 C13         1.0490   -0.8470   -0.9870 c3        1 0MP     -0.207700
      6 O12         1.1150   -3.2520   -0.7180 os        1 0MP     -0.268400
      7 C5         -0.3320   -3.2540   -0.2090 c1        1 0MP      0.480400
      8 N10        -0.9320   -4.3770    0.2920 n1        1 0MP     -0.474800
      9 C9         -2.2690   -4.3480    0.6510 c1        1 0MP      0.018500
     10 C8         -3.0570   -3.0970    0.4950 c1        1 0MP     -0.130100
     11 C14        -4.6220   -3.0890    0.8180 c3        1 0MP     -0.053300
     12 C15        -5.1180   -4.5750    1.1280 c3        1 0MP     -0.052000
     13 C17        -6.3420   -4.9050    0.2320 c3        1 0MP     -0.087767
     14 C18        -3.9990   -5.5560    0.8360 c3        1 0MP     -0.087767
     15 C16        -5.5350   -4.6890    2.6540 c3        1 0MP     -0.087767
     16 C7         -2.4500   -1.9510   -0.0140 c1        1 0MP      0.015500
     17 C6         -1.1300   -1.9790   -0.3700 c1        1 0MP     -0.182000
     18 C11        -0.3650   -0.7170   -0.8720 c2        1 0MP      0.295200
     19 N29        -0.6710    0.4490    0.1020 nh        1 0MP     -0.394100
     20 C28        -0.1270    1.7270   -0.4600 c3        1 0MP     -0.047700
     21 C26         0.0450    2.7770    0.6990 c3        1 0MP      0.116100
     22 O30         0.2820    2.1250    1.8720 oh        1 0MP     -0.602800
     23 C25         1.1780    3.6620    0.3920 c3        1 0MP      0.112700
     24 N27         0.6810    5.0320    0.1820 n         1 0MP     -0.567900
     25 C33         0.9880    5.7090   -1.0030 c         1 0MP      0.664100
     26 C35         0.4830    7.0960   -1.2100 c3        1 0MP     -0.173100
     27 O34         1.8410    5.2160   -1.8130 o         1 0MP     -0.625100
     28 C31         2.1460    3.6510    1.5260 c3        1 0MP     -0.087300
     29 C19         3.5960    3.7910    0.9610 c1        1 0MP     -0.060100
     30 C20         4.1420    2.7630    0.2980 c1        1 0MP     -0.075000
     31 C21         5.5560    2.7740   -0.0350 c1        1 0MP     -0.075000
     32 C22         6.3290    3.8240    0.3230 c1        1 0MP      0.087100
     33 F32         7.5060    3.9610   -0.2190 f         1 0MP     -0.109100
     34 C23         5.7580    4.9080    1.0210 c1        1 0MP     -0.108500
     35 C24         4.4020    4.8940    1.3390 c1        1 0MP     -0.049500
     36 H1          1.2090   -2.6700   -3.3900 hc        1 0MP      0.065450
     37 H2          1.3920   -1.0860   -3.2400 hc        1 0MP      0.065450
     38 H3          3.6490   -1.3170   -3.1810 hc        1 0MP      0.055200
     39 H4          3.4330   -3.0700   -3.3300 hc        1 0MP      0.055200
     40 H5          3.3180   -3.1720   -1.0320 hc        1 0MP      0.065450
     41 H6          3.4700   -1.5570   -0.9180 hc        1 0MP      0.065450
     42 H7          1.4630   -0.6390   -0.0630 hc        1 0MP      0.062700
     43 H8          1.3980   -0.1030   -1.6830 hc        1 0MP      0.062700
     44 H9         -2.6120   -5.0170    1.0480 ha        1 0MP      0.105500
     45 H10        -5.0720   -2.7670    0.1070 hc        1 0MP      0.048200
     46 H11        -4.7880   -2.5340    1.5760 hc        1 0MP      0.048200
     47 H12        -7.1020   -4.2830    0.4590 hc        1 0MP      0.035700
     48 H13        -6.0790   -4.7820   -0.7870 hc        1 0MP      0.035700
     49 H14        -6.6210   -5.8290    0.3880 hc        1 0MP      0.035700
     50 H15        -3.3950   -5.5800    1.5800 hc        1 0MP      0.035700
     51 H16        -3.5070   -5.2680    0.0160 hc        1 0MP      0.035700
     52 H17        -4.3600   -6.4110    0.7000 hc        1 0MP      0.035700
     53 H18        -6.1000   -4.0120    2.8630 hc        1 0MP      0.035700
     54 H19        -4.6930   -4.6300    3.2470 hc        1 0MP      0.035700
     55 H20        -5.9740   -5.5280    2.8030 hc        1 0MP      0.035700
     56 H21        -2.9830   -1.1070   -0.1220 ha        1 0MP      0.095500
     57 H22        -0.6940   -0.4990   -1.6930 h4        1 0MP     -0.022200
     58 H23        -0.2700    0.2760    0.9390 hn        1 0MP      0.220700
     59 H25         0.7370    1.5580   -0.8770 h1        1 0MP      0.042700
     60 H26        -0.7130    2.0600   -1.0920 h1        1 0MP      0.042700
     61 H27        -0.7880    3.3210    0.7850 h1        1 0MP      0.049700
     62 H28        -0.4750    2.1820    2.4160 ho        1 0MP      0.417000
     63 H29         1.6630    3.3210   -0.4880 h1        1 0MP      0.089700
     64 H30         0.0810    5.3650    0.7290 hn        1 0MP      0.322500
     65 H31         0.9080    7.4970   -2.0760 hc        1 0MP      0.067700
     66 H32        -0.5520    7.0750   -1.3080 hc        1 0MP      0.067700
     67 H33         0.7340    7.6650   -0.4210 hc        1 0MP      0.067700
     68 H34         2.0640    2.7780    2.0340 hc        1 0MP      0.060700
     69 H35         1.9680    4.3410    2.0830 hc        1 0MP      0.060700
     70 H36         3.5220    1.9190    0.0090 ha        1 0MP      0.096500
     71 H37         5.9600    2.0040   -0.5290 ha        1 0MP      0.096500
     72 H38         6.3140    5.6700    1.2820 ha        1 0MP      0.090500
     73 H39         4.0020    5.6520    1.8240 ha        1 0MP      0.078500
@<TRIPOS>BOND
     1    1    2 1   
     2    1    4 1   
     3    1   36 1   
     4    1   37 1   
     5    2    3 1   
     6    2   38 1   
     7    2   39 1   
     8    3    4 1   
     9    3   40 1   
    10    3   41 1   
    11    4    5 1   
    12    4    6 1   
    13    5   18 1   
    14    5   42 1   
    15    5   43 1   
    16    6    7 1   
    17    7    8 3   
    18    9   10 3   
    19    9   44 1   
    20   10   11 1   
    21   11   12 1   
    22   11   45 1   
    23   11   46 1   
    24   12   13 1   
    25   12   14 1   
    26   12   15 1   
    27   13   47 1   
    28   13   48 1   
    29   13   49 1   
    30   14   50 1   
    31   14   51 1   
    32   14   52 1   
    33   15   53 1   
    34   15   54 1   
    35   15   55 1   
    36   16   17 3   
    37   16   56 1   
    38   18   19 2   
    39   18   57 1   
    40   19   20 1   
    41   19   58 1   
    42   20   21 1   
    43   20   59 1   
    44   20   60 1   
    45   21   22 1   
    46   21   23 1   
    47   21   61 1   
    48   22   62 1   
    49   23   24 1   
    50   23   28 1   
    51   23   63 1   
    52   24   25 1   
    53   24   64 1   
    54   25   26 1   
    55   25   27 2   
    56   26   65 1   
    57   26   66 1   
    58   26   67 1   
    59   28   29 1   
    60   28   68 1   
    61   28   69 1   
    62   29   35 3   
    63   30   31 3   
    64   30   70 1   
    65   31   71 1   
    66   32   33 1   
    67   32   34 3   
    68   34   72 1   
    69   35   73 1   
@<TRIPOS>SUBSTRUCTURE
     1 0MP         1 TEMP              0 ****  ****    0 ROOT
