@<TRIPOS>MOLECULE
0MP
   75    78     1     0     0
SMALL
bcc


@<TRIPOS>ATOM
      1 C2         -0.0200   -0.4630    0.8440 cy        1 0MP     -0.086900
      2 C3          1.4660   -0.8360    1.0190 cy        1 0MP     -0.083400
      3 C4          1.7270    0.4830    1.7730 cy        1 0MP     -0.086900
      4 C1          0.2340    0.8860    1.5760 cy        1 0MP      0.107800
      5 C13         0.0160    2.1540    0.7760 c3        1 0MP     -0.117400
      6 O12        -0.3720    0.9710    2.8700 os        1 0MP     -0.391100
      7 C5         -1.7350    1.1810    2.8110 ca        1 0MP      0.676600
      8 N10        -2.4610    0.6150    3.8180 nb        1 0MP     -0.635000
      9 C9         -3.7840    0.8030    3.7820 ca        1 0MP      0.482200
     10 C8         -4.4700    1.5230    2.7600 ca        1 0MP     -0.181600
     11 C14        -5.9520    1.6150    2.7750 c3        1 0MP     -0.041100
     12 C15        -6.5000    2.8270    3.5400 c3        1 0MP     -0.051000
     13 C17        -8.0220    2.7540    3.5060 c3        1 0MP     -0.090433
     14 C18        -6.0340    2.8000    4.9870 c3        1 0MP     -0.090433
     15 C16        -6.0510    4.1190    2.8770 c3        1 0MP     -0.090433
     16 C7         -3.7050    2.0980    1.7520 ca        1 0MP     -0.072000
     17 C6         -2.3030    1.9640    1.7770 ca        1 0MP     -0.381600
     18 C11        -1.4520    2.6010    0.7420 c3        1 0MP      0.240800
     19 N29        -1.5560    4.1220    0.9430 n4        1 0MP     -0.774000
     20 C28        -1.0820    4.8930   -0.2330 c3        1 0MP      0.090800
     21 C26        -0.9970    6.4130    0.0420 c3        1 0MP      0.119100
     22 O30        -0.2760    6.5390    1.2500 oh        1 0MP     -0.589800
     23 C25        -0.2050    7.1520   -1.0710 c3        1 0MP      0.090500
     24 N27        -0.8020    7.0370   -2.4460 n4        1 0MP     -0.691800
     25 C33        -2.2870    7.3660   -2.5450 c         1 0MP      0.578100
     26 C35        -2.6360    8.5970   -3.3010 c3        1 0MP     -0.196100
     27 O34        -3.0290    6.5540   -2.0130 o         1 0MP     -0.447100
     28 C31        -0.0070    8.6230   -0.6630 c3        1 0MP     -0.048100
     29 C19         0.5900    9.4550   -1.7410 ca        1 0MP     -0.207300
     30 C20         1.7870    9.0710   -2.3620 ca        1 0MP     -0.109000
     31 C21         2.3890    9.8850   -3.3120 ca        1 0MP     -0.152500
     32 C22         1.7950   11.1220   -3.6450 ca        1 0MP      0.186900
     33 F32         2.3720   11.9190   -4.5630 f         1 0MP     -0.090900
     34 C23         0.6000   11.5220   -3.0120 ca        1 0MP     -0.152500
     35 C24         0.0120   10.6900   -2.0670 ca        1 0MP     -0.109000
     36 H1         -0.3480   -0.3510   -0.2100 hc        1 0MP      0.076700
     37 H2         -0.7200   -1.1300    1.3950 hc        1 0MP      0.076700
     38 H3          1.6300   -1.7460    1.6370 hc        1 0MP      0.077700
     39 H4          2.0250   -0.9310    0.0640 hc        1 0MP      0.077700
     40 H5          2.4400    1.1730    1.2780 hc        1 0MP      0.076700
     41 H6          1.9980    0.3500    2.8450 hc        1 0MP      0.076700
     42 H7          0.3660    1.9740   -0.2750 hc        1 0MP      0.075700
     43 H8          0.6780    2.9450    1.2250 hc        1 0MP      0.075700
     44 H9         -4.3540    0.3400    4.6150 h4        1 0MP      0.065100
     45 H10        -6.3730    0.6830    3.2440 hc        1 0MP      0.069200
     46 H11        -6.3330    1.6580    1.7190 hc        1 0MP      0.069200
     47 H12        -8.3780    1.8210    4.0040 hc        1 0MP      0.039811
     48 H13        -8.3910    2.7610    2.4520 hc        1 0MP      0.039811
     49 H14        -8.4580    3.6310    4.0430 hc        1 0MP      0.039811
     50 H15        -6.3680    1.8580    5.4850 hc        1 0MP      0.039811
     51 H16        -4.9200    2.8570    5.0430 hc        1 0MP      0.039811
     52 H17        -6.4640    3.6660    5.5460 hc        1 0MP      0.039811
     53 H18        -6.4440    4.9960    3.4460 hc        1 0MP      0.039811
     54 H19        -4.9360    4.1800    2.8530 hc        1 0MP      0.039811
     55 H20        -6.4350    4.1720    1.8290 hc        1 0MP      0.039811
     56 H21        -4.1990    2.6430    0.9320 ha        1 0MP      0.133000
     57 H22        -1.8870    2.4090   -0.2860 hx        1 0MP      0.098700
     58 H23        -2.5370    4.3520    1.1460 hn        1 0MP      0.464800
     59 H25        -0.0580    4.5020   -0.5020 hx        1 0MP      0.109200
     60 H26        -1.7980    4.7120   -1.0850 hx        1 0MP      0.109200
     61 H27        -2.0310    6.8510    0.1380 h1        1 0MP      0.086700
     62 H28        -0.4450    7.4180    1.6260 ho        1 0MP      0.460000
     63 H29         0.8230    6.6730   -1.1400 hx        1 0MP      0.124700
     64 H30        -0.2750    7.6890   -3.0550 hn        1 0MP      0.470800
     65 H31        -3.7200    8.8360   -3.1210 hc        1 0MP      0.130700
     66 H32        -2.0080    9.4720   -2.9820 hc        1 0MP      0.130700
     67 H33        -2.4920    8.4260   -4.4020 hc        1 0MP      0.130700
     68 H34         0.6930    8.6250    0.2210 hc        1 0MP      0.092200
     69 H35        -0.9860    9.0580   -0.3260 hc        1 0MP      0.092200
     70 H36         2.2880    8.1350   -2.0680 ha        1 0MP      0.141000
     71 H37         3.3380    9.5930   -3.7920 ha        1 0MP      0.184000
     72 H38         0.1570   12.5020   -3.2570 ha        1 0MP      0.184000
     73 H39        -0.8990   11.0300   -1.5480 ha        1 0MP      0.141000
     74 H292       -0.9930    4.3860    1.7670 hn        1 0MP      0.464800
     75 H272       -0.6590    6.0790   -2.7850 hn        1 0MP      0.470800
@<TRIPOS>BOND
     1    1    2 1   
     2    1    4 1   
     3    1   36 1   
     4    1   37 1   
     5    2    3 1   
     6    2   38 1   
     7    2   39 1   
     8    3    4 1   
     9    3   40 1   
    10    3   41 1   
    11    4    5 1   
    12    4    6 1   
    13    5   18 1   
    14    5   42 1   
    15    5   43 1   
    16    6    7 1   
    17    7    8 ar  
    18    7   17 ar  
    19    8    9 ar  
    20    9   10 ar  
    21    9   44 1   
    22   10   11 1   
    23   10   16 ar  
    24   11   12 1   
    25   11   45 1   
    26   11   46 1   
    27   12   13 1   
    28   12   14 1   
    29   12   15 1   
    30   13   47 1   
    31   13   48 1   
    32   13   49 1   
    33   14   50 1   
    34   14   51 1   
    35   14   52 1   
    36   15   53 1   
    37   15   54 1   
    38   15   55 1   
    39   16   17 ar  
    40   16   56 1   
    41   17   18 1   
    42   18   19 1   
    43   18   57 1   
    44   19   20 1   
    45   19   58 1   
    46   19   74 1   
    47   20   21 1   
    48   20   59 1   
    49   20   60 1   
    50   21   22 1   
    51   21   23 1   
    52   21   61 1   
    53   22   62 1   
    54   23   24 1   
    55   23   28 1   
    56   23   63 1   
    57   24   25 1   
    58   24   64 1   
    59   24   75 1   
    60   25   26 1   
    61   25   27 2   
    62   26   65 1   
    63   26   66 1   
    64   26   67 1   
    65   28   29 1   
    66   28   68 1   
    67   28   69 1   
    68   29   30 ar  
    69   29   35 ar  
    70   30   31 ar  
    71   30   70 1   
    72   31   32 ar  
    73   31   71 1   
    74   32   33 1   
    75   32   34 ar  
    76   34   35 ar  
    77   34   72 1   
    78   35   73 1   
@<TRIPOS>SUBSTRUCTURE
     1 0MP         1 TEMP              0 ****  ****    0 ROOT
