@<TRIPOS>MOLECULE
0MP
   75    78     1     0     0
SMALL
bcc


@<TRIPOS>ATOM
      1 C2          0.5400    0.0090    1.5870 cy        1 0MP     -0.089400
      2 C3          1.9950    0.5170    1.5740 cy        1 0MP     -0.080400
      3 C4          1.5040    1.9740    1.4540 cy        1 0MP     -0.089400
      4 C1          0.0270    1.4720    1.4320 cy        1 0MP      0.090800
      5 C13        -0.7730    1.7480    0.1700 c3        1 0MP     -0.119400
      6 O12        -0.6000    1.9650    2.6280 os        1 0MP     -0.440100
      7 C5         -1.9650    1.7040    2.6830 ca        1 0MP      0.629600
      8 N10        -2.4740    1.1490    3.8090 nb        1 0MP     -0.625000
      9 C9         -3.8110    0.9970    3.8340 ca        1 0MP      0.469200
     10 C8         -4.6880    1.3670    2.7800 ca        1 0MP     -0.171600
     11 C14        -6.1470    1.1150    2.8970 c3        1 0MP     -0.043100
     12 C15        -6.9340    2.2540    3.5570 c3        1 0MP     -0.051000
     13 C17        -8.3980    1.8330    3.6280 c3        1 0MP     -0.091433
     14 C18        -6.4230    2.5100    4.9660 c3        1 0MP     -0.091433
     15 C16        -6.8240    3.5240    2.7280 c3        1 0MP     -0.091433
     16 C7         -4.1340    1.9370    1.6300 ca        1 0MP     -0.039000
     17 C6         -2.7490    2.1190    1.5740 ca        1 0MP     -0.364600
     18 C11        -1.9890    2.6530    0.4120 c3        1 0MP      0.228800
     19 N29        -1.5430    4.0750    0.7660 n4        1 0MP     -0.771000
     20 C28        -1.2020    4.8980   -0.4190 c3        1 0MP      0.092800
     21 C26        -0.6230    6.2810   -0.0350 c3        1 0MP      0.119100
     22 O30         0.4170    6.0130    0.8840 oh        1 0MP     -0.586800
     23 C25        -0.0040    7.0030   -1.2630 c3        1 0MP      0.091500
     24 N27        -0.9740    7.2920   -2.3740 n4        1 0MP     -0.691800
     25 C33        -2.2700    7.9730   -1.9490 c         1 0MP      0.577100
     26 C35        -2.4490    9.3790   -2.3950 c3        1 0MP     -0.196100
     27 O34        -3.0350    7.2640   -1.3110 o         1 0MP     -0.447100
     28 C31         0.7130    8.2820   -0.7910 c3        1 0MP     -0.048100
     29 C19         1.1920    9.1330   -1.9120 ca        1 0MP     -0.206300
     30 C20         1.9970    8.5960   -2.9260 ca        1 0MP     -0.109000
     31 C21         2.5100    9.4050   -3.9310 ca        1 0MP     -0.152500
     32 C22         2.2300   10.7890   -3.9210 ca        1 0MP      0.185900
     33 F32         2.7260   11.5820   -4.8880 f         1 0MP     -0.090900
     34 C23         1.4360   11.3390   -2.8930 ca        1 0MP     -0.152500
     35 C24         0.9280   10.5100   -1.9000 ca        1 0MP     -0.109000
     36 H1          0.2300   -0.4540    2.5500 hc        1 0MP      0.074450
     37 H2          0.2750   -0.6570    0.7390 hc        1 0MP      0.074450
     38 H3          2.5520    0.3080    2.5140 hc        1 0MP      0.079200
     39 H4          2.5900    0.1670    0.7040 hc        1 0MP      0.079200
     40 H5          1.7350    2.5990    2.3450 hc        1 0MP      0.074450
     41 H6          1.8130    2.4920    0.5240 hc        1 0MP      0.074450
     42 H7         -1.1830    0.7770   -0.2280 hc        1 0MP      0.092200
     43 H8         -0.1030    2.1710   -0.6220 hc        1 0MP      0.092200
     44 H9         -4.2150    0.5400    4.7620 h4        1 0MP      0.065100
     45 H10        -6.5770    0.9330    1.8740 hc        1 0MP      0.069700
     46 H11        -6.3110    0.1790    3.4990 hc        1 0MP      0.069700
     47 H12        -9.0070    2.6440    4.0940 hc        1 0MP      0.040811
     48 H13        -8.7970    1.6300    2.6050 hc        1 0MP      0.040811
     49 H14        -8.5080    0.9080    4.2450 hc        1 0MP      0.040811
     50 H15        -7.0270    3.3130    5.4530 hc        1 0MP      0.040811
     51 H16        -5.3550    2.8320    4.9440 hc        1 0MP      0.040811
     52 H17        -6.5050    1.5830    5.5840 hc        1 0MP      0.040811
     53 H18        -7.3940    4.3500    3.2170 hc        1 0MP      0.040811
     54 H19        -7.2420    3.3590    1.7060 hc        1 0MP      0.040811
     55 H20        -5.7560    3.8350    2.6320 hc        1 0MP      0.040811
     56 H21        -4.7800    2.2240    0.7860 ha        1 0MP      0.152000
     57 H22        -2.6270    2.7280   -0.5140 hx        1 0MP      0.103700
     58 H23        -2.2950    4.5260    1.3000 hn        1 0MP      0.471800
     59 H25        -0.4400    4.3280   -1.0240 hx        1 0MP      0.107700
     60 H26        -2.1400    5.0480   -1.0260 hx        1 0MP      0.107700
     61 H27        -1.4230    6.9240    0.4300 h1        1 0MP      0.085700
     62 H28         0.5990    6.8190    1.3930 ho        1 0MP      0.459000
     63 H29         0.7810    6.3140   -1.7100 hx        1 0MP      0.123700
     64 H30        -0.4810    7.9060   -3.0480 hn        1 0MP      0.470800
     65 H31        -1.5320    9.9970   -2.2010 hc        1 0MP      0.130367
     66 H32        -2.6830    9.4060   -3.4930 hc        1 0MP      0.130367
     67 H33        -3.3200    9.8250   -1.8400 hc        1 0MP      0.130367
     68 H34         1.6050    7.9510   -0.1850 hc        1 0MP      0.092700
     69 H35         0.0360    8.8670   -0.1130 hc        1 0MP      0.092700
     70 H36         2.2680    7.5290   -2.9120 ha        1 0MP      0.141000
     71 H37         3.1550    8.9880   -4.7230 ha        1 0MP      0.183500
     72 H38         1.2440   12.4250   -2.8760 ha        1 0MP      0.183500
     73 H39         0.3420   10.9560   -1.0790 ha        1 0MP      0.141000
     74 H292       -0.7150    4.0010    1.3860 hn        1 0MP      0.471800
     75 H272       -1.2080    6.4090   -2.8400 hn        1 0MP      0.470800
@<TRIPOS>BOND
     1    1    2 1   
     2    1    4 1   
     3    1   36 1   
     4    1   37 1   
     5    2    3 1   
     6    2   38 1   
     7    2   39 1   
     8    3    4 1   
     9    3   40 1   
    10    3   41 1   
    11    4    5 1   
    12    4    6 1   
    13    5   18 1   
    14    5   42 1   
    15    5   43 1   
    16    6    7 1   
    17    7    8 ar  
    18    7   17 ar  
    19    8    9 ar  
    20    9   10 ar  
    21    9   44 1   
    22   10   11 1   
    23   10   16 ar  
    24   11   12 1   
    25   11   45 1   
    26   11   46 1   
    27   12   13 1   
    28   12   14 1   
    29   12   15 1   
    30   13   47 1   
    31   13   48 1   
    32   13   49 1   
    33   14   50 1   
    34   14   51 1   
    35   14   52 1   
    36   15   53 1   
    37   15   54 1   
    38   15   55 1   
    39   16   17 ar  
    40   16   56 1   
    41   17   18 1   
    42   18   19 1   
    43   18   57 1   
    44   19   20 1   
    45   19   58 1   
    46   19   74 1   
    47   20   21 1   
    48   20   59 1   
    49   20   60 1   
    50   21   22 1   
    51   21   23 1   
    52   21   61 1   
    53   22   62 1   
    54   23   24 1   
    55   23   28 1   
    56   23   63 1   
    57   24   25 1   
    58   24   64 1   
    59   24   75 1   
    60   25   26 1   
    61   25   27 2   
    62   26   65 1   
    63   26   66 1   
    64   26   67 1   
    65   28   29 1   
    66   28   68 1   
    67   28   69 1   
    68   29   30 ar  
    69   29   35 ar  
    70   30   31 ar  
    71   30   70 1   
    72   31   32 ar  
    73   31   71 1   
    74   32   33 1   
    75   32   34 ar  
    76   34   35 ar  
    77   34   72 1   
    78   35   73 1   
@<TRIPOS>SUBSTRUCTURE
     1 0MP         1 TEMP              0 ****  ****    0 ROOT
