@<TRIPOS>MOLECULE
0MQ
   33    32     1     0     0
SMALL
bcc


@<TRIPOS>ATOM
      1 O6          1.7780   -0.9730    0.3940 o         1 0MQ     -1.247667
      2 P2          2.7870   -0.2950   -0.4860 p3        1 0MQ      2.588000
      3 O4          4.2150   -0.4350   -0.0390 o         1 0MQ     -1.247667
      4 O5          2.5880   -0.4880   -1.9620 o         1 0MQ     -1.247667
      5 C1          2.2870    1.7490   -0.2940 c2        1 0MQ     -1.457000
      6 P1          1.5120    2.6250    0.8720 p5        1 0MQ      2.082000
      7 O3          0.3100    3.3520    0.3380 o         1 0MQ     -0.949500
      8 O2          2.4180    3.4610    1.7340 o         1 0MQ     -0.949500
      9 O1          0.8680    1.5050    1.9070 oh        1 0MQ     -0.869000
     10 C2          3.5250    2.2770   -0.9400 c3        1 0MQ      0.047000
     11 N1          4.5750    2.9700   -0.1890 n3        1 0MQ     -0.338000
     12 C3          5.6730    2.1500    0.2940 c3        1 0MQ     -0.023000
     13 C4          5.6500    1.8650    1.8060 c3        1 0MQ     -0.157500
     14 C5          6.7940    0.9510    2.1920 c3        1 0MQ     -0.149000
     15 C6          8.1360    1.5500    1.8220 c3        1 0MQ     -0.141000
     16 C7          8.1780    1.9050    0.3500 c3        1 0MQ     -0.149000
     17 C8          7.0320    2.8190   -0.0330 c3        1 0MQ     -0.157500
     18 H3          1.5460    1.5640   -1.1070 ha        1 0MQ      0.114000
     19 H6          3.2360    3.0630   -1.7200 h1        1 0MQ      0.025000
     20 H7          4.0180    1.4540   -1.5450 h1        1 0MQ      0.025000
     21 H8          4.1310    3.4410    0.5940 hn        1 0MQ      0.196000
     22 H10         5.6580    1.1370   -0.2240 h1        1 0MQ      0.167000
     23 H11         5.7060    2.8210    2.3870 hc        1 0MQ      0.074750
     24 H12         4.6740    1.3610    2.0460 hc        1 0MQ      0.074750
     25 H13         6.7720    0.7520    3.2950 hc        1 0MQ      0.058750
     26 H14         6.6500   -0.0280    1.6600 hc        1 0MQ      0.058750
     27 H15         8.3180    2.4740    2.4330 hc        1 0MQ      0.029500
     28 H16         8.9620    0.8280    2.0610 hc        1 0MQ      0.029500
     29 H17         8.1140    0.9630   -0.2560 hc        1 0MQ      0.058750
     30 H18         9.1590    2.3960    0.1100 hc        1 0MQ      0.058750
     31 H19         7.0910    3.0410   -1.1290 hc        1 0MQ      0.074750
     32 H20         7.1260    3.7900    0.5170 hc        1 0MQ      0.074750
     33 H121        1.0460    0.6100    1.6140 ho        1 0MQ      0.245000
@<TRIPOS>BOND
     1    1    2 1   
     2    2    3 1   
     3    2    4 1   
     4    5    6 1   
     5    5   10 1   
     6    5   18 1   
     7    6    7 1   
     8    6    8 1   
     9    6    9 1   
    10    9   33 1   
    11   10   11 1   
    12   10   19 1   
    13   10   20 1   
    14   11   12 1   
    15   11   21 1   
    16   12   13 1   
    17   12   17 1   
    18   12   22 1   
    19   13   14 1   
    20   13   23 1   
    21   13   24 1   
    22   14   15 1   
    23   14   25 1   
    24   14   26 1   
    25   15   16 1   
    26   15   27 1   
    27   15   28 1   
    28   16   17 1   
    29   16   29 1   
    30   16   30 1   
    31   17   31 1   
    32   17   32 1   
@<TRIPOS>SUBSTRUCTURE
     1 0MQ         1 TEMP              0 ****  ****    0 ROOT
