@<TRIPOS>MOLECULE
0MQ
   33    32     1     0     0
SMALL
bcc


@<TRIPOS>ATOM
      1 O6          1.8670   -1.0680    0.3320 o         1 0MQ     -1.247667
      2 P2          2.8670   -0.3520   -0.5290 p3        1 0MQ      2.588000
      3 O4          4.2920   -0.4500   -0.0620 o         1 0MQ     -1.247667
      4 O5          2.6960   -0.5420   -2.0090 o         1 0MQ     -1.247667
      5 C1          2.3000    1.6740   -0.3320 c2        1 0MQ     -1.457000
      6 P1          1.4800    2.5170    0.8280 p5        1 0MQ      2.082000
      7 O3          0.2640    3.2090    0.2820 o         1 0MQ     -0.949500
      8 O2          2.3470    3.3750    1.7090 o         1 0MQ     -0.949500
      9 O1          0.8580    1.3700    1.8470 oh        1 0MQ     -0.869000
     10 C2          3.5300    2.2450   -0.9560 c3        1 0MQ      0.047000
     11 N1          4.5460    2.9660   -0.1850 n7        1 0MQ     -0.338000
     12 C3          5.6630    2.1760    0.3080 c3        1 0MQ     -0.023000
     13 C4          5.6270    1.8810    1.8180 c3        1 0MQ     -0.157500
     14 C5          6.7930    1.0010    2.2150 c3        1 0MQ     -0.149000
     15 C6          8.1210    1.6450    1.8690 c3        1 0MQ     -0.141000
     16 C7          8.1730    2.0110    0.4000 c3        1 0MQ     -0.149000
     17 C8          7.0040    2.8910    0.0060 c3        1 0MQ     -0.157500
     18 H3          1.5770    1.4710   -1.1560 ha        1 0MQ      0.114000
     19 H6          4.0570    1.4420   -1.5580 h1        1 0MQ      0.025000
     20 H7          3.2280    3.0270   -1.7350 h1        1 0MQ      0.025000
     21 H8          1.0670    0.4830    1.5500 ho        1 0MQ      0.245000
     22 H10         5.6870    1.1680   -0.2160 h1        1 0MQ      0.167000
     23 H11         4.6640    1.3440    2.0400 hc        1 0MQ      0.074750
     24 H12         5.6440    2.8330    2.4060 hc        1 0MQ      0.074750
     25 H13         6.6890    0.0220    1.6740 hc        1 0MQ      0.058750
     26 H14         6.7620    0.7940    3.3170 hc        1 0MQ      0.058750
     27 H15         8.9660    0.9470    2.1150 hc        1 0MQ      0.029500
     28 H16         8.2650    2.5690    2.4890 hc        1 0MQ      0.029500
     29 H17         9.1420    2.5350    0.1780 hc        1 0MQ      0.058750
     30 H18         8.1490    1.0720   -0.2130 hc        1 0MQ      0.058750
     31 H19         7.0720    3.1230   -1.0870 hc        1 0MQ      0.074750
     32 H20         7.0590    3.8610    0.5640 hc        1 0MQ      0.074750
     33 H121        4.0760    3.4160    0.5940 hn        1 0MQ      0.196000
@<TRIPOS>BOND
     1    1    2 1   
     2    2    3 1   
     3    2    4 1   
     4    5    6 1   
     5    5   10 1   
     6    5   18 1   
     7    6    7 1   
     8    6    8 1   
     9    6    9 1   
    10    9   21 1   
    11   10   11 1   
    12   10   19 1   
    13   10   20 1   
    14   11   12 1   
    15   11   33 1   
    16   12   13 1   
    17   12   17 1   
    18   12   22 1   
    19   13   14 1   
    20   13   23 1   
    21   13   24 1   
    22   14   15 1   
    23   14   25 1   
    24   14   26 1   
    25   15   16 1   
    26   15   27 1   
    27   15   28 1   
    28   16   17 1   
    29   16   29 1   
    30   16   30 1   
    31   17   31 1   
    32   17   32 1   
@<TRIPOS>SUBSTRUCTURE
     1 0MQ         1 TEMP              0 ****  ****    0 ROOT
