@<TRIPOS>MOLECULE
0MQ
   32    31     1     0     0
SMALL
bcc


@<TRIPOS>ATOM
      1 O6         -3.0420   -1.6120    1.0890 o         1 0MQ     -0.954000
      2 P2         -2.0600   -1.5270   -0.0370 p5        1 0MQ      2.089000
      3 O4         -0.7930   -2.4570    0.5620 oh        1 0MQ     -0.839000
      4 O5         -2.4190   -2.3940   -1.2220 o         1 0MQ     -0.954000
      5 C1         -1.4030   -0.1100   -0.5360 c2        1 0MQ     -1.407000
      6 P1         -1.8780    1.9460   -0.2930 p3        1 0MQ      2.599000
      7 O3         -1.6650    2.4280    1.1110 o         1 0MQ     -1.256667
      8 O2         -0.9990    2.6030   -1.3280 o         1 0MQ     -1.256667
      9 O1         -3.3210    1.9560   -0.7300 o         1 0MQ     -1.256667
     10 C2          0.0800   -0.0500   -0.7280 c3        1 0MQ      0.020000
     11 N1          1.0500   -0.1220    0.3670 n3        1 0MQ     -0.297000
     12 C3          2.4400   -0.2510   -0.0970 c3        1 0MQ      0.164000
     13 C4          3.0900    1.1660   -0.1810 c3        1 0MQ     -0.160000
     14 C5          4.5270    1.0630   -0.6470 c3        1 0MQ     -0.114000
     15 C6          5.3520    0.2310    0.3060 c3        1 0MQ     -0.157000
     16 C7          4.7310   -1.1630    0.4730 c3        1 0MQ      0.110000
     17 C8          3.3180   -1.1470    0.6840 c2        1 0MQ     -0.795000
     18 H3         -1.8370    0.0750   -1.5530 ha        1 0MQ      0.103000
     19 H6          0.3270   -0.8860   -1.4750 h1        1 0MQ      0.018000
     20 H7          0.3200    0.9260   -1.2560 h1        1 0MQ      0.018000
     21 H8          0.8360   -0.8690    0.9990 hn        1 0MQ      0.153000
     22 H10         2.4440   -0.6070   -1.1900 h1        1 0MQ     -0.038000
     23 H11         2.5080    1.8110   -0.8860 hc        1 0MQ      0.065000
     24 H12         3.0580    1.6420    0.8310 hc        1 0MQ      0.065000
     25 H13         4.5570    0.5970   -1.6670 hc        1 0MQ      0.007000
     26 H14         4.9810    2.0900   -0.7470 hc        1 0MQ      0.007000
     27 H15         6.4140    0.1610   -0.0640 hc        1 0MQ     -0.003500
     28 H16         5.3930    0.7350    1.3060 hc        1 0MQ     -0.003500
     29 H17         5.0870   -1.7410   -0.4620 hc        1 0MQ     -0.090500
     30 H18         5.2790   -1.6930    1.3120 hc        1 0MQ     -0.090500
     31 H19         2.8800   -1.8380    1.3980 ha        1 0MQ      0.075000
     32 H20        -0.2210   -2.7200   -0.1450 ho        1 0MQ      0.180000
@<TRIPOS>BOND
     1    1    2 1   
     2    2    3 1   
     3    2    4 1   
     4    2    5 1   
     5    3   32 1   
     6    5   10 1   
     7    5   18 1   
     8    6    7 1   
     9    6    8 1   
    10    6    9 1   
    11   10   11 1   
    12   10   19 1   
    13   10   20 1   
    14   11   12 1   
    15   11   21 1   
    16   12   13 1   
    17   12   17 1   
    18   12   22 1   
    19   13   14 1   
    20   13   23 1   
    21   13   24 1   
    22   14   15 1   
    23   14   25 1   
    24   14   26 1   
    25   15   16 1   
    26   15   27 1   
    27   15   28 1   
    28   16   17 1   
    29   16   29 1   
    30   16   30 1   
    31   17   31 1   
@<TRIPOS>SUBSTRUCTURE
     1 0MQ         1 TEMP              0 ****  ****    0 ROOT
