@<TRIPOS>MOLECULE
0MQ
   33    33     1     0     0
SMALL
bcc


@<TRIPOS>ATOM
      1 O6         -0.1130   -0.0030   -0.8820 o         1 0MQ     -0.940000
      2 P2          1.2920   -0.0750   -0.3710 p5        1 0MQ      1.432600
      3 O4          1.1450   -0.2270    1.2830 oh        1 0MQ     -0.815400
      4 O5          1.9960   -1.3370   -0.7860 o         1 0MQ     -0.940000
      5 C1          2.2010    1.2900   -0.6090 c3        1 0MQ     -0.559100
      6 P1          2.1880    3.2780    0.0210 p5        1 0MQ      1.223700
      7 O3          0.8720    3.8800   -0.3580 o         1 0MQ     -0.930500
      8 O2          3.3510    3.8230   -0.7730 o         1 0MQ     -0.930500
      9 O1          2.4830    3.1570    1.4920 o         1 0MQ     -0.930500
     10 C2          3.6730    1.0200   -0.5570 c3        1 0MQ      0.221800
     11 N1          4.3580    0.9790    0.7500 n3        1 0MQ     -0.826200
     12 C3          5.7480    1.3980    0.6690 c3        1 0MQ      0.213500
     13 C4          6.5600    0.8250    1.8530 c3        1 0MQ     -0.119400
     14 C5          8.0340    1.1390    1.7010 c3        1 0MQ     -0.060900
     15 C6          8.2770    2.6310    1.6000 c3        1 0MQ     -0.070400
     16 C7          7.4600    3.2360    0.4760 c3        1 0MQ     -0.060900
     17 C8          5.9890    2.9160    0.6210 c3        1 0MQ     -0.119400
     18 H3          1.9440    1.6930   -1.6130 hc        1 0MQ      0.063700
     19 H6          4.1750    1.7930   -1.2180 h1        1 0MQ      0.011700
     20 H7          3.8650   -0.0030   -1.0060 h1        1 0MQ      0.011700
     21 H8          3.8510    1.5900    1.3850 hn        1 0MQ      0.407800
     22 H10         6.1910    0.9540   -0.2730 h1        1 0MQ      0.010700
     23 H11         6.1780    1.2610    2.8100 hc        1 0MQ      0.070450
     24 H12         6.4220   -0.2860    1.9030 hc        1 0MQ      0.070450
     25 H13         8.6060    0.7250    2.5740 hc        1 0MQ      0.003450
     26 H14         8.4300    0.6370    0.7780 hc        1 0MQ      0.003450
     27 H15         7.9910    3.1180    2.5690 hc        1 0MQ      0.000200
     28 H16         9.3700    2.8280    1.4360 hc        1 0MQ      0.000200
     29 H17         7.8370    2.8440   -0.5050 hc        1 0MQ      0.003450
     30 H18         7.6080    4.3480    0.4690 hc        1 0MQ      0.003450
     31 H19         5.3910    3.3600   -0.2330 hc        1 0MQ      0.070450
     32 H20         5.5830    3.3850    1.5550 hc        1 0MQ      0.070450
     33 H121        1.5790    0.4780    1.7470 ho        1 0MQ      0.413000
@<TRIPOS>BOND
     1    1    2 1   
     2    2    3 1   
     3    2    4 1   
     4    2    5 1   
     5    3   33 1   
     6    5    6 1   
     7    5   10 1   
     8    5   18 1   
     9    6    7 1   
    10    6    8 1   
    11    6    9 1   
    12   10   11 1   
    13   10   19 1   
    14   10   20 1   
    15   11   12 1   
    16   11   21 1   
    17   12   13 1   
    18   12   17 1   
    19   12   22 1   
    20   13   14 1   
    21   13   23 1   
    22   13   24 1   
    23   14   15 1   
    24   14   25 1   
    25   14   26 1   
    26   15   16 1   
    27   15   27 1   
    28   15   28 1   
    29   16   17 1   
    30   16   29 1   
    31   16   30 1   
    32   17   31 1   
    33   17   32 1   
@<TRIPOS>SUBSTRUCTURE
     1 0MQ         1 TEMP              0 ****  ****    0 ROOT
