@<TRIPOS>MOLECULE
0MQ
   32    30     1     0     0
SMALL
bcc


@<TRIPOS>ATOM
      1 O6         -1.6190   -3.3300    2.5230 o         1 0MQ     -1.252000
      2 P2         -0.2310   -2.7430    2.6380 p3        1 0MQ      2.591000
      3 O4          0.3180   -3.0100    4.0240 o         1 0MQ     -1.252000
      4 O5          0.6740   -3.3810    1.6080 o         1 0MQ     -1.252000
      5 C1         -0.3050   -0.9340    2.3490 c2        1 0MQ     -1.425000
      6 P1         -1.3280   -0.1460    3.6590 p3        1 0MQ      2.730000
      7 O3         -1.3370    1.3570    3.4570 o         1 0MQ     -1.057500
      8 O2         -0.7450   -0.4690    5.0150 o         1 0MQ     -1.057500
      9 O1         -2.7400   -0.6730    3.5800 os        1 0MQ     -1.278000
     10 C2         -0.9340   -0.6560    0.9680 c3        1 0MQ     -0.005000
     11 N1          0.0190    0.0470    0.1380 n3        1 0MQ     -0.343000
     12 C3         -0.5480    0.2680   -1.1630 c3        1 0MQ      0.150000
     13 C4         -0.5040    1.7550   -1.4710 c3        1 0MQ     -0.466500
     14 C5          0.9130    2.2620   -1.6830 c3        1 0MQ     -0.005500
     15 C6          1.6750    1.4420   -2.6950 c3        1 0MQ     -0.133000
     16 C7          1.6310   -0.0480   -2.3880 c3        1 0MQ     -0.005500
     17 C8          0.2190   -0.5550   -2.1790 c3        1 0MQ     -0.466500
     18 H3          0.6020   -0.5610    2.3750 ha        1 0MQ      0.122000
     19 H6         -1.7400   -0.1050    1.0800 h1        1 0MQ      0.045500
     20 H7         -1.1750   -1.5060    0.5410 h1        1 0MQ      0.045500
     21 H8          0.2220    0.8490    0.5220 hn        1 0MQ      0.140000
     22 H10        -1.4840   -0.0270   -1.1570 h1        1 0MQ     -0.014000
     23 H11        -1.0280    1.9260   -2.2850 hc        1 0MQ      0.079500
     24 H12        -0.9050    2.2410   -0.7300 hc        1 0MQ      0.079500
     25 H13         0.8730    3.1970   -1.9950 hc        1 0MQ     -0.028750
     26 H14         1.3890    2.2330   -0.8320 hc        1 0MQ     -0.028750
     27 H15         2.6120    1.7370   -2.7010 hc        1 0MQ     -0.008500
     28 H16         1.2860    1.5960   -3.5880 hc        1 0MQ     -0.008500
     29 H17         2.1510   -0.2190   -1.5780 hc        1 0MQ     -0.028750
     30 H18         2.0350   -0.5340   -3.1300 hc        1 0MQ     -0.028750
     31 H19        -0.2550   -0.5260   -3.0320 hc        1 0MQ      0.079500
     32 H20         0.2590   -1.4850   -1.8690 hc        1 0MQ      0.079500
@<TRIPOS>BOND
     1    1    2 1   
     2    2    3 1   
     3    2    4 1   
     4    5    6 1   
     5    5   10 1   
     6    5   18 1   
     7    6    7 1   
     8    6    8 1   
     9   10   11 1   
    10   10   19 1   
    11   10   20 1   
    12   11   12 1   
    13   11   21 1   
    14   12   13 1   
    15   12   17 1   
    16   12   22 1   
    17   13   14 1   
    18   13   23 1   
    19   13   24 1   
    20   14   15 1   
    21   14   25 1   
    22   14   26 1   
    23   15   16 1   
    24   15   27 1   
    25   15   28 1   
    26   16   17 1   
    27   16   29 1   
    28   16   30 1   
    29   17   31 1   
    30   17   32 1   
@<TRIPOS>SUBSTRUCTURE
     1 0MQ         1 TEMP              0 ****  ****    0 ROOT
