@<TRIPOS>MOLECULE
0MR
   66    54     1     0     0
SMALL
bcc


@<TRIPOS>ATOM
      1 C1          0.5780    4.0910    0.9230 c1        1 0MR     -0.114375
      2 C2          1.9740    4.1390    0.9380 c1        1 0MR     -0.114375
      3 C3         -4.0670   -7.6080   -3.9800 c1        1 0MR     -0.114375
      4 C4         -3.6950   -7.6530   -5.2960 c1        1 0MR     -0.114375
      5 C5         -0.1260    3.9070    2.1130 c1        1 0MR     -0.114375
      6 C6          2.6650    4.0030    2.1430 c1        1 0MR     -0.114375
      7 C7         -3.3460   -6.8550   -3.0920 c1        1 0MR     -0.114375
      8 C8         -0.1700   -2.4860   -1.6920 c1        1 0MR     -0.227000
      9 C9         -0.1960   -0.3840   -3.5150 c1        1 0MR     -0.033000
     10 C10        -2.5870   -6.9350   -5.7300 c1        1 0MR     -0.114375
     11 C11         0.5640    3.7710    3.3180 c1        1 0MR     -0.058000
     12 C12         0.7030    3.0510    3.2310 c1        1 0MR     -0.348000
     13 C13         0.1370   -1.1980   -1.2700 c1        1 0MR      0.125000
     14 C14        -0.4910   -2.7250   -3.0260 c1        1 0MR     -0.010500
     15 C15        -0.5040   -1.6740   -3.9360 c1        1 0MR     -0.010500
     16 C16         1.9610    3.8190    3.3320 c1        1 0MR      0.216000
     17 C17         0.1240   -0.1460   -2.1830 c1        1 0MR     -0.120000
     18 C18        -0.2850    2.8390    4.1670 c2        1 0MR     -0.031000
     19 C19        -2.2390   -6.1380   -3.5290 c1        1 0MR     -0.073000
     20 C20         0.9130    4.4220    3.1310 c1        1 0MR      0.009000
     21 C21         0.0400    1.6540    3.3460 c1        1 0MR      0.197000
     22 C22        -1.9080   -4.7560   -2.9880 c2        1 0MR      0.371000
     23 C23        -0.5570   -1.0570    0.9720 c3        1 0MR     -0.083500
     24 C24         1.2330    0.3060    0.1670 c3        1 0MR     -0.083500
     25 C25        -0.1990   -0.6730    2.4010 c3        1 0MR     -0.085500
     26 C26         1.5820    0.6830    1.6000 c3        1 0MR     -0.085500
     27 C27         1.0030    5.9320    2.8070 c2        1 0MR     -0.198000
     28 C28         3.4200    3.8020    5.2260 c3        1 0MR     -0.080000
     29 N29        -1.8690   -6.1840   -4.8430 n1        1 0MR     -0.119000
     30 N30        -0.6820    4.0520    4.6410 n2        1 0MR      0.068000
     31 N31         0.5720   -0.9680    0.0850 n3        1 0MR     -0.237000
     32 N32         0.4650    0.5790    2.4680 n2        1 0MR     -0.200000
     33 N33        -0.7560   -4.0590   -3.4690 n2        1 0MR     -0.313000
     34 N34        -0.5230   -1.6240   -5.3640 n1        1 0MR      0.578000
     35 O35        -1.1050   -2.6350   -6.0760 os        1 0MR     -0.381000
     36 O36        -0.9300    1.5000    4.0700 o         1 0MR     -0.151000
     37 O37        -2.6620   -4.2140   -2.2010 o         1 0MR     -0.347000
     38 O38         0.0030   -0.6840   -5.9510 o         1 0MR     -0.351000
     39 O39         0.0680    5.0380    3.9920 os        1 0MR     -0.151000
     40 O40         3.0670    4.4280    3.9940 os        1 0MR     -0.250000
     41 CL4         0.5750    1.4600   -2.7030 cl        1 0MR      0.014000
     42 H1          0.0910    4.1870    0.0720 ha        1 0MR      0.148375
     43 H2          2.4700    4.2680    0.0990 ha        1 0MR      0.148375
     44 H3         -4.8490   -8.1150   -3.6730 ha        1 0MR      0.148375
     45 H4         -4.2100   -8.1920   -5.9330 ha        1 0MR      0.148375
     46 H5         -1.1130    3.8730    2.1030 ha        1 0MR      0.148375
     47 H6          3.6470    4.0370    2.1530 ha        1 0MR      0.148375
     48 H7         -3.6120   -6.8220   -2.1480 ha        1 0MR      0.148375
     49 H8         -0.1600   -3.2280   -1.0490 ha        1 0MR      0.181000
     50 H9         -0.2060    0.3570   -4.1570 ha        1 0MR      0.185000
     51 H10        -2.3210   -6.9680   -6.6740 ha        1 0MR      0.148375
     52 H11        -1.2650   -0.4560    0.6480 h1        1 0MR      0.117000
     53 H12        -0.8960   -1.9800    0.9650 h1        1 0MR      0.117000
     54 H13         0.6440    0.9950   -0.2100 h1        1 0MR      0.117000
     55 H14         2.0620    0.2690   -0.3640 h1        1 0MR      0.117000
     56 H15         0.3880   -1.3670    2.7800 h1        1 0MR      0.121000
     57 H16        -1.0230   -0.6260    2.9340 h1        1 0MR      0.121000
     58 H17         2.2950    0.0850    1.9230 h1        1 0MR      0.121000
     59 H18         1.9100    1.6040    1.6140 h1        1 0MR      0.121000
     60 H19         0.1140    6.2650    2.5470 ha        1 0MR      0.101667
     61 H20         1.6350    6.0710    2.0660 ha        1 0MR      0.101667
     62 H21         1.3180    6.4200    3.6030 ha        1 0MR      0.101667
     63 H22         3.6390    2.8590    5.0620 h1        1 0MR      0.088333
     64 H23         4.2020    4.2590    5.6140 h1        1 0MR      0.088333
     65 H24         2.6650    3.8590    5.8500 h1        1 0MR      0.088333
     66 H25        -0.1780   -4.4730   -4.0470 hn        1 0MR      0.286000
@<TRIPOS>BOND
     1    1    5 1   
     2    1   42 1   
     3    2    6 1   
     4    2   43 1   
     5    3    7 1   
     6    3   44 1   
     7    4   10 1   
     8    4   45 1   
     9    5   46 1   
    10    6   47 1   
    11    7   48 1   
    12    8   13 1   
    13    8   49 1   
    14    9   17 1   
    15    9   50 1   
    16   10   51 1   
    17   11   16 1   
    18   11   18 1   
    19   12   18 1   
    20   12   20 1   
    21   13   31 1   
    22   14   15 1   
    23   16   40 1   
    24   18   30 1   
    25   19   22 1   
    26   19   29 1   
    27   20   39 1   
    28   21   36 1   
    29   22   33 1   
    30   22   37 1   
    31   23   25 1   
    32   23   31 1   
    33   23   52 1   
    34   23   53 1   
    35   24   26 1   
    36   24   31 1   
    37   24   54 1   
    38   24   55 1   
    39   25   32 1   
    40   25   56 1   
    41   25   57 1   
    42   26   32 1   
    43   26   58 1   
    44   26   59 1   
    45   27   60 1   
    46   27   61 1   
    47   27   62 1   
    48   28   40 1   
    49   28   63 1   
    50   28   64 1   
    51   28   65 1   
    52   30   39 1   
    53   33   66 1   
    54   34   38 1   
@<TRIPOS>SUBSTRUCTURE
     1 0MR         1 TEMP              0 ****  ****    0 ROOT
