@<TRIPOS>MOLECULE
0MR
   66    67     1     0     0
SMALL
bcc


@<TRIPOS>ATOM
      1 C1          0.4150    1.6420    1.2940 c3        1 0MR     -0.146000
      2 C2          1.6240    0.8520    1.4120 c2        1 0MR     -0.223000
      3 C3          2.6980    3.2120   -4.4150 c3        1 0MR      0.027000
      4 C4          2.0030    3.2100   -5.6860 c1        1 0MR     -0.178000
      5 C5         -0.6900    1.2750    2.1670 c2        1 0MR     -0.078000
      6 C6          1.7670   -0.2680    2.2670 c2        1 0MR     -0.002000
      7 C7          1.5130    3.2560   -3.4390 c2        1 0MR     -0.132000
      8 C8         -3.3820    3.2840   -1.1410 ca        1 0MR     -0.188000
      9 C9         -4.6790    5.7390   -0.8700 ca        1 0MR     -0.037000
     10 C10         0.8000    3.1850   -5.9150 c1        1 0MR     -0.129000
     11 C11        -0.6090    0.1730    2.9970 c2        1 0MR     -0.127000
     12 C12        -3.1540   -0.3310    3.4140 c2        1 0MR     -0.229000
     13 C13        -4.4500    3.4040   -0.2400 ca        1 0MR      0.063000
     14 C14        -2.9260    4.3730   -1.9210 ca        1 0MR      0.166000
     15 C15        -3.6030    5.6190   -1.7680 ca        1 0MR     -0.185000
     16 C16         0.5690   -0.6040    3.0360 c2        1 0MR      0.175000
     17 C17        -5.1080    4.6550   -0.1190 ca        1 0MR     -0.107000
     18 C18        -1.7570   -0.1440    3.8420 c2        1 0MR     -0.016000
     19 C19         0.1910    3.2610   -3.7760 c2        1 0MR     -0.105000
     20 C20        -3.8500   -0.5610    4.5980 c2        1 0MR      0.069000
     21 C22        -0.8320    3.2900   -2.6770 c2        1 0MR      0.364000
     22 C23        -5.5000    1.3380    0.2330 c2        1 0MR     -0.047000
     23 C24         1.7940    5.9410    1.0240 c2        1 0MR     -0.222500
     24 C25        -5.8450    0.2290    1.1670 c2        1 0MR      0.034000
     25 C26         1.4020    5.1010    1.9720 c2        1 0MR     -0.222500
     26 C27        -5.2360   -0.8350    4.9740 c3        1 0MR     -0.176000
     27 C28         2.9130   -0.9860    2.3780 c2        1 0MR     -0.394000
     28 N29        -0.3360    3.3200   -5.1480 n3        1 0MR     -0.083000
     29 N30        -1.7080   -0.2610    5.1870 n2        1 0MR     -0.031000
     30 N31        -4.7890    2.3340    0.6180 n2        1 0MR     -0.120000
     31 N32        -5.0910   -0.4550    1.9380 n2        1 0MR     -0.215000
     32 N33        -1.8690    4.2080   -2.8200 n         1 0MR     -0.321000
     33 N34        -3.2300    6.8460   -2.5160 no        1 0MR      0.575000
     34 O35        -3.5690    7.9090   -2.0690 o         1 0MR     -0.357000
     35 O36        -2.9560   -0.2400    1.0390 o         1 0MR     -0.298000
     36 O37        -0.7220    2.5350   -1.6940 o         1 0MR     -0.343000
     37 O38        -2.6200    6.7680   -3.5520 o         1 0MR     -0.357000
     38 O39        -2.9170   -0.5140    5.6510 os        1 0MR     -0.054000
     39 O40         0.6970   -1.7360    3.7710 oh        1 0MR     -0.203000
     40 CL4        -6.4210    4.8490    0.9350 cl        1 0MR      0.023000
     41 H1         -1.6110    1.8730    2.1180 ha        1 0MR      0.142000
     42 H2          0.0310    1.5650    0.2200 hc        1 0MR      0.184000
     43 H4          3.3540    4.1100   -4.2690 hc        1 0MR      0.119500
     44 H5          0.6600    2.7410    1.4430 hc        1 0MR      0.184000
     45 H6          2.4750    1.1320    0.7780 ha        1 0MR      0.131000
     46 H7          1.8110    3.2870   -2.3790 ha        1 0MR      0.166000
     47 H8         -2.8650    2.3070   -1.2240 ha        1 0MR      0.195000
     48 H9         -5.1860    6.7180   -0.7570 ha        1 0MR      0.189000
     49 H10        -1.0400    2.6220   -5.3200 hn        1 0MR      0.201000
     50 H11        -1.5100    0.4270   -0.7240 ha        1 0MR      0.003000
     51 H12        -1.8960    0.3120   -1.2690 ha        1 0MR      0.003000
     52 H13         2.8340    5.9980    0.6750 ha        1 0MR      0.111500
     53 H14         1.1070    6.6420    0.5300 ha        1 0MR      0.111500
     54 H15        -5.9260    1.1990   -0.7860 h4        1 0MR      0.138000
     55 H16        -6.9280   -0.0260    1.1630 h4        1 0MR      0.168000
     56 H17         2.0910    4.4070    2.4740 ha        1 0MR      0.111500
     57 H18         0.3640    5.0510    2.3280 ha        1 0MR      0.111500
     58 H19        -5.6150   -1.7240    4.4070 hc        1 0MR      0.118000
     59 H20        -5.3160   -1.0380    6.0720 hc        1 0MR      0.118000
     60 H21        -5.8780    0.0480    4.7210 hc        1 0MR      0.118000
     61 H22        -0.1360   -1.9430    4.2210 ho        1 0MR      0.228000
     62 H23         2.9950   -1.8480    3.0430 ha        1 0MR      0.111500
     63 H24         3.8040   -0.7270    1.8010 ha        1 0MR      0.111500
     64 H25        -1.8050    4.8570   -3.5840 hn        1 0MR      0.288000
     65 C21        -3.6730   -0.3020    2.0510 c2        1 0MR      0.346000
     66 H3          3.3080    2.2880   -4.2410 hc        1 0MR      0.119500
@<TRIPOS>BOND
     1    1    2 1   
     2    1    5 1   
     3    1   42 1   
     4    1   44 1   
     5    2    6 1   
     6    2   45 1   
     7    3    4 1   
     8    3    7 1   
     9    3   43 1   
    10    3   66 1   
    11    4   10 1   
    12    5   11 1   
    13    5   41 1   
    14    6   16 1   
    15    6   27 1   
    16    7   19 1   
    17    7   46 1   
    18    8   13 1   
    19    8   14 1   
    20    8   47 1   
    21    9   15 1   
    22    9   17 1   
    23    9   48 1   
    24   10   28 1   
    25   11   16 1   
    26   11   18 1   
    27   12   18 1   
    28   12   20 1   
    29   12   65 1   
    30   13   17 1   
    31   13   30 1   
    32   14   15 1   
    33   14   32 1   
    34   15   33 1   
    35   16   39 1   
    36   17   40 1   
    37   18   29 1   
    38   19   21 1   
    39   19   28 1   
    40   20   26 1   
    41   20   38 1   
    42   21   32 1   
    43   21   36 1   
    44   22   24 1   
    45   22   30 1   
    46   22   54 1   
    47   23   25 1   
    48   23   52 1   
    49   23   53 1   
    50   24   31 1   
    51   24   55 1   
    52   25   56 1   
    53   25   57 1   
    54   26   58 1   
    55   26   59 1   
    56   26   60 1   
    57   27   62 1   
    58   27   63 1   
    59   28   49 1   
    60   29   38 1   
    61   31   65 1   
    62   32   64 1   
    63   33   34 1   
    64   33   37 1   
    65   35   65 1   
    66   39   61 1   
    67   50   51 1   
@<TRIPOS>SUBSTRUCTURE
     1 0MR         1 TEMP              0 ****  ****    0 ROOT
