@<TRIPOS>MOLECULE
0MR
   66    71     1     0     0
SMALL
bcc


@<TRIPOS>ATOM
      1 C1         -1.4260    0.2300   -0.5030 c3        1 0MR     -0.134000
      2 C2         -0.2950    1.1300   -0.7300 c1        1 0MR     -0.283000
      3 C3          1.9620    0.7360   -3.6180 c3        1 0MR      0.033000
      4 C4          2.3860    1.3350   -4.8700 c1        1 0MR     -0.211000
      5 C5         -1.9570    0.1380    0.9290 c3        1 0MR     -0.024000
      6 C6          0.5150    1.5290    0.2800 c2        1 0MR     -0.236000
      7 C7          0.7460    1.5900   -3.2710 c2        1 0MR     -0.220000
      8 C8         -1.8650    4.2110   -0.9820 ca        1 0MR     -0.235000
      9 C9         -2.4690    6.8830   -0.6450 ca        1 0MR     -0.011000
     10 C10         1.8650    2.2320   -5.5280 c1        1 0MR     -0.155000
     11 C11        -0.8680    0.3150    1.9400 c2        1 0MR     -0.431000
     12 C12        -2.3300   -0.5290    3.8640 c2        1 0MR     -0.344000
     13 C13        -2.7360    4.5610    0.0630 ca        1 0MR      0.169000
     14 C14        -1.3890    5.1290   -1.9500 ca        1 0MR      0.215000
     15 C15        -1.6510    6.5090   -1.7230 ca        1 0MR     -0.214000
     16 C16         0.2920    1.0090    1.6050 c2        1 0MR      0.279000
     17 C17        -3.0350    5.9460    0.2110 ca        1 0MR     -0.166000
     18 C18        -1.0370   -0.4340    3.1500 c2        1 0MR      0.052000
     19 C19         0.2550    2.5970   -4.0400 c2        1 0MR     -0.177000
     20 C20        -2.0990   -1.4320    4.9060 c2        1 0MR      0.131000
     21 C22        -0.9370    3.3260   -3.5220 c2        1 0MR      0.397000
     22 C23        -3.5160    2.2410    0.3030 c3        1 0MR     -0.049000
     23 C24        -3.9240    3.7880    2.1160 c3        1 0MR     -0.042000
     24 C25        -3.2190    1.0100    1.2140 c3        1 0MR     -0.058000
     25 C26        -4.2630    2.4940    2.8900 c3        1 0MR     -0.135000
     26 C27        -2.9270   -2.0050    5.9640 c3        1 0MR     -0.198000
     27 C28         1.6830    2.4140    0.0600 c3        1 0MR     -0.140000
     28 N29         0.8460    3.1300   -5.2860 n7        1 0MR     -0.083000
     29 N30        -0.1530   -1.2240    3.8020 n2        1 0MR     -0.062000
     30 N31        -3.2060    3.5270    0.8930 nh        1 0MR     -0.290000
     31 N32        -3.2590    1.4190    2.6740 nx        1 0MR     -0.054000
     32 N33        -0.7090    4.6390   -3.0540 ns        1 0MR     -0.334000
     33 N34        -1.1110    7.5800   -2.5860 no        1 0MR      0.583000
     34 O35        -1.5880    8.6820   -2.4990 o         1 0MR     -0.366000
     35 O36        -4.6590    0.0490    3.9670 o         1 0MR     -0.251000
     36 O37        -2.0630    2.8130   -3.4500 o         1 0MR     -0.325000
     37 O38        -0.2010    7.3500   -3.3400 o         1 0MR     -0.366000
     38 O39        -0.7590   -1.8000    4.8390 os        1 0MR     -0.036000
     39 O40         1.2910    1.2630    2.4930 oh        1 0MR     -0.229000
     40 Cl4        -4.0800    6.5850    1.3980 cl        1 0MR     -0.021000
     41 H1         -2.3500   -0.9190    1.0510 hc        1 0MR      0.081000
     42 H2         -1.0540   -0.8010   -0.7840 hc        1 0MR      0.107500
     43 H4          2.7320    0.8180   -2.8060 hc        1 0MR      0.105500
     44 H5         -2.2600    0.4540   -1.2190 hc        1 0MR      0.107500
     45 H6          1.5030    3.4190    0.5160 hc        1 0MR      0.073333
     46 H7          0.2380    1.3530   -2.1950 ha        1 0MR      0.309000
     47 H8         -1.4950    3.1660   -1.0740 ha        1 0MR      0.196000
     48 H9         -2.6880    7.9590   -0.4900 ha        1 0MR      0.183000
     49 H10         0.1680    3.1680   -6.0300 hn        1 0MR      0.178000
     50 H11        -2.9780    2.1030   -0.6750 h1        1 0MR      0.128000
     51 H12        -4.6260    2.2010    0.0770 h1        1 0MR      0.128000
     52 H13        -3.2860    4.4510    2.7660 h1        1 0MR      0.117000
     53 H14        -4.9160    4.2980    1.9330 h1        1 0MR      0.117000
     54 H15        -2.3160    1.7910    2.8930 hn        1 0MR      0.277000
     55 H16        -4.1110    0.3260    1.0640 hx        1 0MR      0.117000
     56 H17        -5.2670    2.0970    2.5690 hx        1 0MR      0.139500
     57 H18        -4.3100    2.7270    3.9900 hx        1 0MR      0.139500
     58 H19        -3.9520   -1.5560    5.9320 hc        1 0MR      0.129333
     59 H20        -3.0080   -3.1150    5.8220 hc        1 0MR      0.129333
     60 H21        -2.4650   -1.8160    6.9670 hc        1 0MR      0.129333
     61 H22         1.1350    0.8020    3.3290 ho        1 0MR      0.224000
     62 H23         1.8700    2.5440   -1.0350 hc        1 0MR      0.073333
     63 H24         2.6000    1.9810    0.5320 hc        1 0MR      0.073333
     64 H25         0.0390    5.1730   -3.4500 hn        1 0MR      0.287000
     65 C21        -3.5080    0.2220    3.5660 c2        1 0MR      0.364000
     66 H3          1.6650   -0.3390   -3.7210 hc        1 0MR      0.105500
@<TRIPOS>BOND
     1    1    2 1   
     2    1    5 1   
     3    1   42 1   
     4    1   44 1   
     5    2    6 1   
     6    3    4 1   
     7    3    7 1   
     8    3   43 1   
     9    3   66 1   
    10    4   10 1   
    11    5   11 1   
    12    5   24 1   
    13    5   41 1   
    14    6   16 1   
    15    6   27 1   
    16    7   19 1   
    17    7   46 1   
    18    8   13 1   
    19    8   14 1   
    20    8   47 1   
    21    9   15 1   
    22    9   17 1   
    23    9   48 1   
    24   10   28 1   
    25   11   16 1   
    26   11   18 1   
    27   12   18 1   
    28   12   20 1   
    29   12   65 1   
    30   13   17 1   
    31   13   30 1   
    32   14   15 1   
    33   14   32 1   
    34   15   33 1   
    35   16   39 1   
    36   17   40 1   
    37   18   29 1   
    38   19   21 1   
    39   19   28 1   
    40   20   26 1   
    41   20   38 1   
    42   21   32 1   
    43   21   36 1   
    44   22   24 1   
    45   22   30 1   
    46   22   50 1   
    47   22   51 1   
    48   23   25 1   
    49   23   30 1   
    50   23   52 1   
    51   23   53 1   
    52   24   31 1   
    53   24   55 1   
    54   25   31 1   
    55   25   56 1   
    56   25   57 1   
    57   26   58 1   
    58   26   59 1   
    59   26   60 1   
    60   27   45 1   
    61   27   62 1   
    62   27   63 1   
    63   28   49 1   
    64   29   38 1   
    65   31   54 1   
    66   31   65 1   
    67   32   64 1   
    68   33   34 1   
    69   33   37 1   
    70   35   65 1   
    71   39   61 1   
@<TRIPOS>SUBSTRUCTURE
     1 0MR         1 TEMP              0 ****  ****    0 ROOT
