@<TRIPOS>MOLECULE
0MR
   66    70     1     0     0
SMALL
bcc


@<TRIPOS>ATOM
      1 C1         -3.3980    3.4610    0.7710 ca        1 0MR     -0.168000
      2 C2         -3.0200    3.9690   -0.4700 ca        1 0MR     -0.079000
      3 C3          6.0830    3.9810    3.0820 ca        1 0MR     -0.100000
      4 C4          6.4470    4.8510    2.0570 ca        1 0MR     -0.219300
      5 C5         -4.0960    2.2580    0.8510 ca        1 0MR     -0.069000
      6 C6         -3.3240    3.2760   -1.6390 ca        1 0MR     -0.213000
      7 C7          5.2570    2.8920    2.7870 ca        1 0MR     -0.186300
      8 C8          2.0280   -0.4370    0.0190 ca        1 0MR     -0.225000
      9 C9          3.0470   -2.1910   -1.8790 ca        1 0MR     -0.033000
     10 C10         5.9640    4.5960    0.7570 ca        1 0MR      0.396200
     11 C11        -4.4270    1.5480   -0.3100 ca        1 0MR     -0.180500
     12 C12        -4.8630   -0.8310    0.6580 cc        1 0MR     -0.378200
     13 C13         1.2410   -1.5300   -0.3820 ca        1 0MR      0.215600
     14 C14         3.3230   -0.1890   -0.4880 ca        1 0MR      0.173600
     15 C15         3.8230   -1.0880   -1.4760 ca        1 0MR     -0.249200
     16 C16        -4.0230    2.0630   -1.5630 ca        1 0MR      0.155100
     17 C17         1.7900   -2.4230   -1.3450 ca        1 0MR     -0.041600
     18 C18        -5.1890    0.3150   -0.2040 cc        1 0MR      0.422800
     19 C19         4.8310    2.7150    1.4560 ca        1 0MR      0.345800
     20 C20        -5.8790   -1.7430    0.4300 cd        1 0MR      0.311000
     21 C22         3.9200    1.5430    1.1820 c         1 0MR      0.586600
     22 C23        -0.2580   -1.2310    1.5180 c3        1 0MR      0.158800
     23 C24        -1.1750   -1.6760   -0.6800 c3        1 0MR      0.158800
     24 C25        -1.5270   -1.8290    2.1690 c3        1 0MR      0.079500
     25 C26        -2.4490   -2.2680   -0.0320 c3        1 0MR      0.079500
     26 C27        -6.2280   -3.0700    0.9320 c3        1 0MR     -0.148400
     27 C28        -4.1620    1.9030   -3.9340 c3        1 0MR      0.113700
     28 N29         5.1750    3.5550    0.4470 nb        1 0MR     -0.645000
     29 N30        -6.3310    0.0320   -0.8690 nd        1 0MR     -0.334300
     30 N31        -0.0180   -1.7950    0.1980 nh        1 0MR     -0.640000
     31 N32        -2.6930   -1.7930    1.3100 n         1 0MR     -0.452800
     32 N33         4.0690    0.9060   -0.0450 n         1 0MR     -0.460100
     33 N34         5.1520   -0.9480   -2.1160 no        1 0MR      0.323200
     34 O35         5.6210   -1.9050   -2.6740 o         1 0MR     -0.217000
     35 O36        -3.7630   -0.3010    2.6890 o         1 0MR     -0.590100
     36 O37         3.1140    1.1720    2.0540 o         1 0MR     -0.582100
     37 O38         5.7380    0.1050   -2.0940 o         1 0MR     -0.217000
     38 O39        -6.7550   -1.1660   -0.5170 os        1 0MR     -0.117100
     39 O40        -4.3180    1.2830   -2.6620 os        1 0MR     -0.319900
     40 CL4         0.9680   -3.8240   -1.8460 cl        1 0MR     -0.067400
     41 H1         -3.1500    4.0090    1.6920 ha        1 0MR      0.141000
     42 H2         -2.4740    4.9230   -0.5320 ha        1 0MR      0.135000
     43 H4          7.0930    5.7180    2.2460 ha        1 0MR      0.151000
     44 H5         -4.3880    1.8480    1.8330 ha        1 0MR      0.166000
     45 H6         -3.0140    3.6830   -2.6110 ha        1 0MR      0.141000
     46 H7          4.9290    2.1890    3.5670 ha        1 0MR      0.168000
     47 H8          1.6210    0.2650    0.7700 ha        1 0MR      0.184000
     48 H9          3.4610   -2.8970   -2.6260 ha        1 0MR      0.184000
     49 H10         6.2240    5.2620   -0.0860 h4        1 0MR      0.033100
     50 H11        -0.3700   -0.1080    1.4780 h1        1 0MR      0.057700
     51 H12         0.6200   -1.4760    2.1780 h1        1 0MR      0.057700
     52 H13        -0.9810   -2.2390   -1.6340 h1        1 0MR      0.057700
     53 H14        -1.3660   -0.5950   -0.9440 h1        1 0MR      0.057700
     54 H15        -1.3340   -2.9090    2.4290 h1        1 0MR      0.072950
     55 H16        -1.7290   -1.2580    3.1190 h1        1 0MR      0.072950
     56 H17        -3.3160   -2.0240   -0.7070 h1        1 0MR      0.072950
     57 H18        -2.3410   -3.3900    0.0210 h1        1 0MR      0.072950
     58 H19        -6.6460   -2.9840    1.9680 hc        1 0MR      0.073367
     59 H20        -6.9950   -3.5530    0.2760 hc        1 0MR      0.073367
     60 H21        -5.3140   -3.7160    0.9690 hc        1 0MR      0.073367
     61 H22        -4.7320    2.8620   -3.9850 h1        1 0MR      0.047033
     62 H23        -3.0800    2.0760   -4.1530 h1        1 0MR      0.047033
     63 H24        -4.5920    1.1490   -4.6420 h1        1 0MR      0.047033
     64 H25         4.7690    1.2640   -0.6680 hn        1 0MR      0.372500
     65 C21        -3.7420   -0.9230    1.6080 c         1 0MR      0.705700
     66 H3          6.4350    4.1450    4.1120 ha        1 0MR      0.149000
@<TRIPOS>BOND
     1    1    2 ar  
     2    1    5 ar  
     3    1   41 1   
     4    2    6 ar  
     5    2   42 1   
     6    3    4 ar  
     7    3    7 ar  
     8    3   66 1   
     9    4   10 ar  
    10    4   43 1   
    11    5   11 ar  
    12    5   44 1   
    13    6   16 ar  
    14    6   45 1   
    15    7   19 ar  
    16    7   46 1   
    17    8   13 ar  
    18    8   14 ar  
    19    8   47 1   
    20    9   15 ar  
    21    9   17 ar  
    22    9   48 1   
    23   10   28 ar  
    24   10   49 1   
    25   11   16 ar  
    26   11   18 1   
    27   12   18 1   
    28   12   20 2   
    29   12   65 1   
    30   13   17 ar  
    31   13   30 1   
    32   14   15 ar  
    33   14   32 1   
    34   15   33 1   
    35   16   39 1   
    36   17   40 1   
    37   18   29 2   
    38   19   21 1   
    39   19   28 ar  
    40   20   26 1   
    41   20   38 1   
    42   21   32 1   
    43   21   36 2   
    44   22   24 1   
    45   22   30 1   
    46   22   50 1   
    47   22   51 1   
    48   23   25 1   
    49   23   30 1   
    50   23   52 1   
    51   23   53 1   
    52   24   31 1   
    53   24   54 1   
    54   24   55 1   
    55   25   31 1   
    56   25   56 1   
    57   25   57 1   
    58   26   58 1   
    59   26   59 1   
    60   26   60 1   
    61   27   39 1   
    62   27   61 1   
    63   27   62 1   
    64   27   63 1   
    65   29   38 1   
    66   31   65 1   
    67   32   64 1   
    68   33   34 1   
    69   33   37 1   
    70   35   65 2   
@<TRIPOS>SUBSTRUCTURE
     1 0MR         1 TEMP              0 ****  ****    0 ROOT
