@<TRIPOS>MOLECULE
0MS
   49    48     1     0     0
SMALL
bcc


@<TRIPOS>ATOM
      1 C1          1.6540   -1.8780    0.8950 ca        1 0MS     -0.130000
      2 C2          2.9960   -2.0280    1.2460 ca        1 0MS     -0.107000
      3 C3          0.7580   -1.2990    1.7920 ca        1 0MS     -0.090000
      4 C4          3.4470   -1.6010    2.4930 ca        1 0MS     -0.130000
      5 C5          0.3260    6.0110    1.4960 c2        1 0MS     -0.065200
      6 C6          1.0580    7.5120   -0.2520 ce        1 0MS      0.531500
      7 C7          1.1990   -0.8590    3.0460 ca        1 0MS     -0.142500
      8 C8         -0.1370    1.1490    4.0700 cc        1 0MS     -0.386200
      9 C9         -1.0290    6.6280    1.4720 c3        1 0MS     -0.109800
     10 C10         2.5500   -1.0170    3.3960 ca        1 0MS      0.026400
     11 C11         1.3240    6.4220    0.6930 ce        1 0MS     -0.232900
     12 C12         0.2400   -0.2670    3.9730 cc        1 0MS      0.390800
     13 C13        -1.1000    1.1800    5.0720 cd        1 0MS      0.360000
     14 C14        -1.1700    7.8020    0.4930 cf        1 0MS      0.618300
     15 C16        -1.8470    6.7490    5.7930 c1        1 0MS     -0.169000
     16 C17        -5.5300    7.0060    1.8110 c1        1 0MS     -0.169000
     17 C18        -1.4780    5.9460    4.9880 c1        1 0MS     -0.169000
     18 C19        -6.4720    6.3350    2.1140 c1        1 0MS     -0.169000
     19 C21        -1.9110    2.2200    5.7000 c3        1 0MS     -0.162400
     20 N22        -0.0620    8.1390   -0.3580 nf        1 0MS     -0.709000
     21 N23        -0.4780   -0.9660    4.8770 nd        1 0MS     -0.331300
     22 N24        -2.2900    8.4490    0.4790 n2        1 0MS     -0.766100
     23 N25         1.5240    2.1980    2.6170 n         1 0MS     -0.656000
     24 O26        -0.2910    3.3840    3.2800 o         1 0MS     -0.668100
     25 O27        -1.2680   -0.1400    5.5370 os        1 0MS     -0.113100
     26 CL2         3.1200   -0.5080    4.9120 cl        1 0MS     -0.071400
     27 BR2         3.0280    5.6650    0.7130 br        1 0MS     -0.068700
     28 H1         -0.3030   -1.1890    1.5200 ha        1 0MS      0.151000
     29 H2          3.7020   -2.4910    0.5400 ha        1 0MS      0.144000
     30 H3          1.2990   -2.2210   -0.0880 ha        1 0MS      0.145000
     31 H4          4.5040   -1.7280    2.7730 ha        1 0MS      0.154000
     32 H5         -1.2180    7.0300    2.5160 hc        1 0MS      0.103700
     33 H6          1.8780    7.8220   -0.9330 h4        1 0MS      0.039800
     34 H7         -2.1770    7.4640    6.5040 ha        1 0MS      0.169000
     35 H8          0.4370    5.1800    2.2200 ha        1 0MS      0.176000
     36 H9         -2.3620    9.2130   -0.1610 hn        1 0MS      0.405400
     37 H10        -4.6930    7.6050    1.5410 ha        1 0MS      0.169000
     38 H11         1.8620    2.9820    2.1140 hn        1 0MS      0.322000
     39 H12        -1.1490    5.2290    4.2710 ha        1 0MS      0.169000
     40 H13         2.0690    1.3740    2.6480 hn        1 0MS      0.322000
     41 H14        -7.3080    5.7410    2.3830 ha        1 0MS      0.169000
     42 H15        -1.9780    5.1940    0.1320 hc        1 0MS      0.054700
     43 H16        -1.9140    4.6910    1.8770 hc        1 0MS      0.054700
     44 H17        -3.0960    5.9640    1.3370 hc        1 0MS      0.054700
     45 H18        -1.6990    2.2660    6.7990 hc        1 0MS      0.084367
     46 H19        -1.6760    3.2130    5.2320 hc        1 0MS      0.084367
     47 H20        -2.9990    1.9970    5.5600 hc        1 0MS      0.084367
     48 C15         0.3480    2.3020    3.3080 c         1 0MS      0.721700
     49 C20        -2.0660    5.5560    1.1830 c3        1 0MS     -0.089100
@<TRIPOS>BOND
     1    1    2 ar  
     2    1    3 ar  
     3    1   30 1   
     4    2    4 ar  
     5    2   29 1   
     6    3    7 ar  
     7    3   28 1   
     8    4   10 ar  
     9    4   31 1   
    10    5    9 1   
    11    5   11 2   
    12    5   35 1   
    13    6   11 1   
    14    6   20 2   
    15    6   33 1   
    16    7   10 ar  
    17    7   12 1   
    18    8   12 1   
    19    8   13 2   
    20    8   48 1   
    21    9   14 1   
    22    9   32 1   
    23    9   49 1   
    24   10   26 1   
    25   11   27 1   
    26   12   21 2   
    27   13   19 1   
    28   13   25 1   
    29   14   20 1   
    30   14   22 2   
    31   15   17 3   
    32   15   34 1   
    33   16   18 3   
    34   16   37 1   
    35   17   39 1   
    36   18   41 1   
    37   19   45 1   
    38   19   46 1   
    39   19   47 1   
    40   21   25 1   
    41   22   36 1   
    42   23   38 1   
    43   23   40 1   
    44   23   48 1   
    45   24   48 2   
    46   42   49 1   
    47   43   49 1   
    48   44   49 1   
@<TRIPOS>SUBSTRUCTURE
     1 0MS         1 TEMP              0 ****  ****    0 ROOT
