@<TRIPOS>MOLECULE
0MS
   49    49     1     0     0
SMALL
bcc


@<TRIPOS>ATOM
      1 C1         -1.0960    2.5390    0.2130 c2        1 0MS     -0.085000
      2 C2          0.1170    3.3710    0.1120 c3        1 0MS     -0.212000
      3 C3         -1.2810    1.6930    1.2540 c2        1 0MS     -0.180000
      4 C4          1.0880    3.2490    1.1830 c1        1 0MS     -0.132000
      5 C5          2.1920    7.7520   -0.8620 c1        1 0MS     -0.156000
      6 C6          4.5520    7.8380   -0.3370 c2        1 0MS      0.122000
      7 C7         -0.2930    1.5750    2.2950 c2        1 0MS      0.134000
      8 C8         -1.7780    0.5340    4.1750 c2        1 0MS     -0.205000
      9 C9          2.0820    6.5250   -0.0560 c3        1 0MS     -0.124000
     10 C10         0.8510    2.3520    2.2450 c2        1 0MS     -0.148000
     11 C11         3.4220    8.3500   -1.0120 c2        1 0MS     -0.384000
     12 C12        -0.5570    0.6220    3.3660 c2        1 0MS     -0.082000
     13 C13        -1.5510   -0.5290    5.0340 c2        1 0MS      0.040000
     14 C14         3.4110    5.9830    0.4990 c2        1 0MS      0.170000
     15 C16        -1.2530    2.7510    6.1690 c2        1 0MS     -0.269000
     16 C17        -6.2980    3.1010    3.5590 c1        1 0MS     -0.229500
     17 C18        -2.5850    2.7740    6.0250 c2        1 0MS     -0.039000
     18 C19        -6.9220    3.9470    4.1300 c1        1 0MS     -0.229500
     19 C21        -2.2970   -1.2080    6.0910 c3        1 0MS     -0.177000
     20 N22         4.5760    6.7090    0.3830 n2        1 0MS     -0.322000
     21 N23         0.2970   -0.3450    3.7740 n2        1 0MS      0.032000
     22 N24         3.4170    4.7780    1.0850 n3        1 0MS     -0.319000
     23 N25        -3.3550    2.2730    4.9750 n         1 0MS     -0.322000
     24 O26        -3.7680    1.1630    3.0500 o         1 0MS     -0.366000
     25 O27        -0.2610   -1.0340    4.7410 os        1 0MS     -0.043000
     26 CL2         2.0330    2.2750    3.4610 cl        1 0MS      0.021000
     27 BR2         3.6040    9.8770   -2.0710 br        1 0MS      0.035000
     28 H1         -2.1950    1.0770    1.3450 ha        1 0MS      0.182000
     29 H2         -0.1700    4.4700    0.0410 hc        1 0MS      0.190000
     30 H3         -1.8460    2.6320   -0.5880 ha        1 0MS      0.153000
     31 H4          0.6580    3.1510   -0.8620 hc        1 0MS      0.190000
     32 H5          1.6630    5.7360   -0.7510 hc        1 0MS      0.131000
     33 H6          5.5280    8.3670   -0.3640 h4        1 0MS      0.158000
     34 H7          2.5360    4.2250    1.1670 hn        1 0MS      0.270500
     35 H8         -0.7870    3.1880    7.0620 ha        1 0MS      0.131500
     36 H9          4.2590    4.3910    1.4450 hn        1 0MS      0.270500
     37 H10        -5.7490    2.3470    3.0420 ha        1 0MS      0.230000
     38 H11        -0.5560    2.3130    5.4440 ha        1 0MS      0.131500
     39 H12        -3.2220    3.2600    6.7960 h4        1 0MS      0.142000
     40 H13        -4.2360    2.7270    4.8230 hn        1 0MS      0.253000
     41 H14        -7.4790    4.6980    4.6310 ha        1 0MS      0.230000
     42 H15         1.5240    7.4810    1.8210 hc        1 0MS      0.085000
     43 H16         0.8670    5.8020    1.6050 hc        1 0MS      0.085000
     44 H17         0.1580    7.1940    0.6670 hc        1 0MS      0.085000
     45 H18        -3.2210   -1.6760    5.6630 hc        1 0MS      0.119000
     46 H19        -2.6010   -0.4700    6.8770 hc        1 0MS      0.119000
     47 H20        -1.6740   -2.0080    6.5650 hc        1 0MS      0.119000
     48 C15        -2.9980    1.3380    4.0200 c2        1 0MS      0.380000
     49 C20         1.1010    6.7610    1.0810 c3        1 0MS     -0.184000
@<TRIPOS>BOND
     1    1    2 1   
     2    1    3 1   
     3    1   30 1   
     4    2    4 1   
     5    2   29 1   
     6    2   31 1   
     7    3    7 1   
     8    3   28 1   
     9    4   10 1   
    10    5    9 1   
    11    5   11 1   
    12    6   11 1   
    13    6   20 1   
    14    6   33 1   
    15    7   10 1   
    16    7   12 1   
    17    8   12 1   
    18    8   13 1   
    19    8   48 1   
    20    9   14 1   
    21    9   32 1   
    22    9   49 1   
    23   10   26 1   
    24   11   27 1   
    25   12   21 1   
    26   13   19 1   
    27   13   25 1   
    28   14   20 1   
    29   14   22 1   
    30   15   17 1   
    31   15   35 1   
    32   15   38 1   
    33   16   18 1   
    34   16   37 1   
    35   17   23 1   
    36   17   39 1   
    37   18   41 1   
    38   19   45 1   
    39   19   46 1   
    40   19   47 1   
    41   21   25 1   
    42   22   34 1   
    43   22   36 1   
    44   23   40 1   
    45   23   48 1   
    46   24   48 1   
    47   42   49 1   
    48   43   49 1   
    49   44   49 1   
@<TRIPOS>SUBSTRUCTURE
     1 0MS         1 TEMP              0 ****  ****    0 ROOT
