@<TRIPOS>MOLECULE
0MS
   49    52     1     0     0
SMALL
bcc


@<TRIPOS>ATOM
      1 C1         -2.8150    2.7920    2.5020 ca        1 0MS     -0.133000
      2 C2         -2.2520    3.8240    1.7510 ca        1 0MS     -0.105000
      3 C3         -3.4110    1.7080    1.8630 ca        1 0MS     -0.090000
      4 C4         -2.2790    3.7720    0.3590 ca        1 0MS     -0.135000
      5 C5          4.5820   -1.2180   -0.8810 ca        1 0MS     -0.070000
      6 C6          3.9190    0.4290    0.7390 ca        1 0MS      0.434200
      7 C7         -3.4540    1.6460    0.4620 ca        1 0MS     -0.143500
      8 C8         -3.8410   -0.9090    0.1100 cc        1 0MS     -0.370200
      9 C9          3.3070   -1.7870   -0.7820 ca        1 0MS     -0.165600
     10 C10        -2.8790    2.6860   -0.2870 ca        1 0MS      0.045400
     11 C11         4.9080   -0.0960   -0.1190 ca        1 0MS     -0.157200
     12 C12        -4.1040    0.5080   -0.1740 cc        1 0MS      0.404800
     13 C13        -4.7080   -1.5990   -0.7210 cd        1 0MS      0.310000
     14 C14         2.3670   -1.1860    0.1110 ca        1 0MS      0.592200
     15 C16         0.1010   -1.2280   -0.7080 c3        1 0MS      0.145800
     16 C17         0.5400   -1.8390    1.5930 c3        1 0MS      0.145800
     17 C18        -1.2570   -1.9660   -0.6500 c3        1 0MS      0.080500
     18 C19        -0.8080   -2.5930    1.6540 c3        1 0MS      0.080500
     19 C21        -5.0200   -3.0040   -0.9740 c3        1 0MS     -0.148400
     20 N22         2.6900   -0.0850    0.8540 nb        1 0MS     -0.691000
     21 N23        -5.0680    0.5800   -1.1180 nd        1 0MS     -0.332300
     22 N24         1.0660   -1.7950    0.2310 nh        1 0MS     -0.720300
     23 N25        -1.7800   -2.1260    0.6860 n         1 0MS     -0.452800
     24 O26        -3.1920   -1.3830    2.3380 o         1 0MS     -0.591100
     25 O27        -5.4390   -0.6380   -1.4550 os        1 0MS     -0.113100
     26 CL2        -2.8780    2.6520   -1.9860 cl        1 0MS     -0.079400
     27 BR2         6.5930    0.6900   -0.2190 br        1 0MS     -0.065100
     28 H1         -2.7890    2.8300    3.6010 ha        1 0MS      0.143000
     29 H2         -1.7820    4.6820    2.2560 ha        1 0MS      0.139000
     30 H3         -3.8450    0.8820    2.4540 ha        1 0MS      0.170000
     31 H4         -1.8310    4.5850   -0.2330 ha        1 0MS      0.150000
     32 H5          5.3230   -1.6680   -1.5630 ha        1 0MS      0.153000
     33 H6          4.1200    1.3170    1.3680 h4        1 0MS      0.037100
     34 H7          0.5130   -1.3440   -1.7480 h1        1 0MS      0.056700
     35 H8         -0.0710   -0.1290   -0.5180 h1        1 0MS      0.056700
     36 H9          0.3950   -0.8110    2.0340 h1        1 0MS      0.056700
     37 H10         1.2800   -2.3940    2.2310 h1        1 0MS      0.056700
     38 H11        -1.9810   -1.3980   -1.2980 h1        1 0MS      0.067700
     39 H12        -1.1270   -3.0000   -1.0850 h1        1 0MS      0.067700
     40 H13        -0.6310   -3.6870    1.4480 h1        1 0MS      0.067700
     41 H14        -1.2200   -2.4840    2.6970 h1        1 0MS      0.067700
     42 H15         2.6280   -3.8160   -0.9120 hc        1 0MS      0.051033
     43 H16         2.1410   -2.7560   -2.2970 hc        1 0MS      0.051033
     44 H17         3.8520   -3.3420   -2.1660 hc        1 0MS      0.051033
     45 H18        -5.6290   -3.4140   -0.1280 hc        1 0MS      0.073700
     46 H19        -5.6040   -3.1160   -1.9220 hc        1 0MS      0.073700
     47 H20        -4.0730   -3.5950   -1.0520 hc        1 0MS      0.073700
     48 C15        -2.9190   -1.4520    1.1230 c         1 0MS      0.704700
     49 C20         2.9690   -2.9850   -1.5800 c3        1 0MS     -0.042800
@<TRIPOS>BOND
     1    1    2 ar  
     2    1    3 ar  
     3    1   28 1   
     4    2    4 ar  
     5    2   29 1   
     6    3    7 ar  
     7    3   30 1   
     8    4   10 ar  
     9    4   31 1   
    10    5    9 ar  
    11    5   11 ar  
    12    5   32 1   
    13    6   11 ar  
    14    6   20 ar  
    15    6   33 1   
    16    7   10 ar  
    17    7   12 1   
    18    8   12 1   
    19    8   13 2   
    20    8   48 1   
    21    9   14 ar  
    22    9   49 1   
    23   10   26 1   
    24   11   27 1   
    25   12   21 2   
    26   13   19 1   
    27   13   25 1   
    28   14   20 ar  
    29   14   22 1   
    30   15   17 1   
    31   15   22 1   
    32   15   34 1   
    33   15   35 1   
    34   16   18 1   
    35   16   22 1   
    36   16   36 1   
    37   16   37 1   
    38   17   23 1   
    39   17   38 1   
    40   17   39 1   
    41   18   23 1   
    42   18   40 1   
    43   18   41 1   
    44   19   45 1   
    45   19   46 1   
    46   19   47 1   
    47   21   25 1   
    48   23   48 1   
    49   24   48 2   
    50   42   49 1   
    51   43   49 1   
    52   44   49 1   
@<TRIPOS>SUBSTRUCTURE
     1 0MS         1 TEMP              0 ****  ****    0 ROOT
