@<TRIPOS>MOLECULE
0MS
   49    49     1     0     0
SMALL
bcc


@<TRIPOS>ATOM
      1 C1         -0.6020    0.3160    0.0840 ca        1 0MS     -0.126000
      2 C2          0.7880    0.2020    0.0410 ca        1 0MS     -0.099000
      3 C3         -1.2710    0.2330    1.3030 ca        1 0MS     -0.096000
      4 C4          1.5120    0.0070    1.2150 ca        1 0MS     -0.128000
      5 C5         -0.0970    7.0900    0.6820 c1        1 0MS     -0.171000
      6 C6          2.2860    7.3550    0.3790 c2        1 0MS      0.124000
      7 C7         -0.5550    0.0410    2.4930 ca        1 0MS     -0.049000
      8 C8         -2.1870    0.9430    4.3230 c2        1 0MS     -0.266000
      9 C9          0.1730    6.1090    1.7450 c3        1 0MS     -0.131000
     10 C10         0.8440   -0.0740    2.4420 ca        1 0MS     -0.036000
     11 C11         0.9570    7.6630    0.0100 c2        1 0MS     -0.378000
     12 C12        -1.2850   -0.0650    3.7500 c2        1 0MS     -0.029000
     13 C13        -2.6880    0.3460    5.4750 c2        1 0MS      0.071000
     14 C14         1.6510    5.7330    1.9260 c2        1 0MS      0.170000
     15 C16         3.2680    4.2250    2.9870 c3        1 0MS     -0.091000
     16 C17        -2.9610    5.8090    1.0850 c1        1 0MS     -0.251000
     17 C18        -0.2400    3.0710    3.6820 c1        1 0MS     -0.174000
     18 C19        -3.6790    4.9960    1.5930 c1        1 0MS     -0.251000
     19 C21        -3.6300    0.7430    6.5190 c3        1 0MS     -0.186000
     20 N22         2.6440    6.4300    1.2790 n2        1 0MS     -0.311000
     21 N23        -1.2850   -1.1440    4.5600 n2        1 0MS      0.015000
     22 N24         1.9380    4.6940    2.7360 n7        1 0MS     -0.265000
     23 N25        -1.5100    3.1640    3.4110 ns        1 0MS     -0.196000
     24 O26        -3.7320    2.6300    3.6910 o         1 0MS     -0.277000
     25 O27        -2.0920   -0.9230    5.5810 os        1 0MS     -0.046000
     26 Cl2         1.7520   -0.3010    3.8590 cl        1 0MS      0.006000
     27 Br2         0.6470    8.8840   -1.3670 br        1 0MS      0.042000
     28 H1         -2.3700    0.3090    1.3350 ha        1 0MS      0.149000
     29 H2          1.3170    0.2650   -0.9220 ha        1 0MS      0.148000
     30 H3         -1.1730    0.4670   -0.8450 ha        1 0MS      0.150000
     31 H4          2.6090   -0.0860    1.1790 ha        1 0MS      0.155000
     32 H5         -0.3860    5.1700    1.4430 hc        1 0MS      0.141000
     33 H6          3.1480    7.8820   -0.0820 h4        1 0MS      0.161000
     34 H7          3.2170    3.3680    3.7090 h1        1 0MS      0.093333
     35 H8          3.9000    5.0430    3.4260 h1        1 0MS      0.093333
     36 H9         -2.2910    6.5320    0.6510 ha        1 0MS      0.248500
     37 H10         1.1470    4.1830    3.1580 hn        1 0MS      0.305000
     38 H11         3.7550    3.8790    2.0360 h1        1 0MS      0.093333
     39 H12         0.1130    2.1840    4.2470 ha        1 0MS      0.087000
     40 H13        -1.8490    3.9760    2.9090 hn        1 0MS      0.273000
     41 H14        -4.3330    4.2880    2.0400 ha        1 0MS      0.248500
     42 H15        -0.3660    5.8210    3.8380 hc        1 0MS      0.089333
     43 H16        -1.4570    6.9360    2.8990 hc        1 0MS      0.089333
     44 H17         0.1850    7.5020    3.4230 hc        1 0MS      0.089333
     45 H18        -4.2610   -0.1280    6.8290 hc        1 0MS      0.123667
     46 H19        -4.2910    1.5620    6.1360 hc        1 0MS      0.123667
     47 H20        -3.0720    1.1110    7.4190 hc        1 0MS      0.123667
     48 C15        -2.5570    2.2540    3.7980 c2        1 0MS      0.333000
     49 C20        -0.3950    6.6210    3.0600 c3        1 0MS     -0.187000
@<TRIPOS>BOND
     1    1    2 1   
     2    1    3 1   
     3    1   30 1   
     4    2    4 1   
     5    2   29 1   
     6    3    7 1   
     7    3   28 1   
     8    4   10 1   
     9    4   31 1   
    10    5    9 1   
    11    5   11 1   
    12    6   11 1   
    13    6   20 1   
    14    6   33 1   
    15    7   10 1   
    16    7   12 1   
    17    8   12 1   
    18    8   13 1   
    19    8   48 1   
    20    9   14 1   
    21    9   32 1   
    22    9   49 1   
    23   10   26 1   
    24   11   27 1   
    25   12   21 1   
    26   13   19 1   
    27   13   25 1   
    28   14   20 1   
    29   14   22 1   
    30   15   22 1   
    31   15   34 1   
    32   15   35 1   
    33   15   38 1   
    34   16   18 1   
    35   16   36 1   
    36   17   23 1   
    37   17   39 1   
    38   18   41 1   
    39   19   45 1   
    40   19   46 1   
    41   19   47 1   
    42   21   25 1   
    43   22   37 1   
    44   23   40 1   
    45   23   48 1   
    46   24   48 1   
    47   42   49 1   
    48   43   49 1   
    49   44   49 1   
@<TRIPOS>SUBSTRUCTURE
     1 0MS         1 TEMP              0 ****  ****    0 ROOT
