@<TRIPOS>MOLECULE
0MS
   49    42     1     0     0
SMALL
bcc


@<TRIPOS>ATOM
      1 C1         -3.0300    5.0560    0.0380 c1        1 0MS     -0.117250
      2 C2         -3.7850    5.3790   -1.0850 c1        1 0MS     -0.117250
      3 C3         -2.3510    3.8430    0.0940 c1        1 0MS     -0.117250
      4 C4         -3.8620    4.4890   -2.1510 c1        1 0MS     -0.117250
      5 C5          5.1610   -3.1020   -1.3890 c1        1 0MS     -0.070000
      6 C6          3.3530   -4.4220   -0.5560 c1        1 0MS     -0.031000
      7 C7         -2.4280    2.9520   -0.9730 c1        1 0MS     -0.024000
      8 C8         -2.3370    0.7930    0.4640 c1        1 0MS     -0.216000
      9 C9          4.4850   -1.9640   -1.0270 c1        1 0MS     -0.092000
     10 C10        -3.1840    3.2750   -2.0950 c1        1 0MS     -0.032000
     11 C11         4.6050   -4.3280   -1.1580 c1        1 0MS     -0.232000
     12 C12        -3.0300    1.8520   -0.1050 c2        1 0MS     -0.037000
     13 C13        -3.2210    0.0730    1.2340 c1        1 0MS      0.039000
     14 C14         3.2340   -2.0600   -0.4250 c2        1 0MS      0.072000
     15 C15        -1.7090   -0.4470    1.1240 c1        1 0MS      0.376000
     16 C16         1.4320   -2.3010    1.0700 c3        1 0MS     -0.092000
     17 C17         1.6810   -0.3020   -0.2150 c3        1 0MS     -0.092000
     18 C18         0.3740   -1.6140    1.9230 c3        1 0MS     -0.037000
     19 C19         0.6220    0.3750    0.6450 c3        1 0MS     -0.037000
     20 C20         5.2140   -0.7920   -1.6960 c2        1 0MS     -0.173500
     21 C21        -4.0440   -0.4300    2.4280 c2        1 0MS     -0.173500
     22 N22         2.6790   -3.2870   -0.1950 n1        1 0MS     -0.169000
     23 N23        -4.3140    1.7800    0.3100 n2        1 0MS     -0.007000
     24 N24         2.3520   -1.3650    0.4840 n3        1 0MS     -0.212000
     25 N25        -0.2710   -0.5590    1.2280 n2        1 0MS     -0.302000
     26 O26        -2.4220   -1.2830    1.6480 o         1 0MS     -0.355000
     27 O27        -4.4370    0.6700    1.1460 os        1 0MS     -0.056000
     28 CL2        -3.3820    2.6480   -3.7120 cl        1 0MS      0.012000
     29 BR2         5.4190   -5.9180   -1.8450 br        1 0MS      0.075000
     30 H1         -2.9750    5.6850    0.7900 ha        1 0MS      0.143750
     31 H2         -4.2630    6.2340   -1.1240 ha        1 0MS      0.143750
     32 H3         -1.8190    3.6150    0.8850 ha        1 0MS      0.143750
     33 H4         -4.3940    4.7160   -2.9420 ha        1 0MS      0.143750
     34 H5          6.0430   -3.0350   -1.8130 ha        1 0MS      0.154000
     35 H6          2.9530   -5.3030   -0.3900 ha        1 0MS      0.173000
     36 H7          0.9840   -2.8030    0.3490 h1        1 0MS      0.092750
     37 H8          1.9360   -2.9330    1.6340 h1        1 0MS      0.092750
     38 H9          1.2530   -0.6700   -1.0160 h1        1 0MS      0.092750
     39 H10         2.3470    0.3690   -0.4880 h1        1 0MS      0.092750
     40 H11        -0.3020   -2.2790    2.1930 h1        1 0MS      0.109500
     41 H12         0.8020   -1.2490    2.7290 h1        1 0MS      0.109500
     42 H13         1.0690    0.8810    1.3630 h1        1 0MS      0.109500
     43 H14         0.1110    0.9990    0.0870 h1        1 0MS      0.109500
     44 H15         5.1440   -0.8770   -2.6750 ha        1 0MS      0.104167
     45 H16         6.1640   -0.8020   -1.4320 ha        1 0MS      0.104167
     46 H17         4.8040    0.0530   -1.4110 ha        1 0MS      0.104167
     47 H18        -4.6810    0.2660    2.7030 ha        1 0MS      0.104167
     48 H19        -4.5370   -1.2410    2.1670 ha        1 0MS      0.104167
     49 H20        -3.4430   -0.6390    3.1760 ha        1 0MS      0.104167
@<TRIPOS>BOND
     1    1    3 1   
     2    1   30 1   
     3    2    4 1   
     4    2   31 1   
     5    3   32 1   
     6    4   33 1   
     7    5    9 1   
     8    5   34 1   
     9    6   11 1   
    10    6   35 1   
    11    7   10 1   
    12    7   12 1   
    13    8   12 1   
    14    8   13 1   
    15    9   14 1   
    16   10   28 1   
    17   12   23 1   
    18   13   27 1   
    19   14   22 1   
    20   14   24 1   
    21   15   26 1   
    22   16   18 1   
    23   16   24 1   
    24   16   36 1   
    25   16   37 1   
    26   17   19 1   
    27   17   24 1   
    28   17   38 1   
    29   17   39 1   
    30   18   25 1   
    31   18   40 1   
    32   18   41 1   
    33   19   25 1   
    34   19   42 1   
    35   19   43 1   
    36   20   44 1   
    37   20   45 1   
    38   20   46 1   
    39   21   47 1   
    40   21   48 1   
    41   21   49 1   
    42   23   27 1   
@<TRIPOS>SUBSTRUCTURE
     1 0MS         1 TEMP              0 ****  ****    0 ROOT
