@<TRIPOS>MOLECULE
0MT
   48    52     1     0     0
SMALL
bcc


@<TRIPOS>ATOM
      1 CAO         0.0030   -0.5190    0.0800 ca        1 0MT     -0.170000
      2 CAI         1.3910   -0.6040    0.0540 ca        1 0MT     -0.093500
      3 CAW         2.1600   -0.1880    1.1440 ca        1 0MT     -0.123600
      4 CAU         3.6790   -0.2910    1.0970 c         1 0MT      0.909200
      5 OAD         4.3270    0.1020    2.1070 o         1 0MT     -0.825300
      6 OAA         4.2020   -0.7640    0.0490 o         1 0MT     -0.825300
      7 CAJ         1.5110    0.3190    2.2720 ca        1 0MT     -0.093500
      8 CAP         0.1230    0.4200    2.3190 ca        1 0MT     -0.170000
      9 CAZ        -0.6520    0.0020    1.2160 ca        1 0MT      0.008600
     10 NBF        -2.0640    0.1250    1.2580 n         1 0MT     -0.365000
     11 CAV        -2.8500   -0.1400    2.3960 c         1 0MT      0.748100
     12 OAB        -2.4850   -0.2520    3.5720 o         1 0MT     -0.596500
     13 CBC        -4.2480   -0.2140    1.8960 cc        1 0MT     -0.196900
     14 NAT        -5.5380   -0.4250    2.3170 na        1 0MT      0.065400
     15 NAS        -6.3860   -0.3960    1.2910 nc        1 0MT     -0.523800
     16 CBB        -5.6650   -0.1550    0.1300 cd        1 0MT      0.404800
     17 CAX        -6.2650   -0.0720   -1.1900 ca        1 0MT     -0.113500
     18 CAK        -5.4430   -0.0850   -2.3280 ca        1 0MT     -0.107500
     19 CAG        -6.0020   -0.0150   -3.6020 ca        1 0MT     -0.135500
     20 CAF        -7.3860    0.0700   -3.7560 ca        1 0MT     -0.125000
     21 CAH        -8.2080    0.0860   -2.6310 ca        1 0MT     -0.135500
     22 CAL        -7.6560    0.0150   -1.3530 ca        1 0MT     -0.107500
     23 CBD        -4.2820   -0.0290    0.4810 cd        1 0MT     -0.261600
     24 CBE        -2.8690    0.1770    0.0090 c3        1 0MT      0.233300
     25 CAY        -2.7020    1.4720   -0.7450 ca        1 0MT     -0.032300
     26 CAM        -3.0490    2.6940   -0.1600 ca        1 0MT     -0.115000
     27 CAQ        -2.9260    3.8820   -0.8760 ca        1 0MT     -0.068500
     28 CBA        -2.4500    3.8380   -2.1960 ca        1 0MT     -0.172200
     29 NBG        -2.3440    5.0960   -2.9790 no        1 0MT      0.314200
     30 OAE        -2.6490    6.1370   -2.4590 o         1 0MT     -0.217500
     31 OAC        -1.9690    5.0450   -4.1210 o         1 0MT     -0.217500
     32 CAR        -2.0710    2.6210   -2.7850 ca        1 0MT     -0.068500
     33 CAN        -2.2010    1.4440   -2.0520 ca        1 0MT     -0.115000
     34 H1         -0.5630   -0.8570   -0.7990 ha        1 0MT      0.118500
     35 H2          1.9150   -1.0060   -0.8290 ha        1 0MT      0.158500
     36 H4          2.1270    0.6390    3.1290 ha        1 0MT      0.158500
     37 H5         -0.3660    0.8070    3.2260 ha        1 0MT      0.118500
     38 H6         -5.8580   -0.6030    3.2420 hn        1 0MT      0.337700
     39 H7         -4.3490   -0.1420   -2.2090 ha        1 0MT      0.141500
     40 H8         -5.3490   -0.0250   -4.4860 ha        1 0MT      0.131000
     41 H9         -7.8250    0.1260   -4.7630 ha        1 0MT      0.129000
     42 H10        -9.3000    0.1550   -2.7490 ha        1 0MT      0.131000
     43 H11        -8.3190    0.0290   -0.4750 ha        1 0MT      0.141500
     44 H12        -2.5700   -0.6870   -0.6590 h1        1 0MT      0.083700
     45 H13        -3.4170    2.7190    0.8780 ha        1 0MT      0.153500
     46 H14        -3.1990    4.8450   -0.4120 ha        1 0MT      0.168000
     47 H15        -1.6720    2.5980   -3.8130 ha        1 0MT      0.168000
     48 H16        -1.8870    0.4900   -2.5040 ha        1 0MT      0.153500
@<TRIPOS>BOND
     1    1    2 ar  
     2    1    9 ar  
     3    1   34 1   
     4    2    3 ar  
     5    2   35 1   
     6    3    4 1   
     7    3    7 ar  
     8    4    5 1   
     9    4    6 1   
    10    7    8 ar  
    11    7   36 1   
    12    8    9 ar  
    13    8   37 1   
    14    9   10 1   
    15   10   11 1   
    16   10   24 1   
    17   11   12 2   
    18   11   13 1   
    19   13   14 1   
    20   13   23 2   
    21   14   15 1   
    22   14   38 1   
    23   15   16 2   
    24   16   17 1   
    25   16   23 1   
    26   17   18 ar  
    27   17   22 ar  
    28   18   19 ar  
    29   18   39 1   
    30   19   20 ar  
    31   19   40 1   
    32   20   21 ar  
    33   20   41 1   
    34   21   22 ar  
    35   21   42 1   
    36   22   43 1   
    37   23   24 1   
    38   24   25 1   
    39   24   44 1   
    40   25   26 ar  
    41   25   33 ar  
    42   26   27 ar  
    43   26   45 1   
    44   27   28 ar  
    45   27   46 1   
    46   28   29 1   
    47   28   32 ar  
    48   29   30 1   
    49   29   31 1   
    50   32   33 ar  
    51   32   47 1   
    52   33   48 1   
@<TRIPOS>SUBSTRUCTURE
     1 0MT         1 TEMP              0 ****  ****    0 ROOT
