@<TRIPOS>MOLECULE
0MT
   48    52     1     0     0
SMALL
bcc


@<TRIPOS>ATOM
      1 CAO         0.0010   -0.5290    0.0660 ca        1 0MT     -0.170000
      2 CAI         1.3890   -0.6180    0.0350 ca        1 0MT     -0.093500
      3 CAW         2.1630   -0.2050    1.1220 ca        1 0MT     -0.123600
      4 CAU         3.6820   -0.3110    1.0700 c         1 0MT      0.909200
      5 OAD         4.3340    0.0800    2.0770 o         1 0MT     -0.825300
      6 OAA         4.1990   -0.7850    0.0190 o         1 0MT     -0.825300
      7 CAJ         1.5190    0.3030    2.2530 ca        1 0MT     -0.093500
      8 CAP         0.1320    0.4070    2.3060 ca        1 0MT     -0.170000
      9 CAZ        -0.6490   -0.0070    1.2060 ca        1 0MT      0.008600
     10 NBF        -2.0600    0.1190    1.2530 n         1 0MT     -0.365000
     11 CAV        -2.8420   -0.1480    2.3930 c         1 0MT      0.748100
     12 OAB        -2.4730   -0.2640    3.5670 o         1 0MT     -0.596500
     13 CBC        -4.2420   -0.2160    1.8980 cc        1 0MT     -0.196900
     14 NAT        -5.5320   -0.4260    2.3220 na        1 0MT      0.065400
     15 NAS        -6.3830   -0.3910    1.3000 nc        1 0MT     -0.523800
     16 CBB        -5.6650   -0.1470    0.1370 cd        1 0MT      0.404800
     17 CAX        -6.2700   -0.0580   -1.1810 ca        1 0MT     -0.113500
     18 CAK        -5.4520   -0.0670   -2.3210 ca        1 0MT     -0.107500
     19 CAG        -6.0160    0.0090   -3.5930 ca        1 0MT     -0.135500
     20 CAF        -7.4000    0.0960   -3.7420 ca        1 0MT     -0.125000
     21 CAH        -8.2180    0.1070   -2.6140 ca        1 0MT     -0.135500
     22 CAL        -7.6610    0.0310   -1.3380 ca        1 0MT     -0.107500
     23 CBD        -4.2800   -0.0260    0.4840 cd        1 0MT     -0.261600
     24 CBE        -2.8690    0.1780    0.0070 c3        1 0MT      0.233300
     25 CAY        -2.7010    1.4750   -0.7430 ca        1 0MT     -0.032300
     26 CAM        -3.0440    2.6960   -0.1520 ca        1 0MT     -0.114500
     27 CAQ        -2.9210    3.8860   -0.8650 ca        1 0MT     -0.068500
     28 CBA        -2.4470    3.8460   -2.1860 ca        1 0MT     -0.172200
     29 NBG        -2.3410    5.1060   -2.9650 no        1 0MT      0.314200
     30 OAE        -2.6430    6.1460   -2.4410 o         1 0MT     -0.217500
     31 OAC        -1.9690    5.0590   -4.1080 o         1 0MT     -0.217500
     32 CAR        -2.0730    2.6300   -2.7800 ca        1 0MT     -0.068500
     33 CAN        -2.2030    1.4510   -2.0510 ca        1 0MT     -0.114500
     34 H1         -0.5700   -0.8660   -0.8100 ha        1 0MT      0.118500
     35 H2          1.9090   -1.0200   -0.8510 ha        1 0MT      0.158500
     36 H4          2.1400    0.6210    3.1080 ha        1 0MT      0.158500
     37 H5         -0.3530    0.7950    3.2140 ha        1 0MT      0.118500
     38 H6         -5.8480   -0.6050    3.2480 hn        1 0MT      0.337700
     39 H7         -4.3580   -0.1250   -2.2070 ha        1 0MT      0.141500
     40 H8         -5.3650    0.0020   -4.4790 ha        1 0MT      0.131000
     41 H9         -7.8430    0.1570   -4.7470 ha        1 0MT      0.129000
     42 H10        -9.3100    0.1780   -2.7270 ha        1 0MT      0.131000
     43 H11        -8.3210    0.0420   -0.4580 ha        1 0MT      0.141500
     44 H12        -2.5750   -0.6850   -0.6650 h1        1 0MT      0.083700
     45 H13        -3.4100    2.7180    0.8860 ha        1 0MT      0.153500
     46 H14        -3.1910    4.8480   -0.3970 ha        1 0MT      0.168000
     47 H15        -1.6760    2.6100   -3.8090 ha        1 0MT      0.168000
     48 H16        -1.8920    0.4980   -2.5070 ha        1 0MT      0.153500
@<TRIPOS>BOND
     1    1    2 ar  
     2    1    9 ar  
     3    1   34 1   
     4    2    3 ar  
     5    2   35 1   
     6    3    4 1   
     7    3    7 ar  
     8    4    5 1   
     9    4    6 1   
    10    7    8 ar  
    11    7   36 1   
    12    8    9 ar  
    13    8   37 1   
    14    9   10 1   
    15   10   11 1   
    16   10   24 1   
    17   11   12 2   
    18   11   13 1   
    19   13   14 1   
    20   13   23 2   
    21   14   15 1   
    22   14   38 1   
    23   15   16 2   
    24   16   17 1   
    25   16   23 1   
    26   17   18 ar  
    27   17   22 ar  
    28   18   19 ar  
    29   18   39 1   
    30   19   20 ar  
    31   19   40 1   
    32   20   21 ar  
    33   20   41 1   
    34   21   22 ar  
    35   21   42 1   
    36   22   43 1   
    37   23   24 1   
    38   24   25 1   
    39   24   44 1   
    40   25   26 ar  
    41   25   33 ar  
    42   26   27 ar  
    43   26   45 1   
    44   27   28 ar  
    45   27   46 1   
    46   28   29 1   
    47   28   32 ar  
    48   29   30 1   
    49   29   31 1   
    50   32   33 ar  
    51   32   47 1   
    52   33   48 1   
@<TRIPOS>SUBSTRUCTURE
     1 0MT         1 TEMP              0 ****  ****    0 ROOT
