@<TRIPOS>MOLECULE
0MT
   48    52     1     0     0
SMALL
bcc


@<TRIPOS>ATOM
      1 CAO         0.0010   -0.5220    0.0830 ca        1 0MT     -0.170000
      2 CAI         1.3890   -0.6070    0.0610 ca        1 0MT     -0.093500
      3 CAW         2.1560   -0.1940    1.1530 ca        1 0MT     -0.123600
      4 CAU         3.6750   -0.2960    1.1100 c         1 0MT      0.909200
      5 OAD         4.3200    0.0950    2.1230 o         1 0MT     -0.825300
      6 OAA         4.2000   -0.7660    0.0620 o         1 0MT     -0.825300
      7 CAJ         1.5040    0.3100    2.2810 ca        1 0MT     -0.093500
      8 CAP         0.1160    0.4110    2.3250 ca        1 0MT     -0.170000
      9 CAZ        -0.6570   -0.0040    1.2190 ca        1 0MT      0.008600
     10 NBF        -2.0690    0.1190    1.2580 n         1 0MT     -0.365000
     11 CAV        -2.8570   -0.1500    2.3930 c         1 0MT      0.748100
     12 OAB        -2.4960   -0.2660    3.5700 o         1 0MT     -0.596500
     13 CBC        -4.2540   -0.2220    1.8890 cc        1 0MT     -0.196900
     14 NAT        -5.5460   -0.4350    2.3050 na        1 0MT      0.065400
     15 NAS        -6.3900   -0.4030    1.2770 nc        1 0MT     -0.523800
     16 CBB        -5.6670   -0.1570    0.1190 cd        1 0MT      0.404800
     17 CAX        -6.2630   -0.0700   -1.2020 ca        1 0MT     -0.113500
     18 CAK        -5.4380   -0.0780   -2.3380 ca        1 0MT     -0.107500
     19 CAG        -5.9940   -0.0040   -3.6130 ca        1 0MT     -0.135500
     20 CAF        -7.3770    0.0810   -3.7710 ca        1 0MT     -0.125000
     21 CAH        -8.2020    0.0930   -2.6480 ca        1 0MT     -0.135500
     22 CAL        -7.6530    0.0180   -1.3690 ca        1 0MT     -0.107500
     23 CBD        -4.2840   -0.0330    0.4750 cd        1 0MT     -0.261600
     24 CBE        -2.8700    0.1750    0.0060 c3        1 0MT      0.233300
     25 CAY        -2.7010    1.4730   -0.7430 ca        1 0MT     -0.032300
     26 CAM        -3.0500    2.6930   -0.1540 ca        1 0MT     -0.114500
     27 CAQ        -2.9260    3.8830   -0.8650 ca        1 0MT     -0.068500
     28 CBA        -2.4450    3.8450   -2.1840 ca        1 0MT     -0.172200
     29 NBG        -2.3380    5.1040   -2.9620 no        1 0MT      0.314200
     30 OAE        -2.6440    6.1440   -2.4400 o         1 0MT     -0.217500
     31 OAC        -1.9590    5.0590   -4.1030 o         1 0MT     -0.217500
     32 CAR        -2.0650    2.6290   -2.7760 ca        1 0MT     -0.068500
     33 CAN        -2.1960    1.4500   -2.0480 ca        1 0MT     -0.114500
     34 H1         -0.5630   -0.8590   -0.7980 ha        1 0MT      0.118500
     35 H2          1.9160   -1.0070   -0.8220 ha        1 0MT      0.158500
     36 H4          2.1180    0.6290    3.1400 ha        1 0MT      0.158500
     37 H5         -0.3760    0.7960    3.2310 ha        1 0MT      0.118500
     38 H6         -5.8670   -0.6160    3.2290 hn        1 0MT      0.337700
     39 H7         -4.3440   -0.1360   -2.2160 ha        1 0MT      0.141500
     40 H8         -5.3380   -0.0110   -4.4960 ha        1 0MT      0.131000
     41 H9         -7.8140    0.1400   -4.7780 ha        1 0MT      0.129000
     42 H10        -9.2930    0.1620   -2.7680 ha        1 0MT      0.131000
     43 H11        -8.3190    0.0290   -0.4920 ha        1 0MT      0.141500
     44 H12        -2.5700   -0.6860   -0.6640 h1        1 0MT      0.083700
     45 H13        -3.4220    2.7140    0.8830 ha        1 0MT      0.153500
     46 H14        -3.2010    4.8440   -0.3990 ha        1 0MT      0.168000
     47 H15        -1.6620    2.6100   -3.8030 ha        1 0MT      0.168000
     48 H16        -1.8810    0.4970   -2.5020 ha        1 0MT      0.153500
@<TRIPOS>BOND
     1    1    2 ar  
     2    1    9 ar  
     3    1   34 1   
     4    2    3 ar  
     5    2   35 1   
     6    3    4 1   
     7    3    7 ar  
     8    4    5 1   
     9    4    6 1   
    10    7    8 ar  
    11    7   36 1   
    12    8    9 ar  
    13    8   37 1   
    14    9   10 1   
    15   10   11 1   
    16   10   24 1   
    17   11   12 2   
    18   11   13 1   
    19   13   14 1   
    20   13   23 2   
    21   14   15 1   
    22   14   38 1   
    23   15   16 2   
    24   16   17 1   
    25   16   23 1   
    26   17   18 ar  
    27   17   22 ar  
    28   18   19 ar  
    29   18   39 1   
    30   19   20 ar  
    31   19   40 1   
    32   20   21 ar  
    33   20   41 1   
    34   21   22 ar  
    35   21   42 1   
    36   22   43 1   
    37   23   24 1   
    38   24   25 1   
    39   24   44 1   
    40   25   26 ar  
    41   25   33 ar  
    42   26   27 ar  
    43   26   45 1   
    44   27   28 ar  
    45   27   46 1   
    46   28   29 1   
    47   28   32 ar  
    48   29   30 1   
    49   29   31 1   
    50   32   33 ar  
    51   32   47 1   
    52   33   48 1   
@<TRIPOS>SUBSTRUCTURE
     1 0MT         1 TEMP              0 ****  ****    0 ROOT
