@<TRIPOS>MOLECULE
0MT
   48    38     1     0     0
SMALL
bcc


@<TRIPOS>ATOM
      1 CAO         2.9010   -1.4710   -1.5890 c1        1 0MT     -0.170000
      2 CAI         4.2990   -1.4890   -1.6180 c1        1 0MT     -0.105000
      3 CAW         5.0170   -1.7200   -0.4420 c1        1 0MT     -0.086000
      4 CAU         6.5350   -1.7250   -0.4630 c1        1 0MT      0.356000
      5 OAD         7.1960   -0.6260   -0.1880 os        1 0MT     -0.464500
      6 OAA         7.1620   -2.8070   -0.6730 o         1 0MT     -0.555000
      7 CAJ         4.3360   -1.9320    0.7590 c1        1 0MT     -0.115375
      8 CAP         2.9380   -1.9130    0.7830 c1        1 0MT     -0.115375
      9 CAZ         2.2260   -1.6830   -0.3840 c1        1 0MT     -0.030000
     10 NBF         0.8030   -1.7410   -0.3690 n         1 0MT     -0.243000
     11 CAV         0.0200   -2.9120   -0.2100 c2        1 0MT      0.374000
     12 OAB         0.4670   -4.0960   -0.0420 o         1 0MT     -0.301000
     13 CBC        -1.4330   -2.5320   -0.4110 c2        1 0MT     -0.161000
     14 NAT        -2.7030   -2.9910   -0.3160 n2        1 0MT     -0.080000
     15 NAS        -3.5490   -1.9470   -0.5530 n2        1 0MT     -0.090000
     16 CBB        -2.8020   -0.8440   -0.7930 c1        1 0MT     -0.033000
     17 CAX        -3.3450    0.5660   -1.1270 c1        1 0MT     -0.006000
     18 CAK        -4.1580    1.2260   -0.2220 c1        1 0MT     -0.115375
     19 CAG        -4.6790    2.4690   -0.5350 c1        1 0MT     -0.115375
     20 CAF        -4.3870    3.0580   -1.7630 c1        1 0MT     -0.115375
     21 CAH        -3.5740    2.3990   -2.6700 c1        1 0MT     -0.115375
     22 CAL        -3.0520    1.1500   -2.3520 c1        1 0MT     -0.112000
     23 CBD        -1.4860   -1.2000   -0.7070 c1        1 0MT     -0.184000
     24 CBE        -0.0870   -0.6480   -0.6100 c2        1 0MT      0.116000
     25 CAY        -0.0060    0.3590    0.5480 c1        1 0MT     -0.015000
     26 CAM         0.3870    1.6510    0.3060 c1        1 0MT     -0.115375
     27 CAQ         0.4380    2.5710    1.3470 c1        1 0MT     -0.115375
     28 CBA         0.0950    2.1880    2.6150 c1        1 0MT     -0.130000
     29 NBG        -0.0090    3.1730    3.6530 n2        1 0MT      0.568000
     30 OAE         0.3840    4.3350    3.4480 o         1 0MT     -0.367000
     31 OAC        -0.5460    2.8410    4.8510 os        1 0MT     -0.464500
     32 CAR        -0.2990    0.8880    2.8570 c1        1 0MT     -0.073000
     33 CAN        -0.3480   -0.0270    1.8140 c1        1 0MT     -0.106000
     34 H1          2.3680   -1.3880   -2.4690 ha        1 0MT      0.109000
     35 H2          4.7710   -1.3010   -2.4510 ha        1 0MT      0.159000
     36 H4          4.8580   -2.1070    1.6180 ha        1 0MT      0.142750
     37 H5          2.4610   -2.1040    1.6160 ha        1 0MT      0.142750
     38 H6         -2.9460   -3.8310   -0.1310 DU        1 0MT      0.287000
     39 H7         -4.3960    0.7830    0.6670 ha        1 0MT      0.142750
     40 H8         -5.2620    2.9040    0.0730 ha        1 0MT      0.142750
     41 H9         -4.8000    3.9010   -2.0050 ha        1 0MT      0.142750
     42 H10        -3.2970    2.8550   -3.5140 ha        1 0MT      0.142750
     43 H11        -2.7430    0.8020   -3.2130 ha        1 0MT      0.138000
     44 H12         0.1570   -0.1970   -1.4650 h4        1 0MT      0.125000
     45 H13         0.6340    1.9160   -0.5750 ha        1 0MT      0.142750
     46 H14         0.6410    3.5160    1.1570 ha        1 0MT      0.142750
     47 H15        -0.5640    0.6150    3.7630 ha        1 0MT      0.166000
     48 H16        -0.6240   -0.9340    1.9810 ha        1 0MT      0.157000
@<TRIPOS>BOND
     1    1    9 1   
     2    1   34 1   
     3    2    3 1   
     4    2   35 1   
     5    3    4 1   
     6    4    6 1   
     7    7    8 1   
     8    7   36 1   
     9    8   37 1   
    10    9   10 1   
    11   10   11 1   
    12   10   24 1   
    13   11   12 1   
    14   11   13 1   
    15   13   14 1   
    16   13   23 1   
    17   14   15 1   
    18   15   16 1   
    19   16   23 1   
    20   17   22 1   
    21   18   19 1   
    22   18   39 1   
    23   19   40 1   
    24   20   21 1   
    25   20   41 1   
    26   21   42 1   
    27   22   43 1   
    28   24   25 1   
    29   24   44 1   
    30   25   33 1   
    31   26   27 1   
    32   26   45 1   
    33   27   46 1   
    34   28   29 1   
    35   28   32 1   
    36   29   30 1   
    37   32   47 1   
    38   33   48 1   
@<TRIPOS>SUBSTRUCTURE
     1 0MT         1 TEMP              0 ****  ****    0 ROOT
