@<TRIPOS>MOLECULE
0MT
   48    52     1     0     0
SMALL
bcc


@<TRIPOS>ATOM
      1 CAO         2.4950   -1.4820   -1.4080 ca        1 0MT     -0.143000
      2 CAI         3.7310   -1.1800   -1.9650 ca        1 0MT     -0.108000
      3 CAW         4.7250   -0.5510   -1.2070 ca        1 0MT     -0.106600
      4 CAU         6.0690   -0.2040   -1.8390 c         1 0MT      0.907200
      5 OAD         6.9380    0.3440   -1.1070 o         1 0MT     -0.822300
      6 OAA         6.2280   -0.4810   -3.0610 o         1 0MT     -0.822300
      7 CAJ         4.4650   -0.2420    0.1300 ca        1 0MT     -0.108000
      8 CAP         3.2310   -0.5320    0.7070 ca        1 0MT     -0.143000
      9 CAZ         2.2270   -1.1480   -0.0630 ca        1 0MT     -0.037400
     10 NBF         0.9490   -1.3960    0.5220 n         1 0MT     -0.340000
     11 CAV         0.6050   -2.6870    1.0070 c         1 0MT      0.737100
     12 OAB         1.3410   -3.5060    1.5630 o         1 0MT     -0.576500
     13 CBC        -0.8600   -2.8180    0.7910 cc        1 0MT     -0.205900
     14 NAT        -1.9130   -3.6780    0.9900 na        1 0MT      0.064400
     15 NAS        -3.0400   -3.1790    0.4880 nc        1 0MT     -0.522800
     16 CBB        -2.7630   -1.9380   -0.0680 cd        1 0MT      0.402800
     17 CAX        -3.7560   -1.1050   -0.7220 ca        1 0MT     -0.113500
     18 CAK        -3.3430   -0.0020   -1.4840 ca        1 0MT     -0.108000
     19 CAG        -4.2820    0.8030   -2.1260 ca        1 0MT     -0.135500
     20 CAF        -5.6430    0.5170   -2.0150 ca        1 0MT     -0.126000
     21 CAH        -6.0610   -0.5760   -1.2580 ca        1 0MT     -0.135500
     22 CAL        -5.1270   -1.3860   -0.6130 ca        1 0MT     -0.108000
     23 CBD        -1.3660   -1.6710    0.1080 cd        1 0MT     -0.256600
     24 CBE        -0.2210   -0.7300   -0.1330 c3        1 0MT      0.207300
     25 CAY        -0.4720    0.6430    0.4350 ca        1 0MT     -0.022300
     26 CAM        -0.8130    0.8120    1.7820 ca        1 0MT     -0.116000
     27 CAQ        -1.0690    2.0800    2.2940 ca        1 0MT     -0.071000
     28 CBA        -0.9790    3.1930    1.4410 ca        1 0MT     -0.175200
     29 NBG        -1.2730    4.5480    1.9720 no        1 0MT      0.313200
     30 OAE        -1.5560    4.6730    3.1350 o         1 0MT     -0.218500
     31 OAC        -1.2320    5.4920    1.2270 o         1 0MT     -0.218500
     32 CAR        -0.6140    3.0390    0.0940 ca        1 0MT     -0.071000
     33 CAN        -0.3620    1.7620   -0.3990 ca        1 0MT     -0.116000
     34 H1          1.7320   -1.9840   -2.0200 ha        1 0MT      0.117000
     35 H2          3.9580   -1.4280   -3.0160 ha        1 0MT      0.159500
     36 H4          5.2640    0.2410    0.7170 ha        1 0MT      0.159500
     37 H5          3.0480   -0.2830    1.7630 ha        1 0MT      0.117000
     38 H6         -1.8960   -4.5760    1.4180 hn        1 0MT      0.336700
     39 H7         -2.2690    0.2320   -1.5670 ha        1 0MT      0.141500
     40 H8         -3.9470    1.6650   -2.7200 ha        1 0MT      0.130500
     41 H9         -6.3820    1.1540   -2.5210 ha        1 0MT      0.128000
     42 H10        -7.1330   -0.8030   -1.1660 ha        1 0MT      0.130500
     43 H11        -5.4730   -2.2450   -0.0190 ha        1 0MT      0.141500
     44 H12        -0.0240   -0.6400   -1.2450 h1        1 0MT      0.085700
     45 H13        -0.8750   -0.0670    2.4430 ha        1 0MT      0.156000
     46 H14        -1.3390    2.2110    3.3550 ha        1 0MT      0.167000
     47 H15        -0.5220    3.9200   -0.5640 ha        1 0MT      0.167000
     48 H16        -0.0580    1.6400   -1.4510 ha        1 0MT      0.156000
@<TRIPOS>BOND
     1    1    2 ar  
     2    1    9 ar  
     3    1   34 1   
     4    2    3 ar  
     5    2   35 1   
     6    3    4 1   
     7    3    7 ar  
     8    4    5 1   
     9    4    6 1   
    10    7    8 ar  
    11    7   36 1   
    12    8    9 ar  
    13    8   37 1   
    14    9   10 1   
    15   10   11 1   
    16   10   24 1   
    17   11   12 2   
    18   11   13 1   
    19   13   14 1   
    20   13   23 2   
    21   14   15 1   
    22   14   38 1   
    23   15   16 2   
    24   16   17 1   
    25   16   23 1   
    26   17   18 ar  
    27   17   22 ar  
    28   18   19 ar  
    29   18   39 1   
    30   19   20 ar  
    31   19   40 1   
    32   20   21 ar  
    33   20   41 1   
    34   21   22 ar  
    35   21   42 1   
    36   22   43 1   
    37   23   24 1   
    38   24   25 1   
    39   24   44 1   
    40   25   26 ar  
    41   25   33 ar  
    42   26   27 ar  
    43   26   45 1   
    44   27   28 ar  
    45   27   46 1   
    46   28   29 1   
    47   28   32 ar  
    48   29   30 1   
    49   29   31 1   
    50   32   33 ar  
    51   32   47 1   
    52   33   48 1   
@<TRIPOS>SUBSTRUCTURE
     1 0MT         1 TEMP              0 ****  ****    0 ROOT
