@<TRIPOS>MOLECULE
0MV
   38    41     1     0     0
SMALL
bcc


@<TRIPOS>ATOM
      1 O           0.0990   -0.5140   -0.2220 o         1 0MV     -0.623500
      2 C           1.2990   -0.2200   -0.0750 c         1 0MV      0.684500
      3 NAM         1.8090   -0.1320    1.2110 ns        1 0MV     -0.466100
      4 CAS         3.1620   -0.0700    1.5710 ca        1 0MV      0.099600
      5 CAG         3.5840   -0.8210    2.7000 ca        1 0MV     -0.184000
      6 CAC         4.9030   -0.7810    3.1290 ca        1 0MV     -0.081000
      7 CAD         5.8420    0.0010    2.4550 ca        1 0MV     -0.159000
      8 CAH         5.4430    0.7550    1.3590 ca        1 0MV     -0.059000
      9 CAT         4.1140    0.7330    0.9060 ca        1 0MV     -0.165600
     10 CAP         3.8100    1.6440   -0.2290 c         1 0MV      0.712100
     11 OAA         4.4060    2.7360   -0.3480 o         1 0MV     -0.640500
     12 N           2.8730    1.3130   -1.1880 ns        1 0MV     -0.556900
     13 CA          2.1900    0.0610   -1.2980 c3        1 0MV      0.058700
     14 CB          3.0770   -1.1770   -1.5470 c3        1 0MV     -0.024200
     15 CG          3.5700   -1.2320   -2.9270 cc        1 0MV     -0.157400
     16 CD2         4.7560   -0.5920   -3.4580 ca        1 0MV     -0.085800
     17 CE3         5.7370    0.2460   -2.9230 ca        1 0MV     -0.083000
     18 CZ3         6.7670    0.6840   -3.7410 ca        1 0MV     -0.151000
     19 CH2         6.8400    0.3020   -5.0930 ca        1 0MV     -0.111000
     20 CZ2         5.8880   -0.5240   -5.6670 ca        1 0MV     -0.145000
     21 CE2         4.8390   -0.9760   -4.8500 ca        1 0MV     -0.048200
     22 NE1         3.7480   -1.8020   -5.1380 na        1 0MV     -0.189400
     23 CD1         2.9930   -1.9540   -3.9760 cd        1 0MV     -0.094100
     24 H1          1.1790   -0.3820    1.9480 hn        1 0MV      0.326500
     25 H2          2.8590   -1.4420    3.2490 ha        1 0MV      0.140000
     26 H3          5.2080   -1.3740    4.0050 ha        1 0MV      0.139000
     27 H4          6.8870    0.0290    2.7950 ha        1 0MV      0.143000
     28 H5          6.1650    1.4040    0.8340 ha        1 0MV      0.160000
     29 H6          2.7710    1.9480   -1.9500 hn        1 0MV      0.334500
     30 H7          1.4740    0.1490   -2.1750 h1        1 0MV      0.098700
     31 H8          3.9440   -1.1780   -0.8320 hc        1 0MV      0.064700
     32 H9          2.4540   -2.0880   -1.3330 hc        1 0MV      0.064700
     33 H10         5.6800    0.5590   -1.8690 ha        1 0MV      0.136000
     34 H11         7.5430    1.3470   -3.3320 ha        1 0MV      0.134000
     35 H12         7.6750    0.6730   -5.7070 ha        1 0MV      0.131000
     36 H13         5.9490   -0.8170   -6.7240 ha        1 0MV      0.132000
     37 H14         3.5620   -2.2210   -6.0080 hn        1 0MV      0.300700
     38 H15         2.0920   -2.5720   -3.9730 h4        1 0MV      0.168000
@<TRIPOS>BOND
     1    1    2 2   
     2    2    3 1   
     3    2   13 1   
     4    3    4 1   
     5    3   24 1   
     6    4    5 ar  
     7    4    9 ar  
     8    5    6 ar  
     9    5   25 1   
    10    6    7 ar  
    11    6   26 1   
    12    7    8 ar  
    13    7   27 1   
    14    8    9 ar  
    15    8   28 1   
    16    9   10 1   
    17   10   11 2   
    18   10   12 1   
    19   12   13 1   
    20   12   29 1   
    21   13   14 1   
    22   13   30 1   
    23   14   15 1   
    24   14   31 1   
    25   14   32 1   
    26   15   16 1   
    27   15   23 2   
    28   16   17 ar  
    29   16   21 ar  
    30   17   18 ar  
    31   17   33 1   
    32   18   19 ar  
    33   18   34 1   
    34   19   20 ar  
    35   19   35 1   
    36   20   21 ar  
    37   20   36 1   
    38   21   22 1   
    39   22   23 1   
    40   22   37 1   
    41   23   38 1   
@<TRIPOS>SUBSTRUCTURE
     1 0MV         1 TEMP              0 ****  ****    0 ROOT
