@<TRIPOS>MOLECULE
0MV
   38    41     1     0     0
SMALL
bcc


@<TRIPOS>ATOM
      1 O           0.1020   -0.5330   -0.2290 o         1 0MV     -0.623500
      2 C           1.3010   -0.2340   -0.0800 c         1 0MV      0.684500
      3 NAM         1.8070   -0.1430    1.2060 n         1 0MV     -0.466100
      4 CAS         3.1600   -0.0750    1.5690 ca        1 0MV      0.099600
      5 CAG         3.5830   -0.8240    2.6990 ca        1 0MV     -0.185000
      6 CAC         4.9010   -0.7790    3.1300 ca        1 0MV     -0.081000
      7 CAD         5.8380    0.0080    2.4570 ca        1 0MV     -0.159000
      8 CAH         5.4380    0.7590    1.3610 ca        1 0MV     -0.059000
      9 CAT         4.1100    0.7310    0.9050 ca        1 0MV     -0.165600
     10 CAP         3.8040    1.6400   -0.2320 c         1 0MV      0.712100
     11 OAA         4.3960    2.7350   -0.3500 o         1 0MV     -0.640500
     12 N           2.8700    1.3050   -1.1920 n         1 0MV     -0.556900
     13 CA          2.1920    0.0500   -1.3020 c3        1 0MV      0.058700
     14 CB          3.0850   -1.1850   -1.5490 c3        1 0MV     -0.024200
     15 CG          3.5790   -1.2380   -2.9290 cc        1 0MV     -0.157400
     16 CD2         4.7630   -0.5930   -3.4590 ca        1 0MV     -0.085800
     17 CE3         5.7390    0.2510   -2.9240 ca        1 0MV     -0.083000
     18 CZ3         6.7670    0.6930   -3.7420 ca        1 0MV     -0.151000
     19 CH2         6.8440    0.3100   -5.0940 ca        1 0MV     -0.111000
     20 CZ2         5.8960   -0.5220   -5.6680 ca        1 0MV     -0.145000
     21 CE2         4.8490   -0.9780   -4.8510 ca        1 0MV     -0.048200
     22 NE1         3.7630   -1.8100   -5.1380 na        1 0MV     -0.189400
     23 CD1         3.0080   -1.9650   -3.9770 cd        1 0MV     -0.094100
     24 H1          1.1770   -0.3950    1.9420 hn        1 0MV      0.326500
     25 H2          2.8600   -1.4480    3.2470 ha        1 0MV      0.140000
     26 H3          5.2070   -1.3690    4.0070 ha        1 0MV      0.139000
     27 H4          6.8830    0.0400    2.7990 ha        1 0MV      0.143000
     28 H5          6.1580    1.4110    0.8360 ha        1 0MV      0.160000
     29 H6          2.7670    1.9390   -1.9540 hn        1 0MV      0.334500
     30 H7          1.4770    0.1340   -2.1800 h1        1 0MV      0.098700
     31 H8          2.4650   -2.0980   -1.3350 hc        1 0MV      0.064700
     32 H9          3.9510   -1.1810   -0.8330 hc        1 0MV      0.064700
     33 H10         5.6790    0.5650   -1.8710 ha        1 0MV      0.136000
     34 H11         7.5400    1.3610   -3.3330 ha        1 0MV      0.134000
     35 H12         7.6770    0.6840   -5.7070 ha        1 0MV      0.131000
     36 H13         5.9600   -0.8160   -6.7230 ha        1 0MV      0.132000
     37 H14         3.5790   -2.2310   -6.0090 hn        1 0MV      0.300700
     38 H15         2.1100   -2.5870   -3.9740 h4        1 0MV      0.168000
@<TRIPOS>BOND
     1    1    2 2   
     2    2    3 1   
     3    2   13 1   
     4    3    4 1   
     5    3   24 1   
     6    4    5 ar  
     7    4    9 ar  
     8    5    6 ar  
     9    5   25 1   
    10    6    7 ar  
    11    6   26 1   
    12    7    8 ar  
    13    7   27 1   
    14    8    9 ar  
    15    8   28 1   
    16    9   10 1   
    17   10   11 2   
    18   10   12 1   
    19   12   13 1   
    20   12   29 1   
    21   13   14 1   
    22   13   30 1   
    23   14   15 1   
    24   14   31 1   
    25   14   32 1   
    26   15   16 1   
    27   15   23 2   
    28   16   17 ar  
    29   16   21 ar  
    30   17   18 ar  
    31   17   33 1   
    32   18   19 ar  
    33   18   34 1   
    34   19   20 ar  
    35   19   35 1   
    36   20   21 ar  
    37   20   36 1   
    38   21   22 1   
    39   22   23 1   
    40   22   37 1   
    41   23   38 1   
@<TRIPOS>SUBSTRUCTURE
     1 0MV         1 TEMP              0 ****  ****    0 ROOT
