@<TRIPOS>MOLECULE
0MV
   38    32     1     0     0
SMALL
bcc


@<TRIPOS>ATOM
      1 O          -2.0970   -0.8670    1.8790 o         1 0MV     -0.338000
      2 C          -1.3670    0.0970    1.7680 c1        1 0MV      0.264000
      3 NAM        -1.2270    1.3730    2.9570 n2        1 0MV     -0.333000
      4 CAS         0.3770    1.9040    3.1170 c2        1 0MV      0.130000
      5 CAG         1.0000    2.1510    4.3510 c2        1 0MV     -0.194000
      6 CAC         2.0220    3.0860    4.4380 c1        1 0MV     -0.069000
      7 CAD         2.4260    3.7740    3.3100 c1        1 0MV     -0.119333
      8 CAH         1.8150    3.5310    2.0980 c1        1 0MV     -0.119333
      9 CAT         0.7740    2.5790    2.0100 c1        1 0MV     -0.215000
     10 CAP         0.2040    2.1640    1.0570 c2        1 0MV      0.328000
     11 OAA        -0.8910    2.5930    0.7540 o         1 0MV     -0.263000
     12 N           0.4920    0.9740    0.9090 n         1 0MV     -0.334000
     13 CA         -0.4180    0.3790    0.4960 c3        1 0MV     -0.004000
     14 CB         -0.0040   -1.0360   -0.1950 c3        1 0MV     -0.076000
     15 CG         -0.8880   -1.2880   -1.3940 c2        1 0MV     -0.165000
     16 CD2        -0.3920   -2.0430   -2.4330 c1        1 0MV     -0.077000
     17 CE3         0.8960   -2.5350   -2.7100 c1        1 0MV     -0.119333
     18 CZ3         1.1210   -3.2850   -3.8550 c1        1 0MV     -0.119333
     19 CH2         0.0750   -3.5510   -4.7280 c1        1 0MV     -0.119333
     20 CZ2        -1.1970   -3.0660   -4.4550 c1        1 0MV     -0.119333
     21 CE2        -1.4250   -2.3060   -3.2950 c1        1 0MV     -0.002000
     22 NE1        -2.5670   -1.7120   -2.7880 n1        1 0MV     -0.217000
     23 CD1        -2.2350   -1.0860   -1.6190 c1        1 0MV     -0.050000
     24 H1         -1.9280    1.7090    3.4330 hn        1 0MV      0.238000
     25 H2          0.7140    1.6650    5.1480 ha        1 0MV      0.141000
     26 H3          2.4540    3.2580    5.2960 ha        1 0MV      0.140000
     27 H4          3.1450    4.4320    3.3710 ha        1 0MV      0.136167
     28 H5          2.1010    4.0180    1.3010 ha        1 0MV      0.136167
     29 H6          1.3310    0.6260    1.0240 hn        1 0MV      0.194000
     30 H7         -0.8300    0.8470   -0.2570 h1        1 0MV      0.149000
     31 H8         -0.1170   -1.7610    0.4530 hc        1 0MV      0.108000
     32 H9          0.9300   -0.9980   -0.4810 hc        1 0MV      0.108000
     33 H10         1.6320   -2.3480   -2.0970 ha        1 0MV      0.136167
     34 H11         2.0150   -3.6260   -4.0470 ha        1 0MV      0.136167
     35 H12         0.2330   -4.0790   -5.5330 ha        1 0MV      0.136167
     36 H13        -1.9330   -3.2540   -5.0690 ha        1 0MV      0.136167
     37 H14        -3.3960   -1.7330   -3.1680 DU        1 0MV      0.217500
     38 H15        -2.8440   -0.5860   -1.0430 DU        1 0MV      0.217500
@<TRIPOS>BOND
     1    1    2 1   
     2    2   13 1   
     3    3    4 1   
     4    3   24 1   
     5    4    5 1   
     6    4    9 1   
     7    5    6 1   
     8    5   25 1   
     9    6   26 1   
    10    7    8 1   
    11    7   27 1   
    12    8   28 1   
    13    9   10 1   
    14   10   11 1   
    15   10   12 1   
    16   12   13 1   
    17   12   29 1   
    18   13   14 1   
    19   13   30 1   
    20   14   15 1   
    21   14   31 1   
    22   14   32 1   
    23   15   16 1   
    24   15   23 1   
    25   16   21 1   
    26   17   18 1   
    27   17   33 1   
    28   18   34 1   
    29   19   20 1   
    30   19   35 1   
    31   20   36 1   
    32   22   23 1   
@<TRIPOS>SUBSTRUCTURE
     1 0MV         1 TEMP              0 ****  ****    0 ROOT
