@<TRIPOS>MOLECULE
0MV
   38    41     1     0     0
SMALL
bcc


@<TRIPOS>ATOM
      1 O           0.0990   -0.5260   -0.2250 o         1 0MV     -0.623500
      2 C           1.2980   -0.2290   -0.0770 c         1 0MV      0.684500
      3 NAM         1.8060   -0.1390    1.2090 n         1 0MV     -0.466100
      4 CAS         3.1590   -0.0740    1.5700 ca        1 0MV      0.099600
      5 CAG         3.5830   -0.8230    2.6990 ca        1 0MV     -0.184000
      6 CAC         4.9010   -0.7810    3.1280 ca        1 0MV     -0.081000
      7 CAD         5.8390    0.0050    2.4550 ca        1 0MV     -0.159000
      8 CAH         5.4380    0.7570    1.3600 ca        1 0MV     -0.059000
      9 CAT         4.1100    0.7320    0.9060 ca        1 0MV     -0.165600
     10 CAP         3.8040    1.6420   -0.2300 c         1 0MV      0.712100
     11 OAA         4.3970    2.7360   -0.3470 o         1 0MV     -0.640500
     12 N           2.8680    1.3090   -1.1890 n         1 0MV     -0.556900
     13 CA          2.1880    0.0560   -1.2990 c3        1 0MV      0.058700
     14 CB          3.0790   -1.1810   -1.5480 c3        1 0MV     -0.024200
     15 CG          3.5740   -1.2330   -2.9280 cc        1 0MV     -0.157400
     16 CD2         4.7590   -0.5890   -3.4570 ca        1 0MV     -0.085800
     17 CE3         5.7360    0.2510   -2.9200 ca        1 0MV     -0.083000
     18 CZ3         6.7660    0.6930   -3.7370 ca        1 0MV     -0.151000
     19 CH2         6.8420    0.3120   -5.0890 ca        1 0MV     -0.111000
     20 CZ2         5.8930   -0.5170   -5.6650 ca        1 0MV     -0.145000
     21 CE2         4.8450   -0.9730   -4.8490 ca        1 0MV     -0.048200
     22 NE1         3.7570   -1.8020   -5.1380 na        1 0MV     -0.189400
     23 CD1         3.0010   -1.9570   -3.9770 cd        1 0MV     -0.094100
     24 H1          1.1760   -0.3910    1.9450 hn        1 0MV      0.326500
     25 H2          2.8590   -1.4470    3.2480 ha        1 0MV      0.140000
     26 H3          5.2070   -1.3720    4.0050 ha        1 0MV      0.139000
     27 H4          6.8840    0.0350    2.7960 ha        1 0MV      0.143000
     28 H5          6.1590    1.4090    0.8350 ha        1 0MV      0.160000
     29 H6          2.7650    1.9440   -1.9510 hn        1 0MV      0.334500
     30 H7          1.4730    0.1410   -2.1770 h1        1 0MV      0.098700
     31 H8          2.4580   -2.0930   -1.3350 hc        1 0MV      0.064700
     32 H9          3.9450   -1.1790   -0.8320 hc        1 0MV      0.064700
     33 H10         5.6770    0.5640   -1.8660 ha        1 0MV      0.136000
     34 H11         7.5400    1.3590   -3.3270 ha        1 0MV      0.134000
     35 H12         7.6760    0.6860   -5.7020 ha        1 0MV      0.131000
     36 H13         5.9570   -0.8090   -6.7210 ha        1 0MV      0.132000
     37 H14         3.5730   -2.2210   -6.0100 hn        1 0MV      0.300700
     38 H15         2.1020   -2.5770   -3.9750 h4        1 0MV      0.168000
@<TRIPOS>BOND
     1    1    2 2   
     2    2    3 1   
     3    2   13 1   
     4    3    4 1   
     5    3   24 1   
     6    4    5 ar  
     7    4    9 ar  
     8    5    6 ar  
     9    5   25 1   
    10    6    7 ar  
    11    6   26 1   
    12    7    8 ar  
    13    7   27 1   
    14    8    9 ar  
    15    8   28 1   
    16    9   10 1   
    17   10   11 2   
    18   10   12 1   
    19   12   13 1   
    20   12   29 1   
    21   13   14 1   
    22   13   30 1   
    23   14   15 1   
    24   14   31 1   
    25   14   32 1   
    26   15   16 1   
    27   15   23 2   
    28   16   17 ar  
    29   16   21 ar  
    30   17   18 ar  
    31   17   33 1   
    32   18   19 ar  
    33   18   34 1   
    34   19   20 ar  
    35   19   35 1   
    36   20   21 ar  
    37   20   36 1   
    38   21   22 1   
    39   22   23 1   
    40   22   37 1   
    41   23   38 1   
@<TRIPOS>SUBSTRUCTURE
     1 0MV         1 TEMP              0 ****  ****    0 ROOT
