@<TRIPOS>MOLECULE
0MV
   38    41     1     0     0
SMALL
bcc


@<TRIPOS>ATOM
      1 O           2.3970   -3.1970    0.1690 o         1 0MV     -0.623500
      2 C           2.1000   -1.9900    0.1830 c         1 0MV      0.684500
      3 NAM         3.0950   -1.0570   -0.0600 n         1 0MV     -0.466100
      4 CAS         2.9150    0.3050   -0.3370 ca        1 0MV      0.099600
      5 CAG         3.7280    0.8920   -1.3430 ca        1 0MV     -0.185000
      6 CAC         3.6220    2.2400   -1.6480 ca        1 0MV     -0.081000
      7 CAD         2.7110    3.0500   -0.9670 ca        1 0MV     -0.159000
      8 CAH         1.9200    2.4970    0.0320 ca        1 0MV     -0.059000
      9 CAT         2.0090    1.1340    0.3590 ca        1 0MV     -0.165600
     10 CAP         1.1590    0.6920    1.4960 c         1 0MV      0.712100
     11 OAA         0.9160    1.4650    2.4490 o         1 0MV     -0.640500
     12 N           0.6060   -0.5720    1.5350 n         1 0MV     -0.556900
     13 CA          0.6580   -1.5440    0.4870 c3        1 0MV      0.058700
     14 CB         -0.0170   -1.1450   -0.8430 c3        1 0MV     -0.024200
     15 CG         -1.4800   -1.2000   -0.7550 cc        1 0MV     -0.157400
     16 CD2        -2.3670   -0.1550   -0.2850 ca        1 0MV     -0.085800
     17 CE3        -2.1780    1.1290    0.2310 ca        1 0MV     -0.083000
     18 CZ3        -3.2870    1.8800    0.5880 ca        1 0MV     -0.151000
     19 CH2        -4.5920    1.3750    0.4410 ca        1 0MV     -0.111000
     20 CZ2        -4.8270    0.1060   -0.0640 ca        1 0MV     -0.145000
     21 CE2        -3.7130   -0.6670   -0.4290 ca        1 0MV     -0.048200
     22 NE1        -3.6310   -1.9600   -0.9550 na        1 0MV     -0.189400
     23 CD1        -2.2860   -2.2700   -1.1520 cd        1 0MV     -0.094100
     24 H1          3.9920   -1.4300   -0.3010 hn        1 0MV      0.326500
     25 H2          4.4560    0.2730   -1.8910 ha        1 0MV      0.140000
     26 H3          4.2610    2.6730   -2.4330 ha        1 0MV      0.139000
     27 H4          2.6270    4.1180   -1.2120 ha        1 0MV      0.143000
     28 H5          1.2170    3.1280    0.6030 ha        1 0MV      0.160000
     29 H6         -0.0010   -0.7710    2.3010 hn        1 0MV      0.334500
     30 H7          0.1330   -2.4750    0.8700 h1        1 0MV      0.098700
     31 H8          0.3090   -0.1130   -1.1440 hc        1 0MV      0.064700
     32 H9          0.3400   -1.8630   -1.6320 hc        1 0MV      0.064700
     33 H10        -1.1590    1.5260    0.3610 ha        1 0MV      0.136000
     34 H11        -3.1510    2.8910    0.9990 ha        1 0MV      0.134000
     35 H12        -5.4440    2.0050    0.7370 ha        1 0MV      0.131000
     36 H13        -5.8470   -0.2840   -0.1740 ha        1 0MV      0.132000
     37 H14        -4.3960   -2.5390   -1.1700 hn        1 0MV      0.300700
     38 H15        -1.9910   -3.2370   -1.5660 h4        1 0MV      0.168000
@<TRIPOS>BOND
     1    1    2 2   
     2    2    3 1   
     3    2   13 1   
     4    3    4 1   
     5    3   24 1   
     6    4    5 ar  
     7    4    9 ar  
     8    5    6 ar  
     9    5   25 1   
    10    6    7 ar  
    11    6   26 1   
    12    7    8 ar  
    13    7   27 1   
    14    8    9 ar  
    15    8   28 1   
    16    9   10 1   
    17   10   11 2   
    18   10   12 1   
    19   12   13 1   
    20   12   29 1   
    21   13   14 1   
    22   13   30 1   
    23   14   15 1   
    24   14   31 1   
    25   14   32 1   
    26   15   16 1   
    27   15   23 2   
    28   16   17 ar  
    29   16   21 ar  
    30   17   18 ar  
    31   17   33 1   
    32   18   19 ar  
    33   18   34 1   
    34   19   20 ar  
    35   19   35 1   
    36   20   21 ar  
    37   20   36 1   
    38   21   22 1   
    39   22   23 1   
    40   22   37 1   
    41   23   38 1   
@<TRIPOS>SUBSTRUCTURE
     1 0MV         1 TEMP              0 ****  ****    0 ROOT
