@<TRIPOS>MOLECULE
0MW
   35    34     1     0     0
SMALL
bcc


@<TRIPOS>ATOM
      1 O1         -0.0900   -2.6700    1.7850 o         1 0MW     -0.927833
      2 P1          0.8680   -1.5340    2.0190 p5        1 0MW      1.220700
      3 O2          1.7260   -1.7220    3.2460 o         1 0MW     -0.927833
      4 O3          0.2420   -0.1810    1.8530 o         1 0MW     -0.927833
      5 C9          2.2420   -1.5640    0.4450 c3        1 0MW     -0.602100
      6 P2          3.8490   -1.1750    0.3130 p5        1 0MW      1.433600
      7 O5          4.0900    0.0140   -0.5700 o         1 0MW     -0.945000
      8 O4          4.3010   -0.6760    1.8290 oh        1 0MW     -0.829400
      9 O6          4.7500   -2.3470    0.0380 o         1 0MW     -0.945000
     10 C8          1.8040   -2.7920   -0.2840 c3        1 0MW      0.251800
     11 N1          2.4270   -4.1050   -0.0980 n7        1 0MW     -0.856200
     12 C7          1.9520   -4.9010    1.0100 c3        1 0MW      0.181800
     13 C6          2.6000   -4.6370    2.3680 c3        1 0MW     -0.145400
     14 C5          1.8930   -5.3650    3.4900 c3        1 0MW     -0.043400
     15 C4          2.1650   -4.6680    4.8090 c3        1 0MW     -0.109400
     16 C3          1.3410   -5.2540    5.9350 c3        1 0MW     -0.069400
     17 C2          1.6100   -4.5500    7.2410 c3        1 0MW     -0.084100
     18 H3          1.6710   -0.7030    0.0220 hc        1 0MW      0.081700
     19 H6          1.9710   -2.6040   -1.3970 h1        1 0MW     -0.003300
     20 H7          0.6880   -2.9270   -0.1490 h1        1 0MW     -0.003300
     21 H8          3.6330   -0.9040    2.4770 ho        1 0MW      0.439000
     22 H10         0.8370   -4.7620    1.1150 h1        1 0MW      0.011700
     23 H11         2.1430   -5.9840    0.7340 h1        1 0MW      0.011700
     24 H12         2.5200   -3.5170    2.5670 hc        1 0MW      0.081700
     25 H13         3.6840   -4.9130    2.3500 hc        1 0MW      0.081700
     26 H14         2.2170   -6.4390    3.5460 hc        1 0MW      0.000700
     27 H15         0.7880   -5.3550    3.2950 hc        1 0MW      0.000700
     28 H16         1.9250   -3.5670    4.6680 hc        1 0MW      0.081700
     29 H17         3.2530   -4.7450    5.0630 hc        1 0MW      0.081700
     30 H18         1.5630   -6.3490    6.0480 hc        1 0MW      0.011200
     31 H19         0.2530   -5.1630    5.6790 hc        1 0MW      0.011200
     32 H20         0.9640   -4.9580    8.0570 hc        1 0MW      0.013700
     33 H21         1.4040   -3.4570    7.1330 hc        1 0MW      0.013700
     34 H22         2.6780   -4.6750    7.5440 hc        1 0MW      0.013700
     35 H121        3.4260   -3.9480   -0.0080 hn        1 0MW      0.392800
@<TRIPOS>BOND
     1    1    2 1   
     2    2    3 1   
     3    2    4 1   
     4    2    5 1   
     5    5    6 1   
     6    5   10 1   
     7    5   18 1   
     8    6    7 1   
     9    6    8 1   
    10    6    9 1   
    11    8   21 1   
    12   10   11 1   
    13   10   19 1   
    14   10   20 1   
    15   11   12 1   
    16   11   35 1   
    17   12   13 1   
    18   12   22 1   
    19   12   23 1   
    20   13   14 1   
    21   13   24 1   
    22   13   25 1   
    23   14   15 1   
    24   14   26 1   
    25   14   27 1   
    26   15   16 1   
    27   15   28 1   
    28   15   29 1   
    29   16   17 1   
    30   16   30 1   
    31   16   31 1   
    32   17   32 1   
    33   17   33 1   
    34   17   34 1   
@<TRIPOS>SUBSTRUCTURE
     1 0MW         1 TEMP              0 ****  ****    0 ROOT
