@<TRIPOS>MOLECULE
0MW
   34    33     1     0     0
SMALL
bcc


@<TRIPOS>ATOM
      1 O1          0.6500   -1.9840    2.4240 o         1 0MW     -0.991667
      2 P1          0.2450   -1.9260    0.9460 p5        1 0MW      1.266200
      3 O2          0.8640   -3.1150    0.2250 o         1 0MW     -0.991667
      4 O3         -1.2860   -1.9370    0.8580 o         1 0MW     -0.991667
      5 C9          0.9600   -0.3840    0.2980 c3        1 0MW     -0.461100
      6 P2          1.0680    0.6290   -1.2510 p5        1 0MW      1.266200
      7 O5         -0.1060    1.6140   -1.2700 o         1 0MW     -0.991667
      8 O4          2.3890    1.3810   -1.0780 o         1 0MW     -0.991667
      9 O6          1.1030   -0.2020   -2.5200 o         1 0MW     -0.991667
     10 C8          0.8910    0.6300    1.4130 c3        1 0MW      0.197800
     11 N1         -0.2200    1.5790    1.5960 n3        1 0MW     -0.864200
     12 C7         -1.5090    0.9700    1.8590 c3        1 0MW      0.151800
     13 C6         -2.5980    1.2440    0.8130 c3        1 0MW     -0.095400
     14 C5         -3.5800    0.0980    0.7690 c3        1 0MW     -0.131400
     15 C4         -4.5620    0.2380   -0.3730 c3        1 0MW     -0.058400
     16 C3         -5.4280   -0.9990   -0.5040 c3        1 0MW     -0.087400
     17 C2         -6.3660   -0.9150   -1.6810 c3        1 0MW     -0.078100
     18 H3          2.0260   -0.7370    0.2770 hc        1 0MW      0.028700
     19 H6          1.0030    0.0890    2.4020 h1        1 0MW      0.009700
     20 H7          1.7850    1.3180    1.2840 h1        1 0MW      0.009700
     21 H8         -0.2770    2.0860    0.7130 hn        1 0MW      0.388800
     22 H10        -1.3870   -0.1620    1.9530 h1        1 0MW      0.029700
     23 H11        -1.8770    1.3790    2.8520 h1        1 0MW      0.029700
     24 H12        -3.1340    2.2060    1.0400 hc        1 0MW      0.036200
     25 H13        -2.0960    1.3460   -0.1990 hc        1 0MW      0.036200
     26 H14        -2.9450   -0.8530    0.6460 hc        1 0MW      0.085700
     27 H15        -4.1490    0.0220    1.7340 hc        1 0MW      0.085700
     28 H16        -5.2220    1.1370   -0.2310 hc        1 0MW      0.012700
     29 H17        -3.9810    0.3920   -1.3220 hc        1 0MW      0.012700
     30 H18        -4.7490   -1.8880   -0.6130 hc        1 0MW      0.042200
     31 H19        -6.0240   -1.1460    0.4350 hc        1 0MW      0.042200
     32 H20        -7.0530   -0.0390   -1.5830 hc        1 0MW     -0.000967
     33 H21        -5.7850   -0.7970   -2.6280 hc        1 0MW     -0.000967
     34 H22        -6.9910   -1.8380   -1.7630 hc        1 0MW     -0.000967
@<TRIPOS>BOND
     1    1    2 1   
     2    2    3 1   
     3    2    4 1   
     4    2    5 1   
     5    5    6 1   
     6    5   10 1   
     7    5   18 1   
     8    6    7 1   
     9    6    8 1   
    10    6    9 1   
    11   10   11 1   
    12   10   19 1   
    13   10   20 1   
    14   11   12 1   
    15   11   21 1   
    16   12   13 1   
    17   12   22 1   
    18   12   23 1   
    19   13   14 1   
    20   13   24 1   
    21   13   25 1   
    22   14   15 1   
    23   14   26 1   
    24   14   27 1   
    25   15   16 1   
    26   15   28 1   
    27   15   29 1   
    28   16   17 1   
    29   16   30 1   
    30   16   31 1   
    31   17   32 1   
    32   17   33 1   
    33   17   34 1   
@<TRIPOS>SUBSTRUCTURE
     1 0MW         1 TEMP              0 ****  ****    0 ROOT
