@<TRIPOS>MOLECULE
0MW
   35    34     1     0     0
SMALL
bcc


@<TRIPOS>ATOM
      1 O1         -0.0940   -2.7290    1.7410 o         1 0MW     -0.927833
      2 P1          0.8360   -1.5700    1.9740 p5        1 0MW      1.220700
      3 O2          1.6790   -1.7230    3.2160 o         1 0MW     -0.927833
      4 O3          0.1840   -0.2330    1.7790 o         1 0MW     -0.927833
      5 C9          2.2340   -1.5920    0.4210 c3        1 0MW     -0.602100
      6 P2          3.8340   -1.1690    0.3080 p5        1 0MW      1.433600
      7 O5          4.0630    0.0130   -0.5880 o         1 0MW     -0.945000
      8 O4          4.2520   -0.6410    1.8230 oh        1 0MW     -0.829400
      9 O6          4.7640   -2.3260    0.0620 o         1 0MW     -0.945000
     10 C8          1.8330   -2.8380   -0.2970 c3        1 0MW      0.251800
     11 N1          2.4820   -4.1350   -0.0850 n3        1 0MW     -0.856200
     12 C7          2.0080   -4.9260    1.0270 c3        1 0MW      0.181800
     13 C6          2.6290   -4.6300    2.3910 c3        1 0MW     -0.145400
     14 C5          1.9210   -5.3580    3.5130 c3        1 0MW     -0.043400
     15 C4          2.1570   -4.6380    4.8250 c3        1 0MW     -0.109400
     16 C3          1.3300   -5.2270    5.9470 c3        1 0MW     -0.069400
     17 C2          1.5620   -4.4990    7.2470 c3        1 0MW     -0.084100
     18 H3          1.6510   -0.7490   -0.0220 hc        1 0MW      0.081700
     19 H6          0.7190   -2.9950   -0.1770 h1        1 0MW     -0.003300
     20 H7          2.0140   -2.6620   -1.4100 h1        1 0MW     -0.003300
     21 H8          3.5800   -0.8750    2.4650 ho        1 0MW      0.439000
     22 H10         2.2260   -6.0080    0.7690 h1        1 0MW      0.011700
     23 H11         0.8880   -4.8090    1.1140 h1        1 0MW      0.011700
     24 H12         3.7190   -4.8830    2.3930 hc        1 0MW      0.081700
     25 H13         2.5220   -3.5090    2.5730 hc        1 0MW      0.081700
     26 H14         2.2680   -6.4240    3.5870 hc        1 0MW      0.000700
     27 H15         0.8190   -5.3750    3.3010 hc        1 0MW      0.000700
     28 H16         3.2430   -4.6870    5.0960 hc        1 0MW      0.081700
     29 H17         1.8960   -3.5440    4.6660 hc        1 0MW      0.081700
     30 H18         0.2440   -5.1630    5.6730 hc        1 0MW      0.011200
     31 H19         1.5740   -6.3150    6.0790 hc        1 0MW      0.011200
     32 H20         2.6270   -4.5960    7.5680 hc        1 0MW      0.013700
     33 H21         0.9130   -4.9100    8.0580 hc        1 0MW      0.013700
     34 H22         1.3330   -3.4120    7.1200 hc        1 0MW      0.013700
     35 H121        3.4760   -3.9550    0.0180 hn        1 0MW      0.392800
@<TRIPOS>BOND
     1    1    2 1   
     2    2    3 1   
     3    2    4 1   
     4    2    5 1   
     5    5    6 1   
     6    5   10 1   
     7    5   18 1   
     8    6    7 1   
     9    6    8 1   
    10    6    9 1   
    11    8   21 1   
    12   10   11 1   
    13   10   19 1   
    14   10   20 1   
    15   11   12 1   
    16   11   35 1   
    17   12   13 1   
    18   12   22 1   
    19   12   23 1   
    20   13   14 1   
    21   13   24 1   
    22   13   25 1   
    23   14   15 1   
    24   14   26 1   
    25   14   27 1   
    26   15   16 1   
    27   15   28 1   
    28   15   29 1   
    29   16   17 1   
    30   16   30 1   
    31   16   31 1   
    32   17   32 1   
    33   17   33 1   
    34   17   34 1   
@<TRIPOS>SUBSTRUCTURE
     1 0MW         1 TEMP              0 ****  ****    0 ROOT
