@<TRIPOS>MOLECULE
0MW
   34    32     1     0     0
SMALL
bcc


@<TRIPOS>ATOM
      1 O1         -5.4370   -1.6430    2.8480 o         1 0MW     -0.985500
      2 P1         -3.9310   -1.5370    2.8380 p4        1 0MW      1.646000
      3 O2         -3.4410   -1.1910    4.2240 o         1 0MW     -1.034300
      4 O3         -3.3360   -2.8570    2.4090 os        1 0MW     -1.320000
      5 C9         -3.4230   -0.2380    1.6750 c3        1 0MW     -0.469100
      6 P2         -4.2730    1.3110    2.0900 p5        1 0MW      1.255700
      7 O5         -3.8870    1.7390    3.4860 o         1 0MW     -0.990500
      8 O4         -5.7670    1.1000    2.0240 o         1 0MW     -0.990500
      9 O6         -3.8730    2.3840    1.1060 o         1 0MW     -0.990500
     10 C8         -1.9270   -0.0340    1.7690 c3        1 0MW      0.204800
     11 N1         -1.3250   -0.3510    0.5180 n3        1 0MW     -0.856200
     12 C7          0.0340    0.0720    0.5250 c3        1 0MW      0.118800
     13 C6          0.6660   -0.2410   -0.8140 c3        1 0MW     -0.073400
     14 C5          2.0640    0.3370   -0.8590 c3        1 0MW     -0.144400
     15 C4          2.7290   -0.0540   -2.1600 c3        1 0MW     -0.056400
     16 C3          4.1230    0.5340   -2.2110 c3        1 0MW     -0.087400
     17 C2          4.7890    0.1400   -3.5100 c3        1 0MW     -0.079100
     18 H3         -3.6590   -0.5050    0.7660 hc        1 0MW      0.032700
     19 H6         -1.7390    0.9010    1.9940 h1        1 0MW      0.031200
     20 H7         -1.5610   -0.6180    2.4650 h1        1 0MW      0.031200
     21 H8         -1.3620   -1.2550    0.3820 hn        1 0MW      0.353800
     22 H10         0.0750    1.0380    0.6870 h1        1 0MW      0.046200
     23 H11         0.5200   -0.3990    1.2330 h1        1 0MW      0.046200
     24 H12         0.7100   -1.2100   -0.9350 hc        1 0MW      0.006200
     25 H13         0.1280    0.1540   -1.5290 hc        1 0MW      0.006200
     26 H14         2.5850   -0.0130   -0.1080 hc        1 0MW      0.094700
     27 H15         2.0160    1.3120   -0.7970 hc        1 0MW      0.094700
     28 H16         2.7840   -1.0290   -2.2190 hc        1 0MW      0.008200
     29 H17         2.2040    0.2880   -2.9110 hc        1 0MW      0.008200
     30 H18         4.0670    1.5090   -2.1550 hc        1 0MW      0.045700
     31 H19         4.6470    0.1930   -1.4590 hc        1 0MW      0.045700
     32 H20         4.9780   -0.8220   -3.5020 hc        1 0MW      0.000700
     33 H21         4.1940    0.3490   -4.2600 hc        1 0MW      0.000700
     34 H22         5.6280    0.6370   -3.6110 hc        1 0MW      0.000700
@<TRIPOS>BOND
     1    1    2 1   
     2    2    3 2   
     3    2    5 1   
     4    5    6 1   
     5    5   10 1   
     6    5   18 1   
     7    6    7 1   
     8    6    8 1   
     9    6    9 1   
    10   10   11 1   
    11   10   19 1   
    12   10   20 1   
    13   11   12 1   
    14   11   21 1   
    15   12   13 1   
    16   12   22 1   
    17   12   23 1   
    18   13   14 1   
    19   13   24 1   
    20   13   25 1   
    21   14   15 1   
    22   14   26 1   
    23   14   27 1   
    24   15   16 1   
    25   15   28 1   
    26   15   29 1   
    27   16   17 1   
    28   16   30 1   
    29   16   31 1   
    30   17   32 1   
    31   17   33 1   
    32   17   34 1   
@<TRIPOS>SUBSTRUCTURE
     1 0MW         1 TEMP              0 ****  ****    0 ROOT
