@<TRIPOS>MOLECULE
0MW
   35    34     1     0     0
SMALL
bcc


@<TRIPOS>ATOM
      1 O1          0.6260   -1.1900    2.1570 o         1 0MW     -0.911750
      2 P1          1.6290   -0.4810    1.3010 p5        1 0MW      1.394100
      3 O2          3.0350   -0.5370    2.1570 oh        1 0MW     -0.813900
      4 O3          1.3390    0.9660    1.0920 o         1 0MW     -0.911750
      5 C9          1.9220   -1.3780   -0.1740 c3        1 0MW     -0.535100
      6 P2          2.7850   -1.2270   -1.7100 p5        1 0MW      1.394100
      7 O5          3.1360    0.1620   -2.1160 o         1 0MW     -0.911750
      8 O4          4.2530   -1.9470   -1.5510 oh        1 0MW     -0.813900
      9 O6          2.0440   -2.0270   -2.7350 o         1 0MW     -0.911750
     10 C8          2.0290   -2.8670    0.2270 c3        1 0MW      0.232800
     11 N1          3.2000   -3.4150    0.8470 n2        1 0MW     -0.980400
     12 C7          2.9750   -4.4160    1.7780 c3        1 0MW      0.324800
     13 C6          2.4310   -4.0170    3.1840 c3        1 0MW     -0.179400
     14 C5          2.2160   -5.2250    4.0650 c3        1 0MW     -0.051400
     15 C4          1.6980   -4.8380    5.4360 c3        1 0MW     -0.086400
     16 C3          1.4390   -6.0500    6.3080 c3        1 0MW     -0.080400
     17 C2          0.9290   -5.6630    7.6720 c3        1 0MW     -0.085100
     18 H3          0.8790   -1.2930   -0.6040 hc        1 0MW      0.048700
     19 H6          1.8490   -3.4280   -0.7530 h1        1 0MW     -0.038300
     20 H7          1.0960   -3.0560    0.8510 h1        1 0MW     -0.038300
     21 H8          4.2850   -2.6240   -0.8850 ho        1 0MW      0.441500
     22 H10         2.2620   -5.2580    1.4480 h1        1 0MW     -0.100800
     23 H11         3.9690   -4.9320    1.9740 h1        1 0MW     -0.100800
     24 H12         1.4720   -3.4520    3.0500 hc        1 0MW      0.053700
     25 H13         3.1620   -3.3230    3.6720 hc        1 0MW      0.053700
     26 H14         3.1780   -5.7930    4.1810 hc        1 0MW      0.001200
     27 H15         1.4830   -5.9200    3.5760 hc        1 0MW      0.001200
     28 H16         0.7520   -4.2470    5.3160 hc        1 0MW      0.041700
     29 H17         2.4430   -4.1680    5.9400 hc        1 0MW      0.041700
     30 H18         2.3860   -6.6430    6.4160 hc        1 0MW      0.020700
     31 H19         0.6910   -6.7170    5.8030 hc        1 0MW      0.020700
     32 H20         0.7370   -6.5690    8.2980 hc        1 0MW      0.014033
     33 H21        -0.0230   -5.0860    7.5830 hc        1 0MW      0.014033
     34 H22         1.6750   -5.0220    8.2020 hc        1 0MW      0.014033
     35 H121        3.4080   -1.4130    2.1680 ho        1 0MW      0.441500
@<TRIPOS>BOND
     1    1    2 1   
     2    2    3 1   
     3    2    4 1   
     4    2    5 1   
     5    3   35 1   
     6    5    6 1   
     7    5   10 1   
     8    5   18 1   
     9    6    7 1   
    10    6    8 1   
    11    6    9 1   
    12    8   21 1   
    13   10   11 1   
    14   10   19 1   
    15   10   20 1   
    16   11   12 1   
    17   12   13 1   
    18   12   22 1   
    19   12   23 1   
    20   13   14 1   
    21   13   24 1   
    22   13   25 1   
    23   14   15 1   
    24   14   26 1   
    25   14   27 1   
    26   15   16 1   
    27   15   28 1   
    28   15   29 1   
    29   16   17 1   
    30   16   30 1   
    31   16   31 1   
    32   17   32 1   
    33   17   33 1   
    34   17   34 1   
@<TRIPOS>SUBSTRUCTURE
     1 0MW         1 TEMP              0 ****  ****    0 ROOT
