@<TRIPOS>MOLECULE
0MX
   53    55     1     0     0
SMALL
bcc


@<TRIPOS>ATOM
      1 C1         42.2650   82.5670  273.7990 c2        1 0MX      0.070000
      2 N1         39.1630   84.7650  275.5200 na        1 0MX     -0.036000
      3 O1        -73.6490 -137.6650 -452.2230 o         1 0MX     -0.444900
      4 S1        -72.3980 -137.8810 -452.7120 s4        1 0MX      2.151800
      5 CL1       -68.1600 -135.8950 -456.3760 cl        1 0MX      0.248000
      6 C2         42.5450   84.0240  273.9820 c3        1 0MX     -0.211000
      7 N2         38.2360   83.8730  275.7100 n2        1 0MX      0.030000
      8 O2        -71.6300 -138.8860 -452.2190 o         1 0MX     -0.444900
      9 C3         41.5320   84.8850  274.5800 c1        1 0MX     -0.001000
     10 O3         36.1450   81.6700  276.6740 o         1 0MX     -0.169000
     11 C4         41.0730   82.0020  274.1730 c2        1 0MX     -0.166000
     12 N4        -73.3330 -139.4740 -454.3280 n3        1 0MX     -0.301000
     13 O4         39.2420   79.9020  277.2880 os        1 0MX     -0.117000
     14 C5         40.0780   82.8320  274.7490 c2        1 0MX      0.004000
     15 C6         40.3300   84.2330  274.9360 c2        1 0MX     -0.149000
     16 C7         38.7410   82.6510  275.2510 c2        1 0MX     -0.248000
     17 C8         43.2850   81.7790  273.2180 cu        1 0MX     -0.151000
     18 C9         44.5080   81.6500  272.6830 cu        1 0MX     -0.016000
     19 C10       -73.4780 -138.6650 -456.7570 c1        1 0MX     -0.132000
     20 C11       -73.4130 -139.0580 -455.6270 c1        1 0MX     -0.184000
     21 C12        43.4930   79.1770  272.6060 c2        1 0MX     -0.211000
     22 C13        43.6990   80.4600  272.7800 cu        1 0MX     -0.099000
     23 C14       -71.7780 -136.8050 -453.5850 c2        1 0MX     -1.245000
     24 C15       -72.4640 -135.5570 -453.9940 c2        1 0MX     -0.013000
     25 C16       -71.6310 -134.7570 -454.6970 c2        1 0MX     -0.214000
     26 C17       -70.2630 -135.3770 -454.7790 c3        1 0MX     -0.241000
     27 C18       -69.7160 -135.5290 -456.0840 c2        1 0MX      0.163000
     28 C19       -70.4700 -136.8020 -454.1090 c1        1 0MX      0.169000
     29 C20        37.2750   81.2090  276.6100 c2        1 0MX      0.355000
     30 C21        37.9950   80.4800  277.6120 c2        1 0MX     -0.196000
     31 C22        39.6820   79.2670  278.4410 c2        1 0MX      0.021000
     32 C23        38.7640   79.4260  279.4690 c2        1 0MX     -0.211000
     33 C24        37.6760   80.2040  278.9410 c2        1 0MX      0.007000
     34 HN1        39.0180   85.7280  275.7730 hn        1 0MX      0.325000
     35 H2         42.8000   84.4860  272.9760 hc        1 0MX      0.191000
     36 H3         43.4830   84.1510  274.6080 hc        1 0MX      0.191000
     37 HN3        37.2880   81.4420  274.5240 hn        1 0MX      0.267500
     38 H4         40.8820   80.9290  274.0320 ha        1 0MX      0.146000
     39 HN4       -74.2620 -139.6760 -453.9770 hn        1 0MX      0.218500
     40 H9        -73.5490 -138.3230 -457.7600 ha        1 0MX      0.252000
     41 H10        45.4460   82.0750  272.3760 ha        1 0MX      0.209000
     42 H12        44.2510   78.5210  272.1570 ha        1 0MX      0.133500
     43 H13        42.5530   78.6910  272.8960 ha        1 0MX      0.133500
     44 H15       -73.5100 -135.3610 -453.7320 ha        1 0MX      0.185000
     45 H16       -71.8460 -133.7760 -455.1210 ha        1 0MX      0.181000
     46 H17       -69.5530 -134.9040 -454.0240 hc        1 0MX      0.230000
     47 H19       -70.3760 -135.4240 -456.9730 h4        1 0MX      0.201000
     48 H22        40.6460   78.7660  278.3390 h4        1 0MX      0.223000
     49 H23        38.8370   79.0410  280.4860 ha        1 0MX      0.203000
     50 H24        36.7780   80.5150  279.4780 ha        1 0MX      0.202000
     51 N3         37.9920   81.4170  275.2770 n4        1 0MX      0.000000
     52 H42       -72.7650 -140.3110 -454.2640 hn        1 0MX      0.218500
     53 H32        38.6560   80.6480  275.1110 hn        1 0MX      0.267500
@<TRIPOS>BOND
     1    1    6 1   
     2    1   11 1   
     3    1   17 1   
     4    2    7 1   
     5    2   15 1   
     6    2   34 1   
     7    3    4 1   
     8    4    8 1   
     9    4   23 1   
    10    5   27 1   
    11    6    9 1   
    12    6   35 1   
    13    6   36 1   
    14    7   16 1   
    15    9   15 1   
    16   10   29 1   
    17   11   14 1   
    18   11   38 1   
    19   12   20 1   
    20   12   39 1   
    21   12   52 1   
    22   13   30 1   
    23   13   31 1   
    24   14   15 1   
    25   14   16 1   
    26   16   51 1   
    27   17   18 1   
    28   17   22 1   
    29   18   22 1   
    30   18   41 1   
    31   19   20 1   
    32   19   40 1   
    33   21   22 1   
    34   21   42 1   
    35   21   43 1   
    36   23   24 1   
    37   23   28 1   
    38   24   25 1   
    39   24   44 1   
    40   25   26 1   
    41   25   45 1   
    42   26   27 1   
    43   26   28 1   
    44   26   46 1   
    45   27   47 1   
    46   29   30 1   
    47   29   51 1   
    48   30   33 1   
    49   31   32 1   
    50   31   48 1   
    51   32   33 1   
    52   32   49 1   
    53   33   50 1   
    54   37   51 1   
    55   51   53 1   
@<TRIPOS>SUBSTRUCTURE
     1 0MX         1 TEMP              0 ****  ****    0 ROOT
