@<TRIPOS>MOLECULE
0MX
   51    55     1     0     0
SMALL
bcc


@<TRIPOS>ATOM
      1 C1          1.2640   -1.8460   -0.2430 cp        1 0MX     -0.067000
      2 N1          4.8820   -3.5350    0.9530 na        1 0MX     -0.006100
      3 O1         -3.5570    2.8960   -0.5320 o         1 0MX     -0.645800
      4 S1         -4.4030    1.9090   -1.0670 sy        1 0MX      1.516200
      5 CL1        -8.5540   -0.8490    0.8950 cl        1 0MX     -0.078400
      6 C2          1.2380   -3.2170    0.1030 ca        1 0MX     -0.085000
      7 N2          5.7490   -2.5190    0.7730 nc        1 0MX     -0.516100
      8 O2         -5.4010    2.3330   -1.9700 o         1 0MX     -0.645800
      9 C3          2.3760   -3.9020    0.4990 ca        1 0MX     -0.141000
     10 O3          7.8000   -0.5610    0.1790 o         1 0MX     -0.540100
     11 C4          2.4620   -1.1290   -0.2000 ca        1 0MX     -0.052000
     12 N4         -3.5560    0.7370   -1.8240 nh        1 0MX     -0.774500
     13 O4          6.0480    2.5640   -0.3040 os        1 0MX     -0.369800
     14 C5          3.6200   -1.7940    0.1800 ca        1 0MX     -0.230900
     15 C6          3.5820   -3.1890    0.5370 ca        1 0MX     -0.041200
     16 C7          5.0430   -1.4290    0.3500 cd        1 0MX      0.421500
     17 C8          0.0270   -1.1810   -0.6450 cp        1 0MX     -0.055000
     18 C9         -0.8860   -1.8190   -1.4950 ca        1 0MX     -0.093000
     19 C10        -2.0630   -1.1900   -1.8800 ca        1 0MX     -0.174500
     20 C11        -2.3650    0.1130   -1.4220 ca        1 0MX      0.169600
     21 C12        -1.4380    0.7590   -0.5730 ca        1 0MX     -0.174500
     22 C13        -0.2680    0.1120   -0.1940 ca        1 0MX     -0.093000
     23 C14        -5.1410    1.0870    0.2110 ca        1 0MX     -0.377500
     24 C15        -4.5160    1.0020    1.4610 ca        1 0MX     -0.012000
     25 C16        -5.1320    0.3470    2.5240 ca        1 0MX     -0.146000
     26 C17        -6.3870   -0.2350    2.3550 ca        1 0MX     -0.060000
     27 C18        -7.0220   -0.1490    1.1100 ca        1 0MX     -0.012600
     28 C19        -6.4050    0.5100    0.0450 ca        1 0MX     -0.013000
     29 C20         6.8560    0.2370    0.0630 c         1 0MX      0.604600
     30 C21         7.1220    1.6710   -0.1550 cc        1 0MX      0.169200
     31 C22         6.6110    3.8230   -0.4900 cc        1 0MX      0.272600
     32 C23         7.9900    3.7440   -0.4630 cd        1 0MX     -0.276300
     33 C24         8.3220    2.3550   -0.2460 cd        1 0MX     -0.165300
     34 HN1         5.2490   -4.4600    0.8940 hn        1 0MX      0.312700
     35 H2          0.2750   -3.7530    0.0640 ha        1 0MX      0.138000
     36 H3          2.3340   -4.9640    0.7750 ha        1 0MX      0.144000
     37 HN3         4.8170    0.5510   -0.0210 hn        1 0MX      0.339500
     38 H4          2.4860   -0.0630   -0.4700 ha        1 0MX      0.139000
     39 HN4        -3.9290    0.3460   -2.6630 hn        1 0MX      0.456800
     40 H9         -0.6660   -2.8310   -1.8710 ha        1 0MX      0.139000
     41 H10        -2.7570   -1.7170   -2.5530 ha        1 0MX      0.152000
     42 H12        -1.6240    1.7850   -0.2110 ha        1 0MX      0.152000
     43 H13         0.4380    0.6300    0.4740 ha        1 0MX      0.139000
     44 H15        -3.5260    1.4720    1.6020 ha        1 0MX      0.157000
     45 H16        -4.6290    0.2890    3.5020 ha        1 0MX      0.149000
     46 H17        -6.8760   -0.7550    3.1940 ha        1 0MX      0.153000
     47 H19        -6.9190    0.5960   -0.9290 ha        1 0MX      0.168000
     48 H22         5.8860    4.6220   -0.6210 h4        1 0MX      0.059100
     49 H23         8.7040    4.5550   -0.5790 ha        1 0MX      0.170000
     50 H24         9.3210    1.9300   -0.1700 ha        1 0MX      0.182000
     51 N3          5.5180   -0.1440    0.1150 n         1 0MX     -0.456400
@<TRIPOS>BOND
     1    1    6 ar  
     2    1   11 ar  
     3    1   17 1   
     4    2    7 1   
     5    2   15 1   
     6    2   34 1   
     7    3    4 2   
     8    4    8 2   
     9    4   12 1   
    10    4   23 1   
    11    5   27 1   
    12    6    9 ar  
    13    6   35 1   
    14    7   16 2   
    15    9   15 ar  
    16    9   36 1   
    17   10   29 2   
    18   11   14 ar  
    19   11   38 1   
    20   12   20 1   
    21   12   39 1   
    22   13   30 1   
    23   13   31 1   
    24   14   15 ar  
    25   14   16 1   
    26   16   51 1   
    27   17   18 ar  
    28   17   22 ar  
    29   18   19 ar  
    30   18   40 1   
    31   19   20 ar  
    32   19   41 1   
    33   20   21 ar  
    34   21   22 ar  
    35   21   42 1   
    36   22   43 1   
    37   23   24 ar  
    38   23   28 ar  
    39   24   25 ar  
    40   24   44 1   
    41   25   26 ar  
    42   25   45 1   
    43   26   27 ar  
    44   26   46 1   
    45   27   28 ar  
    46   28   47 1   
    47   29   30 1   
    48   29   51 1   
    49   30   33 2   
    50   31   32 2   
    51   31   48 1   
    52   32   33 1   
    53   32   49 1   
    54   33   50 1   
    55   37   51 1   
@<TRIPOS>SUBSTRUCTURE
     1 0MX         1 TEMP              0 ****  ****    0 ROOT
