@<TRIPOS>MOLECULE
0MX
   51    51     1     0     0
SMALL
bcc


@<TRIPOS>ATOM
      1 C1          0.7340    0.9040   -0.0030 c2        1 0MX     -0.103000
      2 N1          1.5480   -3.0320    1.6270 n2        1 0MX     -0.111000
      3 O1         -4.7410   -0.6000   -2.3280 o         1 0MX     -0.926000
      4 S1         -4.2290   -0.9680   -3.5890 s6        1 0MX      2.873000
      5 CL1        -1.9500   -6.4510   -5.1280 cl        1 0MX      0.003000
      6 C2          1.9350    0.5430   -0.4840 c2        1 0MX     -0.121000
      7 N2          0.4560   -1.4330    4.2720 n2        1 0MX     -0.213000
      8 O2         -5.0980   -0.8770   -4.6900 o         1 0MX     -0.926000
      9 C3          1.8990   -2.5580    0.3770 c1        1 0MX      0.067000
     10 O3         -1.6600    0.2150    5.4610 o         1 0MX     -0.301000
     11 C4          0.2080    0.4740    1.2820 c2        1 0MX      0.063000
     12 N4         -2.8920   -0.0880   -3.8650 n3        1 0MX     -0.797000
     13 O4         -4.3700   -0.9220    3.3600 os        1 0MX     -0.111000
     14 C5          0.3960   -0.7190    1.8940 c2        1 0MX     -0.142000
     15 C6          1.1330   -1.7910    1.3390 c2        1 0MX     -0.129000
     16 C7         -0.1980   -0.9730    3.2580 c2        1 0MX      0.136000
     17 C8         -0.1420    1.8250   -0.7560 c2        1 0MX      0.014000
     18 C9          0.3370    2.9220   -1.3650 c2        1 0MX     -0.166000
     19 C10        -1.2820    0.6420   -5.6180 c1        1 0MX      0.190000
     20 C11        -2.4580    0.2390   -5.1440 c2        1 0MX     -0.341000
     21 C12        -2.6690    1.1750   -0.8540 c1        1 0MX     -0.186000
     22 C13        -1.5100    1.4780   -0.8040 c1        1 0MX     -0.167000
     23 C14        -3.6350   -2.5510   -3.5040 c2        1 0MX     -1.091000
     24 C15        -3.3480   -3.0300   -2.1510 c2        1 0MX     -0.060000
     25 C16        -2.5760   -4.1020   -1.9140 c2        1 0MX     -0.152000
     26 C17        -1.9610   -4.8820   -2.9730 c2        1 0MX     -0.139000
     27 C18        -2.6730   -5.5530   -3.8950 c2        1 0MX     -0.126000
     28 C19        -3.4310   -3.3700   -4.5370 c1        1 0MX      0.366000
     29 C20        -2.2470   -0.2770    4.4840 c2        1 0MX      0.391000
     30 C21        -3.7180   -0.3810    4.4810 c2        1 0MX     -0.120000
     31 C22        -5.7310   -0.8950    3.6500 c2        1 0MX     -0.058000
     32 C23        -5.9460   -0.3610    4.9060 c2        1 0MX     -0.212000
     33 C24        -4.6470   -0.0280    5.4440 c2        1 0MX     -0.099000
     34 HN1         1.4310   -1.5790    4.1200 hn        1 0MX      0.167000
     35 H2          2.6110   -0.1360    0.0550 ha        1 0MX      0.134000
     36 H3          2.3060    0.9090   -1.4510 ha        1 0MX      0.134000
     37 HN3        -2.1320   -1.0450    2.5760 hn        1 0MX      0.244000
     38 H4         -0.4240    1.2350    1.7870 ha        1 0MX      0.164000
     39 HN4        -2.3180    0.2510   -3.1240 hn        1 0MX      0.261000
     40 H9         -0.3090    3.6070   -1.9300 ha        1 0MX      0.129000
     41 H10         1.4000    3.1920   -1.3230 ha        1 0MX      0.129000
     42 H12        -3.2540    0.1710   -5.9390 h4        1 0MX      0.210000
     43 H13        -3.6990    0.8990   -0.8960 ha        1 0MX      0.257000
     44 H15        -3.8130   -2.4600   -1.3260 ha        1 0MX      0.166000
     45 H16        -2.3440   -4.4210   -0.8840 ha        1 0MX      0.158000
     46 H17        -0.8560   -4.8960   -2.9700 ha        1 0MX      0.161000
     47 H19        -3.7720   -5.6440   -3.8900 h4        1 0MX      0.167000
     48 H22        -6.3650   -1.2860    2.8580 h4        1 0MX      0.197000
     49 H23        -6.8980   -0.2110    5.4090 ha        1 0MX      0.170000
     50 H24        -4.4410    0.4120    6.4170 ha        1 0MX      0.182000
     51 N3         -1.5850   -0.6720    3.3200 n         1 0MX     -0.337000
@<TRIPOS>BOND
     1    1    6 1   
     2    1   11 1   
     3    1   17 1   
     4    2    9 1   
     5    2   15 1   
     6    3    4 1   
     7    4    8 1   
     8    4   12 1   
     9    4   23 1   
    10    5   27 1   
    11    6   35 1   
    12    6   36 1   
    13    7   16 1   
    14    7   34 1   
    15    9   15 1   
    16   10   29 1   
    17   11   14 1   
    18   11   38 1   
    19   12   20 1   
    20   12   39 1   
    21   13   30 1   
    22   13   31 1   
    23   14   15 1   
    24   14   16 1   
    25   16   51 1   
    26   17   18 1   
    27   17   22 1   
    28   18   40 1   
    29   18   41 1   
    30   19   20 1   
    31   20   42 1   
    32   21   22 1   
    33   21   43 1   
    34   23   24 1   
    35   23   28 1   
    36   24   25 1   
    37   24   44 1   
    38   25   26 1   
    39   25   45 1   
    40   26   27 1   
    41   26   46 1   
    42   27   47 1   
    43   29   30 1   
    44   29   51 1   
    45   30   33 1   
    46   31   32 1   
    47   31   48 1   
    48   32   33 1   
    49   32   49 1   
    50   33   50 1   
    51   37   51 1   
@<TRIPOS>SUBSTRUCTURE
     1 0MX         1 TEMP              0 ****  ****    0 ROOT
