@<TRIPOS>MOLECULE
0MX
   51    42     1     0     0
SMALL
bcc


@<TRIPOS>ATOM
      1 C1          1.5830    1.0020    1.6320 c1        1 0MX     -0.064000
      2 N1          3.1250    1.0360    5.4610 n2        1 0MX     -0.181000
      3 O1          0.4960    2.6290   -4.7440 o         1 0MX     -0.928000
      4 S1         -0.2590    1.4130   -4.8430 ss        1 0MX      2.868000
      5 CL1        -2.3780   -0.7320   -9.3790 cl        1 0MX      0.004000
      6 C2          2.6830    1.8180    1.8300 c1        1 0MX     -0.085000
      7 N2          2.2710    0.1490    6.0770 n2        1 0MX     -0.050000
      8 O2          0.7820    0.4600   -5.1100 o         1 0MX     -0.928000
      9 C3          3.2650    1.9020    3.0830 c1        1 0MX     -0.141000
     10 N3          0.6730   -1.4830    4.9210 n         1 0MX     -0.296000
     11 O3          0.7810   -2.0900    7.1150 o         1 0MX     -0.303000
     12 C4          1.0640    0.2710    2.6870 c1        1 0MX     -0.054000
     13 N4         -1.0290    1.0750   -3.4390 n2        1 0MX     -0.829000
     14 O4          0.3130   -4.6960    4.9160 os        1 0MX     -0.110000
     15 C5          1.6550    0.3560    3.9600 c1        1 0MX     -0.146000
     16 C6          2.7380    1.1590    4.1550 c1        1 0MX      0.002000
     17 C7          1.3690   -0.2700    5.1590 c1        1 0MX      0.042000
     18 C8          0.9440    1.0650    0.2610 c2        1 0MX     -0.059000
     19 C9          1.2500    0.1030   -0.6910 c2        1 0MX     -0.086000
     20 C10         0.6210    0.1260   -1.9260 c1        1 0MX     -0.181000
     21 C11        -0.3150    1.1100   -2.2110 c1        1 0MX      0.091000
     22 C12        -0.6210    2.0710   -1.2590 c1        1 0MX     -0.171000
     23 C13         0.0080    2.0490   -0.0230 c1        1 0MX     -0.091000
     24 C14        -1.4250    1.4860   -6.1820 c1        1 0MX     -0.823000
     25 C15        -2.2040    2.6210   -6.3610 c2        1 0MX     -0.020000
     26 C16        -3.0360    2.7250   -7.4660 c1        1 0MX     -0.148000
     27 C17        -3.0900    1.6960   -8.3910 c1        1 0MX     -0.059000
     28 C18        -2.3120    0.5610   -8.2130 c2        1 0MX     -0.092000
     29 C19        -1.4790    0.4570   -7.1090 c2        1 0MX     -0.009000
     30 C20         0.4100   -2.3700    5.9940 c2        1 0MX      0.388000
     31 C21        -0.2090   -3.7170    5.7210 c2        1 0MX     -0.115000
     32 C22        -0.5300   -5.7740    4.9570 c1        1 0MX     -0.060000
     33 C23        -1.5820   -5.4610    5.7930 c1        1 0MX     -0.211000
     34 C24        -1.3840   -4.1940    6.2630 c1        1 0MX     -0.101000
     35 HN1         3.8260    1.4670    5.8560 DU        1 0MX      0.202500
     36 H2          3.0480    2.3330    1.0860 ha        1 0MX      0.139000
     37 H3          4.0420    2.4780    3.2220 ha        1 0MX      0.143000
     38 HN3         0.3300   -1.6560    4.0920 hn        1 0MX      0.253000
     39 H4          0.2880   -0.3050    2.5470 ha        1 0MX      0.139000
     40 HN4        -1.9110    0.8490   -3.4470 hn        1 0MX      0.246000
     41 H9          1.9080   -0.5900   -0.4910 ha        1 0MX      0.140000
     42 H10         0.8370   -0.5530   -2.5980 ha        1 0MX      0.166000
     43 H12        -1.2790    2.7640   -1.4590 ha        1 0MX      0.133000
     44 H13        -0.2080    2.7270    0.6480 ha        1 0MX      0.137000
     45 H15        -2.1660    3.3470   -5.7090 ha        1 0MX      0.164000
     46 H16        -3.5840    3.5250   -7.5920 ha        1 0MX      0.150000
     47 H17        -3.6750    1.7690   -9.1690 ha        1 0MX      0.155000
     48 H19        -0.9230   -0.3370   -6.9890 ha        1 0MX      0.170000
     49 H22        -0.4080   -6.6160    4.4790 DU        1 0MX      0.202500
     50 H23        -2.3330   -6.0420    6.0100 DU        1 0MX      0.202500
     51 H24        -1.9710   -3.7110    6.8760 DU        1 0MX      0.202500
@<TRIPOS>BOND
     1    1    6 1   
     2    1   18 1   
     3    2    7 1   
     4    2   16 1   
     5    3    4 1   
     6    4    8 1   
     7    5   28 1   
     8    6   36 1   
     9    7   17 1   
    10    9   16 1   
    11    9   37 1   
    12   10   17 1   
    13   10   30 1   
    14   10   38 1   
    15   11   30 1   
    16   12   15 1   
    17   12   39 1   
    18   13   21 1   
    19   13   40 1   
    20   14   31 1   
    21   14   32 1   
    22   18   19 1   
    23   18   23 1   
    24   19   20 1   
    25   19   41 1   
    26   20   42 1   
    27   21   22 1   
    28   22   43 1   
    29   23   44 1   
    30   24   25 1   
    31   24   29 1   
    32   25   26 1   
    33   25   45 1   
    34   26   46 1   
    35   27   28 1   
    36   27   47 1   
    37   28   29 1   
    38   29   48 1   
    39   30   31 1   
    40   31   34 1   
    41   32   33 1   
    42   33   34 1   
@<TRIPOS>SUBSTRUCTURE
     1 0MX         1 TEMP              0 ****  ****    0 ROOT
