@<TRIPOS>MOLECULE
0MX
   51    51     1     0     0
SMALL
bcc


@<TRIPOS>ATOM
      1 C1          0.7400    0.9300   -0.0200 c2        1 0MX     -0.103000
      2 N1          1.5350   -3.0400    1.5340 n2        1 0MX     -0.111000
      3 O1         -4.7350   -0.5680   -2.3020 o         1 0MX     -0.926000
      4 S1         -4.2200   -0.9590   -3.5560 s6        1 0MX      2.873000
      5 Cl1        -1.9480   -6.4700   -4.9980 cl        1 0MX      0.003000
      6 C2          1.9400    0.5740   -0.5070 c2        1 0MX     -0.121000
      7 N2          0.4520   -1.4870    4.2110 n2        1 0MX     -0.214000
      8 O2         -5.0850   -0.8840   -4.6600 o         1 0MX     -0.926000
      9 C3          1.8910   -2.5430    0.2950 c1        1 0MX      0.067000
     10 O3         -1.6650    0.1270    5.4380 o         1 0MX     -0.300000
     11 C4          0.2140    0.4790    1.2570 c2        1 0MX      0.063000
     12 N4         -2.8800   -0.0870   -3.8420 n7        1 0MX     -0.797000
     13 O4         -4.3720   -0.9240    3.2890 os        1 0MX     -0.111000
     14 C5          0.3960   -0.7270    1.8470 c2        1 0MX     -0.142000
     15 C6          1.1280   -1.7920    1.2710 c2        1 0MX     -0.129000
     16 C7         -0.2000   -1.0040    3.2060 c2        1 0MX      0.136000
     17 C8         -0.1340    1.8650   -0.7560 c2        1 0MX      0.014000
     18 C9          0.3480    2.9690   -1.3510 c2        1 0MX     -0.165000
     19 C10        -1.2630    0.6110   -5.6030 c1        1 0MX      0.191000
     20 C11        -2.4410    0.2170   -5.1260 c2        1 0MX     -0.341000
     21 C12        -2.6640    1.2290   -0.8540 c1        1 0MX     -0.186000
     22 C13        -1.5040    1.5250   -0.8040 c1        1 0MX     -0.167000
     23 C14        -3.6310   -2.5420   -3.4420 c2        1 0MX     -1.091000
     24 C15        -3.3620   -3.0050   -2.0800 c2        1 0MX     -0.060000
     25 C16        -2.5990   -4.0770   -1.8210 c2        1 0MX     -0.152000
     26 C17        -1.9760   -4.8730   -2.8630 c2        1 0MX     -0.140000
     27 C18        -2.6800   -5.5530   -3.7840 c2        1 0MX     -0.126000
     28 C19        -3.4150   -3.3740   -4.4620 c1        1 0MX      0.365000
     29 C20        -2.2510   -0.3310    4.4440 c2        1 0MX      0.391000
     30 C21        -3.7220   -0.4240    4.4290 c2        1 0MX     -0.120000
     31 C22        -5.7340   -0.8940    3.5720 c2        1 0MX     -0.058000
     32 C23        -5.9530   -0.3980    4.8430 c2        1 0MX     -0.212000
     33 C24        -4.6540   -0.0930    5.3980 c2        1 0MX     -0.099000
     34 HN1         1.4260   -1.6350    4.0550 hn        1 0MX      0.167000
     35 H2          2.6140   -0.1170    0.0200 ha        1 0MX      0.134000
     36 H3          2.3120    0.9560   -1.4680 ha        1 0MX      0.134000
     37 HN3        -2.1310   -1.0420    2.5140 hn        1 0MX      0.244000
     38 H4         -0.4140    1.2330    1.7780 ha        1 0MX      0.164000
     39 HN4        -2.3070    0.2630   -3.1060 hn        1 0MX      0.261000
     40 H9         -0.2970    3.6650   -1.9040 ha        1 0MX      0.129000
     41 H10         1.4130    3.2340   -1.3090 ha        1 0MX      0.129000
     42 H12        -3.2350    0.1380   -5.9220 h4        1 0MX      0.210000
     43 H13        -3.6960    0.9570   -0.8960 ha        1 0MX      0.257000
     44 H15        -3.8330   -2.4210   -1.2670 ha        1 0MX      0.166000
     45 H16        -2.3810   -4.3860   -0.7840 ha        1 0MX      0.159000
     46 H17        -0.8700   -4.8900   -2.8490 ha        1 0MX      0.161000
     47 H19        -3.7790   -5.6400   -3.7890 h4        1 0MX      0.167000
     48 H22        -6.3670   -1.2540    2.7640 h4        1 0MX      0.197000
     49 H23        -6.9060   -0.2560    5.3450 ha        1 0MX      0.170000
     50 H24        -4.4500    0.3150    6.3860 ha        1 0MX      0.182000
     51 N3         -1.5850   -0.6980    3.2730 ns        1 0MX     -0.337000
@<TRIPOS>BOND
     1    1    6 1   
     2    1   11 1   
     3    1   17 1   
     4    2    9 1   
     5    2   15 1   
     6    3    4 1   
     7    4    8 1   
     8    4   12 1   
     9    4   23 1   
    10    5   27 1   
    11    6   35 1   
    12    6   36 1   
    13    7   16 1   
    14    7   34 1   
    15    9   15 1   
    16   10   29 1   
    17   11   14 1   
    18   11   38 1   
    19   12   20 1   
    20   12   39 1   
    21   13   30 1   
    22   13   31 1   
    23   14   15 1   
    24   14   16 1   
    25   16   51 1   
    26   17   18 1   
    27   17   22 1   
    28   18   40 1   
    29   18   41 1   
    30   19   20 1   
    31   20   42 1   
    32   21   22 1   
    33   21   43 1   
    34   23   24 1   
    35   23   28 1   
    36   24   25 1   
    37   24   44 1   
    38   25   26 1   
    39   25   45 1   
    40   26   27 1   
    41   26   46 1   
    42   27   47 1   
    43   29   30 1   
    44   29   51 1   
    45   30   33 1   
    46   31   32 1   
    47   31   48 1   
    48   32   33 1   
    49   32   49 1   
    50   33   50 1   
    51   37   51 1   
@<TRIPOS>SUBSTRUCTURE
     1 0MX         1 TEMP              0 ****  ****    0 ROOT
