@<TRIPOS>MOLECULE
0MY
   42    45     1     0     0
SMALL
bcc


@<TRIPOS>ATOM
      1 O2         -0.0600    0.2520   -0.2080 o         1 0MY     -0.646300
      2 S1          1.3320    0.0300   -0.1260 sy        1 0MY      1.516200
      3 O1          1.9110    0.0410    1.1550 o         1 0MY     -0.646300
      4 C14         1.6860   -1.4480   -0.8620 ca        1 0MY     -0.376500
      5 C17         2.8540   -2.1460   -0.5360 ca        1 0MY     -0.007000
      6 C18         3.1260   -3.3800   -1.1310 ca        1 0MY     -0.011600
      7 Cl1         4.5490   -4.2150   -0.7280 cl        1 0MY     -0.077400
      8 C19         2.2320   -3.9330   -2.0550 ca        1 0MY     -0.061000
      9 C16         1.0640   -3.2430   -2.3750 ca        1 0MY     -0.148000
     10 C15         0.7940   -2.0120   -1.7830 ca        1 0MY     -0.018000
     11 N4          2.0380    1.1190   -1.1140 nu        1 0MY     -0.774500
     12 C11         3.4020    1.4170   -1.2620 ca        1 0MY      0.166600
     13 C10         3.8770    1.9540   -2.4810 ca        1 0MY     -0.174000
     14 C9          5.2220    2.2590   -2.6410 ca        1 0MY     -0.093000
     15 C12         4.3260    1.2070   -0.2140 ca        1 0MY     -0.174000
     16 C13         5.6700    1.5130   -0.3940 ca        1 0MY     -0.093000
     17 C8          6.1390    2.0400   -1.6040 cp        1 0MY     -0.052000
     18 C1          7.5540    2.3610   -1.7790 cp        1 0MY     -0.070000
     19 C4          8.2640    2.9780   -0.7440 ca        1 0MY     -0.048000
     20 C6          9.6040    3.2750   -0.9470 ca        1 0MY     -0.224900
     21 C5         10.6770    3.9050   -0.1460 cc        1 0MY      0.544800
     22 N3         10.4750    4.4700    1.1090 nv        1 0MY     -0.849800
     23 N2         11.8340    3.9190   -0.8710 nd        1 0MY     -0.589100
     24 C7         10.2510    2.9450   -2.1890 ca        1 0MY     -0.049200
     25 N1         11.6180    3.2810   -2.0450 na        1 0MY      0.006900
     26 C3          9.5370    2.3210   -3.2190 ca        1 0MY     -0.142000
     27 C2          8.1960    2.0440   -2.9960 ca        1 0MY     -0.085000
     28 H17         3.5540   -1.7180    0.2040 ha        1 0MY      0.167000
     29 H19         2.4480   -4.9070   -2.5230 ha        1 0MY      0.153000
     30 H16         0.3520   -3.6760   -3.0940 ha        1 0MY      0.148000
     31 H15        -0.1420   -1.4780   -2.0250 ha        1 0MY      0.159000
     32 HN4         1.4630    1.6270   -1.7520 hn        1 0MY      0.455800
     33 H10         3.1810    2.1430   -3.3130 ha        1 0MY      0.151000
     34 H9          5.5700    2.6850   -3.5950 ha        1 0MY      0.138500
     35 H12         3.9940    0.8110    0.7610 ha        1 0MY      0.151000
     36 H13         6.3750    1.3350    0.4330 ha        1 0MY      0.138500
     37 H4          7.7690    3.2320    0.2050 ha        1 0MY      0.142000
     38 HN3        11.3120    4.6870    1.6090 hn        1 0MY      0.396800
     39 HN3A        9.8190    3.9530    1.6550 hn        1 0MY      0.396800
     40 HN1        12.1490    3.6150   -2.8220 hn        1 0MY      0.295700
     41 H3         10.0210    2.0570   -4.1690 ha        1 0MY      0.143000
     42 H2          7.6110    1.5540   -3.7910 ha        1 0MY      0.137000
@<TRIPOS>BOND
     1    1    2 2   
     2    2    3 2   
     3    2    4 1   
     4    2   11 1   
     5    4    5 ar  
     6    4   10 ar  
     7    5    6 ar  
     8    5   28 1   
     9    6    7 1   
    10    6    8 ar  
    11    8    9 ar  
    12    8   29 1   
    13    9   10 ar  
    14    9   30 1   
    15   10   31 1   
    16   11   12 1   
    17   11   32 1   
    18   12   13 ar  
    19   12   15 ar  
    20   13   14 ar  
    21   13   33 1   
    22   14   17 ar  
    23   14   34 1   
    24   15   16 ar  
    25   15   35 1   
    26   16   17 ar  
    27   16   36 1   
    28   17   18 1   
    29   18   19 ar  
    30   18   27 ar  
    31   19   20 ar  
    32   19   37 1   
    33   20   21 1   
    34   20   24 ar  
    35   21   22 1   
    36   21   23 2   
    37   22   38 1   
    38   22   39 1   
    39   23   25 1   
    40   24   25 1   
    41   24   26 ar  
    42   25   40 1   
    43   26   27 ar  
    44   26   41 1   
    45   27   42 1   
@<TRIPOS>SUBSTRUCTURE
     1 0MY         1 TEMP              0 ****  ****    0 ROOT
