@<TRIPOS>MOLECULE
0MY
   44    46     1     0     0
SMALL
bcc


@<TRIPOS>ATOM
      1 O2          2.5800   -1.0580    0.5850 o         1 0MY     -0.428900
      2 S1          2.7140   -1.7190   -0.5960 s4        1 0MY      1.664300
      3 O1          3.8640   -2.3200   -0.9970 o         1 0MY     -0.428900
      4 C14         1.3890   -2.1380   -1.3330 ca        1 0MY     -0.587500
      5 C17         1.4250   -2.9760   -2.4750 ca        1 0MY      0.009000
      6 C18         0.2520   -3.3950   -3.0960 ca        1 0MY     -0.015600
      7 CL1         0.3270   -4.3910   -4.4540 cl        1 0MY      0.007600
      8 C19        -0.9960   -2.9920   -2.5870 ca        1 0MY      0.026000
      9 C16        -1.0500   -2.1660   -1.4610 ca        1 0MY     -0.138000
     10 C15         0.1180   -1.7460   -0.8450 ca        1 0MY      0.019000
     11 N4          2.9910    0.2170   -1.8310 nh        1 0MY     -0.878200
     12 C11         4.3110    0.7630   -1.6630 ca        1 0MY      0.008600
     13 C10         5.3220    0.4900   -2.6040 ca        1 0MY     -0.117000
     14 C9          6.6120    0.9720   -2.4000 ca        1 0MY     -0.091000
     15 C12         4.6120    1.5530   -0.5360 ca        1 0MY     -0.117000
     16 C13         5.9040    2.0340   -0.3480 ca        1 0MY     -0.091000
     17 C8          6.9180    1.7450   -1.2710 cp        1 0MY     -0.035000
     18 C1          8.2850    2.2250   -1.0590 cp        1 0MY     -0.017000
     19 C4          8.5220    3.5460   -0.6830 ca        1 0MY     -0.089000
     20 C6          9.8440    3.9560   -0.5020 ca        1 0MY     -0.168900
     21 C5         10.5360    5.1860   -0.1400 cc        1 0MY      0.280800
     22 N3          9.9150    6.4540    0.1610 n4        1 0MY     -0.724600
     23 N2         11.9020    4.9820   -0.1190 nd        1 0MY     -0.414100
     24 C7         10.9260    3.0190   -0.6930 ca        1 0MY     -0.048200
     25 N1         12.1180    3.7290   -0.4390 na        1 0MY      0.061900
     26 C3         10.6800    1.6880   -1.0660 ca        1 0MY     -0.089000
     27 C2          9.3600    1.3170   -1.2460 ca        1 0MY     -0.080000
     28 H17         2.4040   -3.3150   -2.8670 ha        1 0MY      0.182000
     29 H19        -1.9310   -3.3320   -3.0740 ha        1 0MY      0.195000
     30 H16        -2.0300   -1.8550   -1.0580 ha        1 0MY      0.189000
     31 H15         0.0600   -1.1040    0.0560 ha        1 0MY      0.175000
     32 HN4         2.8170    0.0250   -2.8060 hn        1 0MY      0.413800
     33 H10         5.1120   -0.1090   -3.5060 ha        1 0MY      0.158000
     34 H9          7.3960    0.7450   -3.1420 ha        1 0MY      0.158000
     35 H12         3.8360    1.7900    0.2120 ha        1 0MY      0.158000
     36 H13         6.1290    2.6360    0.5470 ha        1 0MY      0.158000
     37 H4          7.6860    4.2450   -0.5410 ha        1 0MY      0.142000
     38 HN3         9.9930    6.6520    1.1690 hn        1 0MY      0.473800
     39 HN3A        8.9260    6.3990   -0.1050 hn        1 0MY      0.473800
     40 HN1        13.0560    3.3740   -0.4820 hn        1 0MY      0.373700
     41 H3         11.5040    0.9720   -1.2090 ha        1 0MY      0.178000
     42 H2          9.1290    0.2770   -1.5360 ha        1 0MY      0.167000
     43 H42         2.3050    0.8810   -1.5020 hn        1 0MY      0.413800
     44 H33        10.3720    7.2120   -0.3650 hn        1 0MY      0.473800
@<TRIPOS>BOND
     1    1    2 1   
     2    2    3 1   
     3    2    4 1   
     4    4    5 ar  
     5    4   10 ar  
     6    5    6 ar  
     7    5   28 1   
     8    6    7 1   
     9    6    8 ar  
    10    8    9 ar  
    11    8   29 1   
    12    9   10 ar  
    13    9   30 1   
    14   10   31 1   
    15   11   12 1   
    16   11   32 1   
    17   11   43 1   
    18   12   13 ar  
    19   12   15 ar  
    20   13   14 ar  
    21   13   33 1   
    22   14   17 ar  
    23   14   34 1   
    24   15   16 ar  
    25   15   35 1   
    26   16   17 ar  
    27   16   36 1   
    28   17   18 1   
    29   18   19 ar  
    30   18   27 ar  
    31   19   20 ar  
    32   19   37 1   
    33   20   21 1   
    34   20   24 ar  
    35   21   22 1   
    36   21   23 2   
    37   22   38 1   
    38   22   39 1   
    39   22   44 1   
    40   23   25 1   
    41   24   25 1   
    42   24   26 ar  
    43   25   40 1   
    44   26   27 ar  
    45   26   41 1   
    46   27   42 1   
@<TRIPOS>SUBSTRUCTURE
     1 0MY         1 TEMP              0 ****  ****    0 ROOT
