@<TRIPOS>MOLECULE
0MY
   42    33     1     0     0
SMALL
bcc


@<TRIPOS>ATOM
      1 O2         -2.7840   -1.4700    2.3510 o         1 0MY     -0.928000
      2 S1         -3.1740   -1.6280    0.9770 ss        1 0MY      2.868000
      3 O1         -2.5790   -2.8960    0.6610 o         1 0MY     -0.928000
      4 C14        -4.9380   -1.6870    0.8130 c1        1 0MY     -0.822000
      5 C17        -5.5280   -2.6760    0.0430 c1        1 0MY     -0.016000
      6 C18        -6.9090   -2.7650   -0.0300 c1        1 0MY     -0.092000
      7 CL1        -7.6530   -4.0240   -0.9800 cl        1 0MY      0.004000
      8 C19        -7.7000   -1.8640    0.6660 c1        1 0MY     -0.060000
      9 C16        -7.1100   -0.8750    1.4360 c1        1 0MY     -0.148000
     10 C15        -5.7290   -0.7860    1.5090 c2        1 0MY     -0.013000
     11 N4         -2.5560   -0.4300    0.0420 n2        1 0MY     -0.829000
     12 C11        -1.1520   -0.2520   -0.0460 c2        1 0MY      0.088000
     13 C10        -0.5350   -0.2200   -1.2870 c2        1 0MY     -0.170000
     14 C9          0.8240    0.0380   -1.3790 c1        1 0MY     -0.093000
     15 C12        -0.4090   -0.0260    1.1030 c1        1 0MY     -0.181000
     16 C13         0.9490    0.2320    1.0110 c1        1 0MY     -0.087000
     17 C8          1.5660    0.2640   -0.2300 c1        1 0MY     -0.058000
     18 C1          3.0500    0.5470   -0.3310 c2        1 0MY     -0.066000
     19 C4          3.5860    1.8020   -0.5670 c2        1 0MY     -0.051000
     20 C6          4.9830    1.9670   -0.6460 c1        1 0MY     -0.140000
     21 C5          5.7730    3.0790   -0.8770 c1        1 0MY      0.017000
     22 N3          5.8560    4.4710   -1.1440 n2        1 0MY     -0.286000
     23 N2          7.0680    2.6830   -0.8600 n2        1 0MY     -0.121000
     24 C7          5.8050    0.8940   -0.4890 c1        1 0MY     -0.006000
     25 N1          7.0960    1.3280   -0.6210 n1        1 0MY     -0.168000
     26 C3          5.2590   -0.3820   -0.2490 c1        1 0MY     -0.140000
     27 C2          3.8860   -0.5440   -0.1720 c1        1 0MY     -0.084000
     28 H17        -4.9720   -3.2980   -0.4630 ha        1 0MY      0.172000
     29 H19        -8.6730   -1.9270    0.6140 ha        1 0MY      0.154000
     30 H16        -7.6670   -0.2400    1.9260 ha        1 0MY      0.150000
     31 H15        -5.3130   -0.0880    2.0510 ha        1 0MY      0.161000
     32 HN4        -3.1150    0.1060   -0.4410 hn        1 0MY      0.246000
     33 H10        -1.0570   -0.3790   -2.0960 ha        1 0MY      0.133000
     34 H9          1.2590    0.0610   -2.2530 ha        1 0MY      0.139000
     35 H12        -0.8440   -0.0480    1.9760 ha        1 0MY      0.168000
     36 H13         1.4720    0.3910    1.8190 ha        1 0MY      0.141000
     37 H4          2.9970    2.5720   -0.6800 ha        1 0MY      0.140000
     38 HN3         5.1030    4.9880   -1.1150 hn        1 0MY      0.190000
     39 HN3A        6.6610    4.8480   -1.3570 hn        1 0MY      0.190000
     40 HN1         7.8450    0.8100   -0.5600 DU        1 0MY      0.246000
     41 H3          5.8480   -1.1520   -0.1370 ha        1 0MY      0.143000
     42 H2          3.5080   -1.4260    0.0100 ha        1 0MY      0.140000
@<TRIPOS>BOND
     1    1    2 1   
     2    2    3 1   
     3    4    5 1   
     4    4   10 1   
     5    5   28 1   
     6    6    7 1   
     7    6    8 1   
     8    8   29 1   
     9    9   10 1   
    10    9   30 1   
    11   10   31 1   
    12   11   12 1   
    13   11   32 1   
    14   12   13 1   
    15   12   15 1   
    16   13   14 1   
    17   13   33 1   
    18   14   34 1   
    19   15   35 1   
    20   16   17 1   
    21   16   36 1   
    22   17   18 1   
    23   18   19 1   
    24   18   27 1   
    25   19   20 1   
    26   19   37 1   
    27   21   23 1   
    28   22   38 1   
    29   22   39 1   
    30   23   25 1   
    31   24   26 1   
    32   26   41 1   
    33   27   42 1   
@<TRIPOS>SUBSTRUCTURE
     1 0MY         1 TEMP              0 ****  ****    0 ROOT
