@<TRIPOS>MOLECULE
0MY
   42    45     1     0     0
SMALL
bcc


@<TRIPOS>ATOM
      1 O2         -0.0790    0.2910   -0.2870 o         1 0MY     -0.646300
      2 S1          1.3110    0.0700   -0.1730 sy        1 0MY      1.516200
      3 O1          1.8660    0.1190    1.1180 o         1 0MY     -0.646300
      4 C14         1.6760   -1.4310   -0.8580 ca        1 0MY     -0.376500
      5 C17         2.8360   -2.1200   -0.4890 ca        1 0MY     -0.007000
      6 C18         3.1170   -3.3720   -1.0410 ca        1 0MY     -0.011600
      7 CL1         4.5300   -4.1970   -0.5870 cl        1 0MY     -0.076400
      8 C19         2.2400   -3.9520   -1.9640 ca        1 0MY     -0.061000
      9 C16         1.0790   -3.2700   -2.3270 ca        1 0MY     -0.148000
     10 C15         0.8010   -2.0210   -1.7770 ca        1 0MY     -0.018000
     11 N4          2.0360    1.1270   -1.1800 nh        1 0MY     -0.774500
     12 C11         3.4030    1.4210   -1.3150 ca        1 0MY      0.167600
     13 C10         3.8950    1.9360   -2.5360 ca        1 0MY     -0.175000
     14 C9          5.2430    2.2350   -2.6830 ca        1 0MY     -0.093000
     15 C12         4.3110    1.2270   -0.2510 ca        1 0MY     -0.175000
     16 C13         5.6580    1.5260   -0.4170 ca        1 0MY     -0.093000
     17 C8          6.1450    2.0320   -1.6300 cp        1 0MY     -0.054000
     18 C1          7.5630    2.3470   -1.7900 cp        1 0MY     -0.069000
     19 C4          8.2620    2.9710   -0.7520 ca        1 0MY     -0.048000
     20 C6          9.6080    3.2510   -0.9350 ca        1 0MY     -0.224900
     21 C5         10.6750    3.8780   -0.1240 cc        1 0MY      0.543800
     22 N3         10.5040    4.2820    1.1970 nh        1 0MY     -0.849800
     23 N2         11.8360    3.9010   -0.8410 nd        1 0MY     -0.589100
     24 C7         10.2690    2.9120   -2.1680 ca        1 0MY     -0.050200
     25 N1         11.5900    3.4110   -2.0790 na        1 0MY      0.006900
     26 C3          9.5640    2.2920   -3.2060 ca        1 0MY     -0.142000
     27 C2          8.2200    2.0180   -2.9970 ca        1 0MY     -0.085000
     28 H17         3.5240   -1.6710    0.2520 ha        1 0MY      0.167000
     29 H19         2.4620   -4.9390   -2.3980 ha        1 0MY      0.153000
     30 H16         0.3800   -3.7230   -3.0460 ha        1 0MY      0.148000
     31 H15        -0.1300   -1.4930   -2.0530 ha        1 0MY      0.159000
     32 HN4         1.4730    1.6170   -1.8430 hn        1 0MY      0.455800
     33 H10         3.2120    2.1110   -3.3810 ha        1 0MY      0.151000
     34 H9          5.6050    2.6440   -3.6390 ha        1 0MY      0.140000
     35 H12         3.9660    0.8480    0.7270 ha        1 0MY      0.151000
     36 H13         6.3530    1.3600    0.4220 ha        1 0MY      0.140000
     37 H4          7.7550    3.2360    0.1880 ha        1 0MY      0.142000
     38 HN3         9.6000    4.6740    1.3560 hn        1 0MY      0.396800
     39 HN3A       11.2420    4.8500    1.5570 hn        1 0MY      0.396800
     40 HN1        12.3510    2.9270   -2.5100 hn        1 0MY      0.295700
     41 H3         10.0560    2.0300   -4.1520 ha        1 0MY      0.143000
     42 H2          7.6440    1.5170   -3.7920 ha        1 0MY      0.137000
@<TRIPOS>BOND
     1    1    2 2   
     2    2    3 2   
     3    2    4 1   
     4    2   11 1   
     5    4    5 ar  
     6    4   10 ar  
     7    5    6 ar  
     8    5   28 1   
     9    6    7 1   
    10    6    8 ar  
    11    8    9 ar  
    12    8   29 1   
    13    9   10 ar  
    14    9   30 1   
    15   10   31 1   
    16   11   12 1   
    17   11   32 1   
    18   12   13 ar  
    19   12   15 ar  
    20   13   14 ar  
    21   13   33 1   
    22   14   17 ar  
    23   14   34 1   
    24   15   16 ar  
    25   15   35 1   
    26   16   17 ar  
    27   16   36 1   
    28   17   18 1   
    29   18   19 ar  
    30   18   27 ar  
    31   19   20 ar  
    32   19   37 1   
    33   20   21 1   
    34   20   24 ar  
    35   21   22 1   
    36   21   23 2   
    37   22   38 1   
    38   22   39 1   
    39   23   25 1   
    40   24   25 1   
    41   24   26 ar  
    42   25   40 1   
    43   26   27 ar  
    44   26   41 1   
    45   27   42 1   
@<TRIPOS>SUBSTRUCTURE
     1 0MY         1 TEMP              0 ****  ****    0 ROOT
