@<TRIPOS>MOLECULE
0MY
   42    45     1     0     0
SMALL
bcc


@<TRIPOS>ATOM
      1 O2          4.7470    2.5590    0.1440 o         1 0MY     -0.646300
      2 S1          3.6650    1.7530   -0.2720 sy        1 0MY      1.516200
      3 O1          3.1970    1.9340   -1.5860 o         1 0MY     -0.646300
      4 C14         4.0930    0.1310   -0.0730 ca        1 0MY     -0.376500
      5 C17         3.4520   -0.8720   -0.8090 ca        1 0MY     -0.007000
      6 C18         3.8300   -2.2070   -0.6570 ca        1 0MY     -0.011600
      7 CL1         3.0410   -3.4140   -1.5540 cl        1 0MY     -0.077400
      8 C19         4.8550   -2.5570    0.2290 ca        1 0MY     -0.061000
      9 C16         5.5010   -1.5580    0.9570 ca        1 0MY     -0.148000
     10 C15         5.1220   -0.2260    0.8060 ca        1 0MY     -0.018000
     11 N4          2.4760    1.9640    0.8240 nh        1 0MY     -0.774500
     12 C11         1.1470    1.5150    0.7770 ca        1 0MY      0.166600
     13 C10         0.4310    1.3060    1.9780 ca        1 0MY     -0.174000
     14 C9         -0.8860    0.8670    1.9480 ca        1 0MY     -0.093000
     15 C12         0.4880    1.2740   -0.4490 ca        1 0MY     -0.174000
     16 C13        -0.8290    0.8290   -0.4600 ca        1 0MY     -0.093000
     17 C8         -1.5350    0.6180    0.7320 cp        1 0MY     -0.052000
     18 C1         -2.9200    0.1540    0.7060 cp        1 0MY     -0.070000
     19 C4         -3.8170    0.6790   -0.2300 ca        1 0MY     -0.048000
     20 C6         -5.1260    0.2220   -0.2220 ca        1 0MY     -0.224900
     21 C5         -6.3480    0.5070   -1.0060 cc        1 0MY      0.544800
     22 N3         -6.4270    1.4960   -1.9820 nh        1 0MY     -0.849800
     23 N2         -7.3700   -0.2760   -0.5530 nd        1 0MY     -0.589100
     24 C7         -5.5490   -0.7800    0.7210 ca        1 0MY     -0.049200
     25 N1         -6.8920   -1.0990    0.4090 na        1 0MY      0.006900
     26 C3         -4.6460   -1.3090    1.6500 ca        1 0MY     -0.142000
     27 C2         -3.3450   -0.8270    1.6290 ca        1 0MY     -0.085000
     28 H17         2.6510   -0.5960   -1.5200 ha        1 0MY      0.167000
     29 H19         5.1530   -3.6110    0.3480 ha        1 0MY      0.153000
     30 H16         6.3140   -1.8250    1.6500 ha        1 0MY      0.148000
     31 H15         5.6490    0.5630    1.3710 ha        1 0MY      0.159000
     32 HN4         2.6940    2.4260    1.6810 hn        1 0MY      0.455800
     33 H10         0.9100    1.4980    2.9510 ha        1 0MY      0.151000
     34 H9         -1.4280    0.7190    2.8950 ha        1 0MY      0.138500
     35 H12         1.0020    1.4450   -1.4110 ha        1 0MY      0.151000
     36 H13        -1.3230    0.6390   -1.4260 ha        1 0MY      0.138500
     37 H4         -3.4930    1.4470   -0.9490 ha        1 0MY      0.142000
     38 HN3        -5.5840    1.5720   -2.5110 hn        1 0MY      0.396800
     39 HN3A       -7.2430    1.4520   -2.5550 hn        1 0MY      0.396800
     40 HN1        -7.5400   -1.3460    1.1280 hn        1 0MY      0.295700
     41 H3         -4.9540   -2.0800    2.3690 ha        1 0MY      0.143000
     42 H2         -2.6130   -1.2260    2.3500 ha        1 0MY      0.137000
@<TRIPOS>BOND
     1    1    2 2   
     2    2    3 2   
     3    2    4 1   
     4    2   11 1   
     5    4    5 ar  
     6    4   10 ar  
     7    5    6 ar  
     8    5   28 1   
     9    6    7 1   
    10    6    8 ar  
    11    8    9 ar  
    12    8   29 1   
    13    9   10 ar  
    14    9   30 1   
    15   10   31 1   
    16   11   12 1   
    17   11   32 1   
    18   12   13 ar  
    19   12   15 ar  
    20   13   14 ar  
    21   13   33 1   
    22   14   17 ar  
    23   14   34 1   
    24   15   16 ar  
    25   15   35 1   
    26   16   17 ar  
    27   16   36 1   
    28   17   18 1   
    29   18   19 ar  
    30   18   27 ar  
    31   19   20 ar  
    32   19   37 1   
    33   20   21 1   
    34   20   24 ar  
    35   21   22 1   
    36   21   23 2   
    37   22   38 1   
    38   22   39 1   
    39   23   25 1   
    40   24   25 1   
    41   24   26 ar  
    42   25   40 1   
    43   26   27 ar  
    44   26   41 1   
    45   27   42 1   
@<TRIPOS>SUBSTRUCTURE
     1 0MY         1 TEMP              0 ****  ****    0 ROOT
