@<TRIPOS>MOLECULE
0MZ
   45    37     1     0     0
SMALL
bcc


@<TRIPOS>ATOM
      1 F28        -7.1790   -1.1900    2.7850 f         1 0MZ     -0.166000
      2 C27        -6.6850   -1.6970    3.9020 c3        1 0MZ      0.465000
      3 F30        -6.3280   -0.6960    4.7330 f         1 0MZ     -0.166000
      4 F29        -7.6070   -2.4530    4.4920 f         1 0MZ     -0.166000
      5 C25        -5.4670   -2.5370    3.5750 c1        1 0MZ     -0.132000
      6 C26        -4.2610   -1.9090    3.2280 c1        1 0MZ     -0.142000
      7 C24        -5.5650   -3.9050    3.5430 c1        1 0MZ     -0.125333
      8 C23        -4.4740   -4.6650    3.1670 c1        1 0MZ     -0.125333
      9 C22        -3.2720   -4.0430    2.8210 c1        1 0MZ     -0.131000
     10 C21        -3.1720   -2.6710    2.8530 c1        1 0MZ      0.077000
     11 N18        -1.8960   -2.0360    2.6070 n         1 0MZ     -0.325000
     12 C17        -1.4920   -1.7580    1.2840 c2        1 0MZ      0.309000
     13 O19        -2.2240   -2.0560    0.3440 o         1 0MZ     -0.339000
     14 C16        -0.1200   -1.0650    1.0200 c3        1 0MZ     -0.175000
     15 C13        -0.3180    0.0960    0.1120 c3        1 0MZ     -0.224000
     16 C14         0.0340    1.3840    0.8270 c2        1 0MZ      0.111000
     17 O20        -0.1440    1.4890    2.2300 oh        1 0MZ     -0.249000
     18 N15         1.0340    2.2100    0.1560 n1        1 0MZ     -0.200000
     19 C11         1.5770    1.6540   -0.9870 c1        1 0MZ     -0.122000
     20 S12         0.8680    0.0940   -1.0950 s         1 0MZ      0.215000
     21 N10         2.4360    2.1950   -1.8030 n1        1 0MZ     -0.064000
     22 N9          2.8950    3.4470   -1.5700 n1        1 0MZ     -0.096000
     23 C8          3.9190    3.9080   -2.2540 c1        1 0MZ     -0.002000
     24 C6          4.5990    3.0190   -3.3190 c1        1 0MZ     -0.129000
     25 C5          5.6030    2.1290   -2.9430 c1        1 0MZ     -0.125333
     26 C4          6.3010    1.4060   -3.9230 c1        1 0MZ     -0.125333
     27 C3          5.9900    1.5770   -5.2720 c1        1 0MZ     -0.125333
     28 C2          4.9890    2.4640   -5.6450 c1        1 0MZ     -0.125333
     29 C1          4.2890    3.1900   -4.6630 c1        1 0MZ      0.106000
     30 O1          3.3800    4.1100   -5.0290 oh        1 0MZ     -0.250000
     31 H26        -4.1910   -0.9160    3.2510 ha        1 0MZ      0.148000
     32 H24        -6.3690   -4.3230    3.7720 ha        1 0MZ      0.144333
     33 H23        -4.5420   -5.6240    3.1440 ha        1 0MZ      0.144333
     34 H22        -2.5210   -4.5690    2.5630 ha        1 0MZ      0.181000
     35 H1         -1.2780   -1.9290    3.3190 hn        1 0MZ      0.249000
     36 H161        0.5240   -1.7340    0.5830 hc        1 0MZ      0.140000
     37 H162        0.2460   -0.7640    1.8420 hc        1 0MZ      0.140000
     38 H13        -1.2240   -0.0290   -0.1550 h1        1 0MZ      0.161000
     39 HO20       -0.4200    2.3130    2.4320 ho        1 0MZ      0.261000
     40 H8          4.2550    4.8200   -2.0850 ha        1 0MZ      0.175000
     41 H5          5.8280    2.0050   -1.9660 ha        1 0MZ      0.144333
     42 H4          7.0150    0.7730   -3.6550 ha        1 0MZ      0.144333
     43 H3          6.4800    1.0690   -5.9590 ha        1 0MZ      0.144333
     44 H2          4.7620    2.5900   -6.6270 ha        1 0MZ      0.144333
     45 HO1         3.7230    4.6280   -5.6320 ho        1 0MZ      0.224000
@<TRIPOS>BOND
     1    1    2 1   
     2    2    3 1   
     3    2    4 1   
     4    2    5 1   
     5    5    6 1   
     6    6   31 1   
     7    7    8 1   
     8    7   32 1   
     9    8   33 1   
    10    9   10 1   
    11    9   34 1   
    12   10   11 1   
    13   11   12 1   
    14   11   35 1   
    15   12   13 1   
    16   12   14 1   
    17   14   15 1   
    18   14   36 1   
    19   14   37 1   
    20   15   16 1   
    21   15   20 1   
    22   15   38 1   
    23   16   17 1   
    24   16   18 1   
    25   17   39 1   
    26   19   21 1   
    27   22   23 1   
    28   23   40 1   
    29   24   29 1   
    30   25   26 1   
    31   25   41 1   
    32   26   42 1   
    33   27   28 1   
    34   27   43 1   
    35   28   44 1   
    36   29   30 1   
    37   30   45 1   
@<TRIPOS>SUBSTRUCTURE
     1 0MZ         1 TEMP              0 ****  ****    0 ROOT
