@<TRIPOS>MOLECULE
0MZ
   45    47     1     0     0
SMALL
bcc


@<TRIPOS>ATOM
      1 F28         5.8380    2.2610   -3.0640 f         1 0MZ     -0.241300
      2 C27         4.6430    2.5950   -3.6550 c3        1 0MZ      0.690200
      3 F30         4.9920    3.5780   -4.5550 f         1 0MZ     -0.241300
      4 F29         4.3480    1.5160   -4.4490 f         1 0MZ     -0.241300
      5 C25         3.5470    2.9940   -2.6750 ca        1 0MZ     -0.144300
      6 C26         3.5100    4.3000   -2.1960 ca        1 0MZ     -0.138000
      7 C24         2.6120    2.0440   -2.2640 ca        1 0MZ     -0.109000
      8 C23         1.6270    2.4180   -1.3520 ca        1 0MZ     -0.109000
      9 C22         1.5700    3.7140   -0.8490 ca        1 0MZ     -0.125000
     10 C21         2.5150    4.6800   -1.2630 ca        1 0MZ      0.069600
     11 N18         2.5290    5.9950   -0.7720 ns        1 0MZ     -0.469100
     12 C17         1.5050    6.6420   -0.0970 c         1 0MZ      0.666100
     13 O19         0.4360    6.0930    0.2200 o         1 0MZ     -0.579100
     14 C16         1.7660    8.0920    0.2930 c3        1 0MZ     -0.147400
     15 C13         1.8020    9.0150   -0.9000 c3        1 0MZ     -0.058900
     16 C14         1.9560   10.4670   -0.4760 c2        1 0MZ      0.616600
     17 O20         0.9430   10.9320    0.3050 oh        1 0MZ     -0.553600
     18 N15         2.9910   11.1810   -0.8550 ne        1 0MZ     -0.675000
     19 C11         3.8850   10.4190   -1.6590 ce        1 0MZ      0.632200
     20 S12         3.2250    8.7770   -1.9690 ss        1 0MZ     -0.360300
     21 N10         5.0390   10.8880   -2.0800 nf        1 0MZ     -0.305700
     22 N9          5.9670   10.2500   -2.7420 nf        1 0MZ     -0.384700
     23 C8          5.8560    9.1060   -3.3790 ce        1 0MZ      0.469800
     24 C6          6.9850    8.4940   -4.0760 ca        1 0MZ     -0.186900
     25 C5          8.1620    9.1940   -4.3720 ca        1 0MZ     -0.047000
     26 C4          9.2060    8.5750   -5.0560 ca        1 0MZ     -0.176000
     27 C3          9.0940    7.2420   -5.4530 ca        1 0MZ     -0.067000
     28 C2          7.9400    6.5190   -5.1670 ca        1 0MZ     -0.220000
     29 C1          6.8890    7.1410   -4.4780 ca        1 0MZ      0.154100
     30 O1          5.7370    6.4650   -4.1510 oh        1 0MZ     -0.515100
     31 H26         4.2590    5.0270   -2.5570 ha        1 0MZ      0.156000
     32 H24         2.6520    1.0170   -2.6590 ha        1 0MZ      0.153000
     33 H23         0.8810    1.6790   -1.0220 ha        1 0MZ      0.147000
     34 H22         0.7770    3.9790   -0.1280 ha        1 0MZ      0.179000
     35 H1          3.3210    6.5490   -1.0400 hn        1 0MZ      0.338500
     36 H161        2.7200    8.1610    0.8790 hc        1 0MZ      0.097700
     37 H162        0.9230    8.4120    0.9700 hc        1 0MZ      0.097700
     38 H13         0.8680    8.8980   -1.5110 h1        1 0MZ      0.130700
     39 HO20        1.0990   11.8670    0.5320 ho        1 0MZ      0.459000
     40 H8          4.9130    8.5100   -3.4690 h4        1 0MZ      0.013800
     41 H5          8.2610   10.2480   -4.0640 ha        1 0MZ      0.162000
     42 H4         10.1210    9.1410   -5.2820 ha        1 0MZ      0.141000
     43 H3          9.9210    6.7570   -5.9940 ha        1 0MZ      0.138000
     44 H2          7.8480    5.4670   -5.4740 ha        1 0MZ      0.143000
     45 HO1         5.7740    5.5860   -4.5630 ho        1 0MZ      0.439000
@<TRIPOS>BOND
     1    1    2 1   
     2    2    3 1   
     3    2    4 1   
     4    2    5 1   
     5    5    6 ar  
     6    5    7 ar  
     7    6   10 ar  
     8    6   31 1   
     9    7    8 ar  
    10    7   32 1   
    11    8    9 ar  
    12    8   33 1   
    13    9   10 ar  
    14    9   34 1   
    15   10   11 1   
    16   11   12 1   
    17   11   35 1   
    18   12   13 2   
    19   12   14 1   
    20   14   15 1   
    21   14   36 1   
    22   14   37 1   
    23   15   16 1   
    24   15   20 1   
    25   15   38 1   
    26   16   17 1   
    27   16   18 2   
    28   17   39 1   
    29   18   19 1   
    30   19   20 1   
    31   19   21 2   
    32   21   22 1   
    33   22   23 2   
    34   23   24 1   
    35   23   40 1   
    36   24   25 ar  
    37   24   29 ar  
    38   25   26 ar  
    39   25   41 1   
    40   26   27 ar  
    41   26   42 1   
    42   27   28 ar  
    43   27   43 1   
    44   28   29 ar  
    45   28   44 1   
    46   29   30 1   
    47   30   45 1   
@<TRIPOS>SUBSTRUCTURE
     1 0MZ         1 TEMP              0 ****  ****    0 ROOT
