@<TRIPOS>MOLECULE
0MZ
   45    47     1     0     0
SMALL
bcc


@<TRIPOS>ATOM
      1 F28         5.7460    2.2430   -3.1500 f         1 0MZ     -0.241300
      2 C27         4.5550    2.6110   -3.7290 c3        1 0MZ      0.690200
      3 F30         4.9190    3.6020   -4.6130 f         1 0MZ     -0.241300
      4 F29         4.2340    1.5510   -4.5400 f         1 0MZ     -0.241300
      5 C25         3.4710    3.0130   -2.7370 ca        1 0MZ     -0.144300
      6 C26         3.4630    4.3110   -2.2340 ca        1 0MZ     -0.138000
      7 C24         2.5190    2.0750   -2.3380 ca        1 0MZ     -0.109000
      8 C23         1.5460    2.4530   -1.4150 ca        1 0MZ     -0.109000
      9 C22         1.5180    3.7400   -0.8880 ca        1 0MZ     -0.125000
     10 C21         2.4800    4.6940   -1.2890 ca        1 0MZ      0.069600
     11 N18         2.5240    6.0000   -0.7750 n         1 0MZ     -0.469100
     12 C17         1.5170    6.6550   -0.0830 c         1 0MZ      0.666100
     13 O19         0.4380    6.1210    0.2310 o         1 0MZ     -0.579100
     14 C16         1.8090    8.0920    0.3320 c3        1 0MZ     -0.147400
     15 C13         1.8570    9.0350   -0.8440 c3        1 0MZ     -0.058900
     16 C14         2.0430   10.4760   -0.3940 c2        1 0MZ      0.616600
     17 O20         1.0440   10.9470    0.4010 oh        1 0MZ     -0.553600
     18 N15         3.0900   11.1760   -0.7670 ne        1 0MZ     -0.675000
     19 C11         3.9640   10.4110   -1.5900 ce        1 0MZ      0.632200
     20 S12         3.2690    8.7890   -1.9260 ss        1 0MZ     -0.360300
     21 N10         5.1230   10.8650   -2.0100 nf        1 0MZ     -0.305700
     22 N9          6.0350   10.2210   -2.6900 nf        1 0MZ     -0.384700
     23 C8          5.8980    9.0910   -3.3450 ce        1 0MZ      0.469800
     24 C6          7.0100    8.4700   -4.0610 ca        1 0MZ     -0.186900
     25 C5          8.1980    9.1530   -4.3550 ca        1 0MZ     -0.047000
     26 C4          9.2250    8.5260   -5.0570 ca        1 0MZ     -0.176000
     27 C3          9.0850    7.2030   -5.4760 ca        1 0MZ     -0.067000
     28 C2          7.9200    6.4960   -5.1930 ca        1 0MZ     -0.220000
     29 C1          6.8850    7.1260   -4.4860 ca        1 0MZ      0.154100
     30 O1          5.7230    6.4660   -4.1620 oh        1 0MZ     -0.515100
     31 H26         4.2250    5.0300   -2.5850 ha        1 0MZ      0.156000
     32 H24         2.5370    1.0550   -2.7510 ha        1 0MZ      0.153000
     33 H23         0.7870    1.7230   -1.0940 ha        1 0MZ      0.147000
     34 H22         0.7340    4.0080   -0.1580 ha        1 0MZ      0.179000
     35 H1          3.3250    6.5420   -1.0380 hn        1 0MZ      0.338500
     36 H161        2.7680    8.1310    0.9140 hc        1 0MZ      0.097700
     37 H162        0.9770    8.4160    1.0200 hc        1 0MZ      0.097700
     38 H13         0.9180    8.9490   -1.4510 h1        1 0MZ      0.130700
     39 HO20        1.2200   11.8750    0.6450 ho        1 0MZ      0.459000
     40 H8          4.9430    8.5150   -3.4390 h4        1 0MZ      0.013800
     41 H5          8.3190   10.1990   -4.0290 ha        1 0MZ      0.162000
     42 H4         10.1490    9.0790   -5.2800 ha        1 0MZ      0.141000
     43 H3          9.8990    6.7110   -6.0310 ha        1 0MZ      0.138000
     44 H2          7.8060    5.4520   -5.5180 ha        1 0MZ      0.143000
     45 HO1         5.7410    5.5940   -4.5890 ho        1 0MZ      0.439000
@<TRIPOS>BOND
     1    1    2 1   
     2    2    3 1   
     3    2    4 1   
     4    2    5 1   
     5    5    6 ar  
     6    5    7 ar  
     7    6   10 ar  
     8    6   31 1   
     9    7    8 ar  
    10    7   32 1   
    11    8    9 ar  
    12    8   33 1   
    13    9   10 ar  
    14    9   34 1   
    15   10   11 1   
    16   11   12 1   
    17   11   35 1   
    18   12   13 2   
    19   12   14 1   
    20   14   15 1   
    21   14   36 1   
    22   14   37 1   
    23   15   16 1   
    24   15   20 1   
    25   15   38 1   
    26   16   17 1   
    27   16   18 2   
    28   17   39 1   
    29   18   19 1   
    30   19   20 1   
    31   19   21 2   
    32   21   22 1   
    33   22   23 2   
    34   23   24 1   
    35   23   40 1   
    36   24   25 ar  
    37   24   29 ar  
    38   25   26 ar  
    39   25   41 1   
    40   26   27 ar  
    41   26   42 1   
    42   27   28 ar  
    43   27   43 1   
    44   28   29 ar  
    45   28   44 1   
    46   29   30 1   
    47   30   45 1   
@<TRIPOS>SUBSTRUCTURE
     1 0MZ         1 TEMP              0 ****  ****    0 ROOT
