@<TRIPOS>MOLECULE
0MZ
   46    48     1     0     0
SMALL
bcc


@<TRIPOS>ATOM
      1 F28         1.7350    0.3240   -0.6870 f         1 0MZ     -0.218300
      2 C27         2.9650    0.7470   -1.1250 c3        1 0MZ      0.691200
      3 F30         3.8090    0.5260   -0.0650 f         1 0MZ     -0.218300
      4 F29         3.3390   -0.1700   -2.0720 f         1 0MZ     -0.218300
      5 C25         2.9700    2.1940   -1.6270 ca        1 0MZ     -0.153300
      6 C26         3.2300    3.2240   -0.7240 ca        1 0MZ     -0.047000
      7 C24         2.7000    2.4660   -2.9690 ca        1 0MZ     -0.029000
      8 C23         2.6900    3.7880   -3.4180 ca        1 0MZ     -0.113000
      9 C22         2.9480    4.8370   -2.5400 ca        1 0MZ     -0.073000
     10 C21         3.2230    4.5510   -1.1880 ca        1 0MZ     -0.054400
     11 N18         3.5110    5.6490   -0.2660 n4        1 0MZ     -0.571200
     12 C17         2.3290    6.0450    0.5960 c         1 0MZ      0.541100
     13 O19         1.5700    5.1680    0.9710 o         1 0MZ     -0.385100
     14 C16         2.2510    7.5070    0.9470 c3        1 0MZ     -0.149400
     15 C13         1.9020    8.4020   -0.2220 c3        1 0MZ     -0.075900
     16 C14         2.1280    9.8600    0.1670 c2        1 0MZ      0.626600
     17 O20         1.3190   10.2860    1.1710 oh        1 0MZ     -0.549600
     18 N15         3.0400   10.5850   -0.4330 ne        1 0MZ     -0.652000
     19 C11         3.7260    9.8610   -1.4420 ce        1 0MZ      0.719200
     20 S12         2.9580    8.2000   -1.6510 ss        1 0MZ     -0.405300
     21 N10         4.7270   10.3160   -2.1280 nf        1 0MZ     -0.329700
     22 N9          5.3510    9.5220   -3.0100 nf        1 0MZ     -0.452700
     23 C8          6.1490   10.0830   -3.8850 ce        1 0MZ      0.577800
     24 C6          6.9270    9.3030   -4.8480 ca        1 0MZ     -0.211900
     25 C5          8.2640    9.6860   -5.0590 ca        1 0MZ     -0.067000
     26 C4          9.0620    9.0130   -5.9750 ca        1 0MZ     -0.158000
     27 C3          8.5350    7.9490   -6.7150 ca        1 0MZ     -0.058000
     28 C2          7.2140    7.5600   -6.5360 ca        1 0MZ     -0.218000
     29 C1          6.4090    8.2310   -5.5980 ca        1 0MZ      0.165100
     30 O1          5.0970    7.8700   -5.3980 oh        1 0MZ     -0.494100
     31 H26         3.4290    2.9810    0.3350 ha        1 0MZ      0.174000
     32 H24         2.4990    1.6350   -3.6700 ha        1 0MZ      0.184000
     33 H23         2.4740    4.0060   -4.4770 ha        1 0MZ      0.175000
     34 H22         2.9380    5.8800   -2.9120 ha        1 0MZ      0.176000
     35 H1          3.8060    6.5050   -0.8270 hn        1 0MZ      0.479300
     36 H161        3.2240    7.8270    1.4140 hc        1 0MZ      0.125200
     37 H162        1.4490    7.6220    1.7380 hc        1 0MZ      0.125200
     38 H13         0.8320    8.2560   -0.5280 h1        1 0MZ      0.146700
     39 HO20        1.4620   11.2370    1.3480 ho        1 0MZ      0.479000
     40 H8          6.3180   11.1840   -3.9630 h4        1 0MZ      0.018800
     41 H5          8.6780   10.5300   -4.4860 ha        1 0MZ      0.147000
     42 H4         10.1080    9.3200   -6.1230 ha        1 0MZ      0.153000
     43 H3          9.1680    7.4220   -7.4460 ha        1 0MZ      0.150000
     44 H2          6.7920    6.7340   -7.1260 ha        1 0MZ      0.144000
     45 HO1         4.8420    7.2780   -6.1230 ho        1 0MZ      0.424000
     46 H182        4.2800    5.3660    0.3520 hn        1 0MZ      0.479300
@<TRIPOS>BOND
     1    1    2 1   
     2    2    3 1   
     3    2    4 1   
     4    2    5 1   
     5    5    6 ar  
     6    5    7 ar  
     7    6   10 ar  
     8    6   31 1   
     9    7    8 ar  
    10    7   32 1   
    11    8    9 ar  
    12    8   33 1   
    13    9   10 ar  
    14    9   34 1   
    15   10   11 1   
    16   11   12 1   
    17   11   35 1   
    18   11   46 1   
    19   12   13 2   
    20   12   14 1   
    21   14   15 1   
    22   14   36 1   
    23   14   37 1   
    24   15   16 1   
    25   15   20 1   
    26   15   38 1   
    27   16   17 1   
    28   16   18 2   
    29   17   39 1   
    30   18   19 1   
    31   19   20 1   
    32   19   21 2   
    33   21   22 1   
    34   22   23 2   
    35   23   24 1   
    36   23   40 1   
    37   24   25 ar  
    38   24   29 ar  
    39   25   26 ar  
    40   25   41 1   
    41   26   27 ar  
    42   26   42 1   
    43   27   28 ar  
    44   27   43 1   
    45   28   29 ar  
    46   28   44 1   
    47   29   30 1   
    48   30   45 1   
@<TRIPOS>SUBSTRUCTURE
     1 0MZ         1 TEMP              0 ****  ****    0 ROOT
