@<TRIPOS>MOLECULE
0MZ
   45    47     1     0     0
SMALL
bcc


@<TRIPOS>ATOM
      1 F28        -7.0560   -1.7350    1.6800 f         1 0MZ     -0.236633
      2 C27        -6.0080   -2.3690    1.0560 c3        1 0MZ      0.686200
      3 F30        -5.2190   -2.8060    2.0930 f         1 0MZ     -0.236633
      4 F29        -6.5660   -3.5180    0.5500 f         1 0MZ     -0.236633
      5 C25        -5.2850   -1.5080    0.0260 ca        1 0MZ     -0.139300
      6 C26        -4.2320   -0.6970    0.4410 ca        1 0MZ     -0.139000
      7 C24        -5.6960   -1.5330   -1.3070 ca        1 0MZ     -0.109000
      8 C23        -5.0360   -0.7260   -2.2310 ca        1 0MZ     -0.108000
      9 C22        -3.9830    0.0980   -1.8440 ca        1 0MZ     -0.127000
     10 C21        -3.5610    0.1250   -0.4970 ca        1 0MZ      0.067600
     11 N18        -2.5150    0.9390   -0.0300 n         1 0MZ     -0.464100
     12 C17        -1.6570    1.7220   -0.7880 c         1 0MZ      0.670100
     13 O19        -1.7340    1.8160   -2.0270 o         1 0MZ     -0.586100
     14 C16        -0.6210    2.5240   -0.0100 c3        1 0MZ     -0.141400
     15 C13         0.6820    2.6000   -0.7700 c3        1 0MZ     -0.062900
     16 C14         1.5230    3.7900   -0.3430 c2        1 0MZ      0.615600
     17 O20         0.9100    4.9970   -0.4930 oh        1 0MZ     -0.556600
     18 N15         2.7390    3.6300    0.1220 ne        1 0MZ     -0.686000
     19 C11         3.0930    2.2460    0.1640 ce        1 0MZ      0.655200
     20 S12         1.7670    1.2080   -0.4390 ss        1 0MZ     -0.286300
     21 N10         4.2680    1.8530    0.5830 nf        1 0MZ     -0.350700
     22 N9          4.5400    0.5670    0.7760 nf        1 0MZ     -0.458700
     23 C8          5.5180   -0.0430    0.1650 ce        1 0MZ      0.515800
     24 C6          5.9330   -1.4070    0.4930 ca        1 0MZ     -0.249900
     25 C5          6.8050   -2.0310   -0.4230 ca        1 0MZ     -0.069000
     26 C4          7.2660   -3.3210   -0.2160 ca        1 0MZ     -0.177000
     27 C3          6.8670   -4.0290    0.9250 ca        1 0MZ     -0.073000
     28 C2          6.0170   -3.4460    1.8470 ca        1 0MZ     -0.175000
     29 C1          5.5410   -2.1300    1.6360 ca        1 0MZ      0.193100
     30 O1          4.7120   -1.6780    2.6240 oh        1 0MZ     -0.498100
     31 H26        -3.9320   -0.7130    1.5010 ha        1 0MZ      0.149000
     32 H24        -6.5260   -2.1850   -1.6190 ha        1 0MZ      0.154000
     33 H23        -5.3510   -0.7370   -3.2860 ha        1 0MZ      0.147000
     34 H22        -3.4840    0.7240   -2.6040 ha        1 0MZ      0.180000
     35 H1         -2.3360    0.8840    0.9490 hn        1 0MZ      0.323500
     36 H161       -1.0430    3.5620    0.1080 hc        1 0MZ      0.091200
     37 H162       -0.4390    2.1050    1.0140 hc        1 0MZ      0.091200
     38 H13         0.4790    2.6590   -1.8750 h1        1 0MZ      0.147700
     39 HO20        1.5160    5.7140   -0.2280 ho        1 0MZ      0.457000
     40 H8          6.1010    0.4140   -0.6680 h4        1 0MZ      0.001800
     41 H5          7.1220   -1.4780   -1.3220 ha        1 0MZ      0.133000
     42 H4          7.9420   -3.7900   -0.9440 ha        1 0MZ      0.138000
     43 H3          7.2340   -5.0540    1.0890 ha        1 0MZ      0.138000
     44 H2          5.6930   -3.9830    2.7510 ha        1 0MZ      0.155000
     45 HO1         4.4360   -0.7660    2.4400 ho        1 0MZ      0.455000
@<TRIPOS>BOND
     1    1    2 1   
     2    2    3 1   
     3    2    4 1   
     4    2    5 1   
     5    5    6 ar  
     6    5    7 ar  
     7    6   10 ar  
     8    6   31 1   
     9    7    8 ar  
    10    7   32 1   
    11    8    9 ar  
    12    8   33 1   
    13    9   10 ar  
    14    9   34 1   
    15   10   11 1   
    16   11   12 1   
    17   11   35 1   
    18   12   13 2   
    19   12   14 1   
    20   14   15 1   
    21   14   36 1   
    22   14   37 1   
    23   15   16 1   
    24   15   20 1   
    25   15   38 1   
    26   16   17 1   
    27   16   18 2   
    28   17   39 1   
    29   18   19 1   
    30   19   20 1   
    31   19   21 2   
    32   21   22 1   
    33   22   23 2   
    34   23   24 1   
    35   23   40 1   
    36   24   25 ar  
    37   24   29 ar  
    38   25   26 ar  
    39   25   41 1   
    40   26   27 ar  
    41   26   42 1   
    42   27   28 ar  
    43   27   43 1   
    44   28   29 ar  
    45   28   44 1   
    46   29   30 1   
    47   30   45 1   
@<TRIPOS>SUBSTRUCTURE
     1 0MZ         1 TEMP              0 ****  ****    0 ROOT
