@<TRIPOS>MOLECULE
0N0
   80    84     1     0     0
SMALL
bcc


@<TRIPOS>ATOM
      1 C1         -3.3070    1.4990   -3.0000 c3        1 0N0      0.143800
      2 C2         -3.6520    0.6820   -1.7170 c3        1 0N0      0.199500
      3 C3         -2.4550    0.7690   -0.7520 c3        1 0N0     -0.093400
      4 C4         -1.1880    0.2810   -1.4380 c3        1 0N0     -0.166700
      5 C5         -0.9470    1.0690   -2.7400 c3        1 0N0      0.155800
      6 N6         -2.0760    1.0950   -3.6420 n3        1 0N0     -0.793200
      7 N7         -4.8880    1.1140   -1.1210 n3        1 0N0     -0.910100
      8 C8          0.0010    0.5120   -0.5110 c         1 0N0      0.662100
      9 S9         -6.1090    0.1330   -0.7140 sy        1 0N0      1.518200
     10 C10        -5.9450   -0.0060    0.9590 ca        1 0N0     -0.393500
     11 O11        -7.3300    0.7890   -0.9830 o         1 0N0     -0.655800
     12 O12        -5.9200   -1.1380   -1.3000 o         1 0N0     -0.655800
     13 C13        -6.7020    0.7960    1.8220 ca        1 0N0     -0.011500
     14 C14        -6.5880    0.6690    3.2020 ca        1 0N0     -0.160500
     15 C15        -5.7100   -0.2720    3.7540 ca        1 0N0     -0.007300
     16 C16        -4.9540   -1.0830    2.8980 ca        1 0N0     -0.160500
     17 C17        -5.0740   -0.9480    1.5200 ca        1 0N0     -0.011500
     18 C18        -5.5970   -0.4220    5.2230 c3        1 0N0     -0.068800
     19 O19         0.2360    1.6410   -0.0330 o         1 0N0     -0.615100
     20 N20         0.7780   -0.5830   -0.1800 n         1 0N0     -0.554900
     21 C21         1.9920   -0.4560    0.5740 c3        1 0N0      0.089000
     22 C22         3.2770   -0.8870   -0.1790 c3        1 0N0      0.040600
     23 O23         4.4430   -1.8050   -2.7030 os        1 0N0     -0.235200
     24 C24         3.1340   -2.3010   -0.6880 ca        1 0N0     -0.130800
     25 C25         3.7240   -2.6820   -1.9030 ca        1 0N0      0.114600
     26 C26         3.6570   -4.0010   -2.3830 ca        1 0N0     -0.144000
     27 C27         2.9920   -4.9580   -1.6260 ca        1 0N0     -0.103500
     28 C28         2.3980   -4.6020   -0.4130 ca        1 0N0     -0.152500
     29 C29         2.4730   -3.2910    0.0510 ca        1 0N0     -0.102500
     30 C30         4.1700   -0.4560   -2.4980 ca        1 0N0      0.114600
     31 C31         3.5860    0.0420   -1.3210 ca        1 0N0     -0.130800
     32 C32         3.3450    1.4210   -1.2580 ca        1 0N0     -0.102500
     33 C33         3.7070    2.2630   -2.3070 ca        1 0N0     -0.152500
     34 C34         4.3150    1.7470   -3.4530 ca        1 0N0     -0.103500
     35 C35         4.5430    0.3800   -3.5620 ca        1 0N0     -0.144000
     36 C36         4.4480   -0.8990    0.8240 c3        1 0N0     -0.067400
     37 C37         4.6690    0.4050    1.5570 c3        1 0N0     -0.084400
     38 C38         5.9350    0.3400    2.3850 c3        1 0N0     -0.083400
     39 C39         6.1440    1.6450    3.1330 c3        1 0N0      0.128400
     40 O40         7.3310    1.4850    3.9090 os        1 0N0     -0.422600
     41 C41         7.6570    2.6500    4.6460 c3        1 0N0      0.116700
     42 H1         -4.1440    1.3970   -3.7440 h1        1 0N0      0.063200
     43 H2         -3.2090    2.5860   -2.7230 h1        1 0N0      0.063200
     44 H3         -3.7820   -0.4040   -2.0180 h1        1 0N0      0.074700
     45 H4         -2.3060    1.8280   -0.4140 hc        1 0N0      0.061700
     46 H5         -2.6520    0.1450    0.1580 hc        1 0N0      0.061700
     47 H6         -1.3060   -0.8100   -1.6850 hc        1 0N0      0.058700
     48 H7         -0.6950    2.1330   -2.4650 h1        1 0N0      0.070700
     49 H8         -0.0660    0.6280   -3.2830 h1        1 0N0      0.070700
     50 H9         -2.1930    0.1980   -4.0790 hn        1 0N0      0.356800
     51 H11        -4.9270    2.0920   -0.9600 hn        1 0N0      0.447800
     52 H12        -7.4100    1.5280    1.3940 ha        1 0N0      0.151000
     53 H13        -7.1920    1.3090    3.8640 ha        1 0N0      0.141000
     54 H14        -4.2650   -1.8310    3.3200 ha        1 0N0      0.141000
     55 H15        -4.4870   -1.6030    0.8520 ha        1 0N0      0.151000
     56 H16        -6.3330   -1.1850    5.5820 hc        1 0N0      0.053700
     57 H17        -4.5720   -0.7610    5.5130 hc        1 0N0      0.053700
     58 H18        -5.8120    0.5440    5.7430 hc        1 0N0      0.053700
     59 H19         0.6670   -1.4230   -0.6990 hn        1 0N0      0.312500
     60 H20         2.1010    0.6110    0.9220 h1        1 0N0      0.066700
     61 H21         1.8990   -1.0950    1.5000 h1        1 0N0      0.066700
     62 H22         4.1360   -4.2540   -3.3390 ha        1 0N0      0.153000
     63 H23         2.9330   -5.9960   -1.9850 ha        1 0N0      0.138500
     64 H24         1.8750   -5.3630    0.1840 ha        1 0N0      0.138000
     65 H25         2.0150   -3.0420    1.0200 ha        1 0N0      0.145500
     66 H26         2.8470    1.8600   -0.3780 ha        1 0N0      0.145500
     67 H27         3.5090    3.3420   -2.2300 ha        1 0N0      0.138000
     68 H28         4.6060    2.4170   -4.2750 ha        1 0N0      0.138500
     69 H29         5.0070   -0.0570   -4.4580 ha        1 0N0      0.153000
     70 H30         4.2580   -1.7150    1.5710 hc        1 0N0      0.053700
     71 H31         5.3800   -1.1690    0.2590 hc        1 0N0      0.053700
     72 H32         4.7420    1.2500    0.8220 hc        1 0N0      0.046200
     73 H33         3.7970    0.6200    2.2300 hc        1 0N0      0.046200
     74 H34         5.8760   -0.5040    3.1200 hc        1 0N0      0.056200
     75 H35         6.8210    0.1450    1.7260 hc        1 0N0      0.056200
     76 H36         6.2710    2.5020    2.4190 h1        1 0N0      0.026200
     77 H37         5.2780    1.8640    3.8130 h1        1 0N0      0.026200
     78 H38         8.5930    2.3800    5.1960 h1        1 0N0      0.032033
     79 H39         7.8410    3.5140    3.9610 h1        1 0N0      0.032033
     80 H40         6.8390    2.9040    5.3650 h1        1 0N0      0.032033
@<TRIPOS>BOND
     1    1    2 1   
     2    1    6 1   
     3    1   42 1   
     4    1   43 1   
     5    2    3 1   
     6    2    7 1   
     7    2   44 1   
     8    3    4 1   
     9    3   45 1   
    10    3   46 1   
    11    4    5 1   
    12    4    8 1   
    13    4   47 1   
    14    5    6 1   
    15    5   48 1   
    16    5   49 1   
    17    6   50 1   
    18    7    9 1   
    19    7   51 1   
    20    8   19 2   
    21    8   20 1   
    22    9   10 1   
    23    9   11 2   
    24    9   12 2   
    25   10   13 ar  
    26   10   17 ar  
    27   13   14 ar  
    28   13   52 1   
    29   14   15 ar  
    30   14   53 1   
    31   15   16 ar  
    32   15   18 1   
    33   16   17 ar  
    34   16   54 1   
    35   17   55 1   
    36   18   56 1   
    37   18   57 1   
    38   18   58 1   
    39   20   21 1   
    40   20   59 1   
    41   21   22 1   
    42   21   60 1   
    43   21   61 1   
    44   22   24 1   
    45   22   31 1   
    46   22   36 1   
    47   23   25 1   
    48   23   30 1   
    49   24   25 ar  
    50   24   29 ar  
    51   25   26 ar  
    52   26   27 ar  
    53   26   62 1   
    54   27   28 ar  
    55   27   63 1   
    56   28   29 ar  
    57   28   64 1   
    58   29   65 1   
    59   30   31 ar  
    60   30   35 ar  
    61   31   32 ar  
    62   32   33 ar  
    63   32   66 1   
    64   33   34 ar  
    65   33   67 1   
    66   34   35 ar  
    67   34   68 1   
    68   35   69 1   
    69   36   37 1   
    70   36   70 1   
    71   36   71 1   
    72   37   38 1   
    73   37   72 1   
    74   37   73 1   
    75   38   39 1   
    76   38   74 1   
    77   38   75 1   
    78   39   40 1   
    79   39   76 1   
    80   39   77 1   
    81   40   41 1   
    82   41   78 1   
    83   41   79 1   
    84   41   80 1   
@<TRIPOS>SUBSTRUCTURE
     1 0N0         1 TEMP              0 ****  ****    0 ROOT
