@<TRIPOS>MOLECULE
0N0
   82    85     1     0     0
SMALL
bcc


@<TRIPOS>ATOM
      1 C1          1.5970    2.7710   -0.4050 c3        1 0N0      0.149800
      2 C2          2.5110    1.7980    0.3960 c3        1 0N0      0.134500
      3 C3          1.6670    1.1140    1.4830 c3        1 0N0     -0.104400
      4 C4          1.0090    2.1660    2.3690 c3        1 0N0     -0.132700
      5 C5          0.1680    3.1400    1.5140 c3        1 0N0      0.167800
      6 N6          0.9830    3.7340    0.4800 n3        1 0N0     -0.824200
      7 N7          3.2040    0.8590   -0.4940 n3        1 0N0     -0.994800
      8 C8          0.1160    1.4820    3.3780 c         1 0N0      0.539100
      9 S9          5.0740    1.9150   -1.5280 s4        1 0N0      1.683300
     10 C10         5.6050    0.6700   -2.2820 ca        1 0N0     -0.644500
     11 O11         4.2800    2.7850   -2.2060 o         1 0N0     -0.439900
     12 O12         5.6230    2.2160   -0.3210 o         1 0N0     -0.439900
     13 C13         5.1960    0.3750   -3.6140 ca        1 0N0      0.035500
     14 C14         5.7160   -0.6950   -4.3120 ca        1 0N0     -0.164500
     15 C15         6.6800   -1.5370   -3.7210 ca        1 0N0      0.117700
     16 C16         7.0950   -1.2690   -2.4000 ca        1 0N0     -0.164500
     17 C17         6.5740   -0.1980   -1.7040 ca        1 0N0      0.035500
     18 C18         7.2560   -2.6640   -4.4750 c3        1 0N0     -0.108800
     19 O19        -0.2590    0.3190    3.3650 o         1 0N0     -0.403100
     20 N20        -0.3690    2.3200    4.5280 n4        1 0N0     -0.672800
     21 C21         0.5780    2.2820    5.6880 c3        1 0N0      0.111800
     22 C22         0.0390    3.1470    6.8580 c3        1 0N0      0.075600
     23 O23        -2.4440    4.7310    7.1810 os        1 0N0     -0.212200
     24 C24        -0.1360    4.5590    6.3570 ca        1 0N0     -0.214800
     25 C25        -1.3220    5.2690    6.5780 ca        1 0N0      0.129600
     26 C26        -1.4640    6.6180    6.1930 ca        1 0N0     -0.130000
     27 C27        -0.3950    7.2580    5.5830 ca        1 0N0     -0.073500
     28 C28         0.8020    6.5660    5.3540 ca        1 0N0     -0.140000
     29 C29         0.9300    5.2410    5.7430 ca        1 0N0     -0.120500
     30 C30        -2.3970    3.3820    7.5000 ca        1 0N0      0.129600
     31 C31        -1.2660    2.5720    7.3250 ca        1 0N0     -0.214800
     32 C32        -1.3900    1.2100    7.6570 ca        1 0N0     -0.120500
     33 C33        -2.5810    0.6960    8.1530 ca        1 0N0     -0.140000
     34 C34        -3.6880    1.5320    8.3420 ca        1 0N0     -0.073500
     35 C35        -3.6070    2.8770    8.0130 ca        1 0N0     -0.130000
     36 C36         1.1000    3.1830    7.9710 c3        1 0N0     -0.073400
     37 C37         1.4650    1.8590    8.6020 c3        1 0N0     -0.082400
     38 C38         2.6830    2.0250    9.4890 c3        1 0N0     -0.088400
     39 C39         2.9840    0.7370   10.2380 c3        1 0N0      0.131400
     40 O40         4.3460    0.8230   10.6470 os        1 0N0     -0.423600
     41 C41         4.7070   -0.1890   11.5730 c3        1 0N0      0.113700
     42 H1          0.8370    2.1590   -0.9750 h1        1 0N0      0.067700
     43 H2          2.2180    3.3470   -1.1520 h1        1 0N0      0.067700
     44 H3          3.3250    2.4000    0.9070 h1        1 0N0      0.102700
     45 H4          2.3120    0.4470    2.1140 hc        1 0N0      0.077200
     46 H5          0.8740    0.4730    1.0110 hc        1 0N0      0.077200
     47 H6          1.8100    2.7440    2.9150 hc        1 0N0      0.112700
     48 H7         -0.7190    2.5710    1.1050 h1        1 0N0      0.053700
     49 H8         -0.2160    3.9800    2.1580 h1        1 0N0      0.053700
     50 H9          0.4740    4.4310   -0.0320 hn        1 0N0      0.418800
     51 H11         3.5420    0.0760    0.0420 hn        1 0N0      0.399300
     52 H12         4.4530    1.0360   -4.1020 ha        1 0N0      0.170500
     53 H13         5.3840   -0.8940   -5.3470 ha        1 0N0      0.185000
     54 H14         7.8510   -1.9200   -1.9270 ha        1 0N0      0.185000
     55 H15         6.9250    0.0070   -0.6740 ha        1 0N0      0.170500
     56 H16         8.1620   -2.3080   -5.0380 hc        1 0N0      0.093367
     57 H17         6.5280   -3.0730   -5.2210 hc        1 0N0      0.093367
     58 H18         7.5790   -3.4920   -3.7940 hc        1 0N0      0.093367
     59 H19        -1.2810    1.9650    4.8620 hn        1 0N0      0.473300
     60 H20         0.6850    1.2080    6.0080 hx        1 0N0      0.105700
     61 H21         1.5760    2.6710    5.3460 hx        1 0N0      0.105700
     62 H22        -2.4100    7.1420    6.4010 ha        1 0N0      0.178000
     63 H23        -0.4840    8.3180    5.2910 ha        1 0N0      0.166500
     64 H24         1.6510    7.0890    4.8860 ha        1 0N0      0.157500
     65 H25         1.8980    4.7340    5.6050 ha        1 0N0      0.132000
     66 H26        -0.5260    0.5360    7.5500 ha        1 0N0      0.132000
     67 H27        -2.6520   -0.3720    8.4150 ha        1 0N0      0.157500
     68 H28        -4.6250    1.1220    8.7560 ha        1 0N0      0.166500
     69 H29        -4.4610    3.5590    8.1530 ha        1 0N0      0.178000
     70 H30         0.7130    3.8710    8.7730 hc        1 0N0      0.072700
     71 H31         2.0280    3.6580    7.5500 hc        1 0N0      0.072700
     72 H32         0.6060    1.4780    9.2170 hc        1 0N0      0.040200
     73 H33         1.6870    1.0900    7.8170 hc        1 0N0      0.040200
     74 H34         3.5760    2.3090    8.8720 hc        1 0N0      0.063700
     75 H35         2.5150    2.8510   10.2270 hc        1 0N0      0.063700
     76 H36         2.8580   -0.1610    9.5740 h1        1 0N0      0.027700
     77 H37         2.3120    0.6250   11.1300 h1        1 0N0      0.027700
     78 H38         5.7870    0.0080   11.7890 h1        1 0N0      0.041033
     79 H39         4.0980   -0.1050   12.5070 h1        1 0N0      0.041033
     80 H40         4.5740   -1.2020   11.1190 h1        1 0N0      0.041033
     81 H72         2.5730    0.5140   -1.1990 hn        1 0N0      0.399300
     82 H202       -0.4860    3.3000    4.2370 hn        1 0N0      0.473300
@<TRIPOS>BOND
     1    1    2 1   
     2    1    6 1   
     3    1   42 1   
     4    1   43 1   
     5    2    3 1   
     6    2    7 1   
     7    2   44 1   
     8    3    4 1   
     9    3   45 1   
    10    3   46 1   
    11    4    5 1   
    12    4    8 1   
    13    4   47 1   
    14    5    6 1   
    15    5   48 1   
    16    5   49 1   
    17    6   50 1   
    18    7   51 1   
    19    7   81 1   
    20    8   19 2   
    21    8   20 1   
    22    9   10 1   
    23    9   11 1   
    24    9   12 1   
    25   10   13 ar  
    26   10   17 ar  
    27   13   14 ar  
    28   13   52 1   
    29   14   15 ar  
    30   14   53 1   
    31   15   16 ar  
    32   15   18 1   
    33   16   17 ar  
    34   16   54 1   
    35   17   55 1   
    36   18   56 1   
    37   18   57 1   
    38   18   58 1   
    39   20   21 1   
    40   20   59 1   
    41   20   82 1   
    42   21   22 1   
    43   21   60 1   
    44   21   61 1   
    45   22   24 1   
    46   22   31 1   
    47   22   36 1   
    48   23   25 1   
    49   23   30 1   
    50   24   25 ar  
    51   24   29 ar  
    52   25   26 ar  
    53   26   27 ar  
    54   26   62 1   
    55   27   28 ar  
    56   27   63 1   
    57   28   29 ar  
    58   28   64 1   
    59   29   65 1   
    60   30   31 ar  
    61   30   35 ar  
    62   31   32 ar  
    63   32   33 ar  
    64   32   66 1   
    65   33   34 ar  
    66   33   67 1   
    67   34   35 ar  
    68   34   68 1   
    69   35   69 1   
    70   36   37 1   
    71   36   70 1   
    72   36   71 1   
    73   37   38 1   
    74   37   72 1   
    75   37   73 1   
    76   38   39 1   
    77   38   74 1   
    78   38   75 1   
    79   39   40 1   
    80   39   76 1   
    81   39   77 1   
    82   40   41 1   
    83   41   78 1   
    84   41   79 1   
    85   41   80 1   
@<TRIPOS>SUBSTRUCTURE
     1 0N0         1 TEMP              0 ****  ****    0 ROOT
