@<TRIPOS>MOLECULE
0N0
   82    85     1     0     0
SMALL
bcc


@<TRIPOS>ATOM
      1 C1          1.5770    2.7270   -0.4170 c3        1 0N0      0.149800
      2 C2          2.5010    1.7680    0.3900 c3        1 0N0      0.134500
      3 C3          1.6680    1.0910    1.4890 c3        1 0N0     -0.104400
      4 C4          1.0070    2.1480    2.3680 c3        1 0N0     -0.132700
      5 C5          0.1560    3.1070    1.5060 c3        1 0N0      0.167800
      6 N6          0.9620    3.6950    0.4610 n3        1 0N0     -0.824200
      7 N7          3.1960    0.8240   -0.4920 n3        1 0N0     -0.994800
      8 C8          0.1240    1.4700    3.3890 c         1 0N0      0.539100
      9 S9          5.0530    1.8790   -1.5490 s4        1 0N0      1.683300
     10 C10         5.5860    0.6300   -2.2940 ca        1 0N0     -0.644500
     11 O11         4.2500    2.7390   -2.2310 o         1 0N0     -0.439900
     12 O12         5.6080    2.1970   -0.3490 o         1 0N0     -0.439900
     13 C13         5.1710    0.3190   -3.6200 ca        1 0N0      0.035500
     14 C14         5.6920   -0.7550   -4.3100 ca        1 0N0     -0.164500
     15 C15         6.6650   -1.5850   -3.7170 ca        1 0N0      0.117700
     16 C16         7.0870   -1.3000   -2.4020 ca        1 0N0     -0.164500
     17 C17         6.5650   -0.2260   -1.7140 ca        1 0N0      0.035500
     18 C18         7.2440   -2.7170   -4.4630 c3        1 0N0     -0.108800
     19 O19        -0.2430    0.3050    3.3900 o         1 0N0     -0.403100
     20 N20        -0.3600    2.3180    4.5310 n4        1 0N0     -0.672800
     21 C21         0.5880    2.2920    5.6910 c3        1 0N0      0.111800
     22 C22         0.0510    3.1700    6.8520 c3        1 0N0      0.075600
     23 O23        -2.4290    4.7620    7.1590 os        1 0N0     -0.212200
     24 C24        -0.1210    4.5770    6.3380 ca        1 0N0     -0.214800
     25 C25        -1.3050    5.2920    6.5510 ca        1 0N0      0.129600
     26 C26        -1.4430    6.6380    6.1540 ca        1 0N0     -0.130000
     27 C27        -0.3730    7.2690    5.5400 ca        1 0N0     -0.073500
     28 C28         0.8230    6.5730    5.3170 ca        1 0N0     -0.140000
     29 C29         0.9480    5.2500    5.7190 ca        1 0N0     -0.120500
     30 C30        -2.3840    3.4160    7.4900 ca        1 0N0      0.129600
     31 C31        -1.2560    2.6010    7.3240 ca        1 0N0     -0.214800
     32 C32        -1.3830    1.2430    7.6670 ca        1 0N0     -0.120500
     33 C33        -2.5750    0.7370    8.1680 ca        1 0N0     -0.140000
     34 C34        -3.6810    1.5770    8.3490 ca        1 0N0     -0.073500
     35 C35        -3.5960    2.9190    8.0080 ca        1 0N0     -0.130000
     36 C36         1.1120    3.2130    7.9650 c3        1 0N0     -0.073400
     37 C37         1.4710    1.8940    8.6110 c3        1 0N0     -0.082400
     38 C38         2.6880    2.0660    9.4980 c3        1 0N0     -0.088400
     39 C39         2.9830    0.7850   10.2610 c3        1 0N0      0.131400
     40 O40         4.3420    0.8740   10.6780 os        1 0N0     -0.423600
     41 C41         4.6970   -0.1310   11.6160 c3        1 0N0      0.113700
     42 H1          2.1910    3.2980   -1.1730 h1        1 0N0      0.067700
     43 H2          0.8180    2.1040   -0.9760 h1        1 0N0      0.067700
     44 H3          3.3140    2.3810    0.8910 h1        1 0N0      0.102700
     45 H4          0.8760    0.4400    1.0290 hc        1 0N0      0.077200
     46 H5          2.3200    0.4350    2.1240 hc        1 0N0      0.077200
     47 H6          1.8080    2.7380    2.9020 hc        1 0N0      0.112700
     48 H7         -0.2300    3.9530    2.1430 h1        1 0N0      0.053700
     49 H8         -0.7300    2.5290    1.1080 h1        1 0N0      0.053700
     50 H9          0.4460    4.3830   -0.0560 hn        1 0N0      0.418800
     51 H11         3.5420    0.0490    0.0500 hn        1 0N0      0.399300
     52 H12         4.4200    0.9700   -4.1100 ha        1 0N0      0.170500
     53 H13         5.3550   -0.9670   -5.3400 ha        1 0N0      0.185000
     54 H14         7.8510   -1.9430   -1.9270 ha        1 0N0      0.185000
     55 H15         6.9210   -0.0080   -0.6880 ha        1 0N0      0.170500
     56 H16         6.5130   -3.1380   -5.1990 hc        1 0N0      0.093367
     57 H17         8.1440   -2.3610   -5.0360 hc        1 0N0      0.093367
     58 H18         7.5760   -3.5350   -3.7750 hc        1 0N0      0.093367
     59 H19        -1.2720    1.9650    4.8700 hn        1 0N0      0.473300
     60 H20         0.6960    1.2210    6.0220 hx        1 0N0      0.105700
     61 H21         1.5860    2.6780    5.3430 hx        1 0N0      0.105700
     62 H22        -2.3890    7.1660    6.3570 ha        1 0N0      0.178000
     63 H23        -0.4580    8.3260    5.2380 ha        1 0N0      0.166500
     64 H24         1.6740    7.0890    4.8460 ha        1 0N0      0.157500
     65 H25         1.9140    4.7400    5.5860 ha        1 0N0      0.132000
     66 H26        -0.5210    0.5660    7.5670 ha        1 0N0      0.132000
     67 H27        -2.6490   -0.3290    8.4390 ha        1 0N0      0.157500
     68 H28        -4.6180    1.1730    8.7670 ha        1 0N0      0.166500
     69 H29        -4.4480    3.6040    8.1410 ha        1 0N0      0.178000
     70 H30         0.7270    3.9110    8.7590 hc        1 0N0      0.072700
     71 H31         2.0420    3.6790    7.5390 hc        1 0N0      0.072700
     72 H32         1.6930    1.1160    7.8340 hc        1 0N0      0.040200
     73 H33         0.6100    1.5230    9.2280 hc        1 0N0      0.040200
     74 H34         3.5830    2.3400    8.8800 hc        1 0N0      0.063700
     75 H35         2.5210    2.9010   10.2270 hc        1 0N0      0.063700
     76 H36         2.8600   -0.1190    9.6050 h1        1 0N0      0.027700
     77 H37         2.3060    0.6820   11.1500 h1        1 0N0      0.027700
     78 H38         4.0830   -0.0370   12.5460 h1        1 0N0      0.041033
     79 H39         5.7760    0.0670   11.8360 h1        1 0N0      0.041033
     80 H40         4.5650   -1.1470   11.1710 h1        1 0N0      0.041033
     81 H72         2.5630    0.4660   -1.1900 hn        1 0N0      0.399300
     82 H202       -0.4790    3.2960    4.2310 hn        1 0N0      0.473300
@<TRIPOS>BOND
     1    1    2 1   
     2    1    6 1   
     3    1   42 1   
     4    1   43 1   
     5    2    3 1   
     6    2    7 1   
     7    2   44 1   
     8    3    4 1   
     9    3   45 1   
    10    3   46 1   
    11    4    5 1   
    12    4    8 1   
    13    4   47 1   
    14    5    6 1   
    15    5   48 1   
    16    5   49 1   
    17    6   50 1   
    18    7   51 1   
    19    7   81 1   
    20    8   19 2   
    21    8   20 1   
    22    9   10 1   
    23    9   11 1   
    24    9   12 1   
    25   10   13 ar  
    26   10   17 ar  
    27   13   14 ar  
    28   13   52 1   
    29   14   15 ar  
    30   14   53 1   
    31   15   16 ar  
    32   15   18 1   
    33   16   17 ar  
    34   16   54 1   
    35   17   55 1   
    36   18   56 1   
    37   18   57 1   
    38   18   58 1   
    39   20   21 1   
    40   20   59 1   
    41   20   82 1   
    42   21   22 1   
    43   21   60 1   
    44   21   61 1   
    45   22   24 1   
    46   22   31 1   
    47   22   36 1   
    48   23   25 1   
    49   23   30 1   
    50   24   25 ar  
    51   24   29 ar  
    52   25   26 ar  
    53   26   27 ar  
    54   26   62 1   
    55   27   28 ar  
    56   27   63 1   
    57   28   29 ar  
    58   28   64 1   
    59   29   65 1   
    60   30   31 ar  
    61   30   35 ar  
    62   31   32 ar  
    63   32   33 ar  
    64   32   66 1   
    65   33   34 ar  
    66   33   67 1   
    67   34   35 ar  
    68   34   68 1   
    69   35   69 1   
    70   36   37 1   
    71   36   70 1   
    72   36   71 1   
    73   37   38 1   
    74   37   72 1   
    75   37   73 1   
    76   38   39 1   
    77   38   74 1   
    78   38   75 1   
    79   39   40 1   
    80   39   76 1   
    81   39   77 1   
    82   40   41 1   
    83   41   78 1   
    84   41   79 1   
    85   41   80 1   
@<TRIPOS>SUBSTRUCTURE
     1 0N0         1 TEMP              0 ****  ****    0 ROOT
