@<TRIPOS>MOLECULE
0N0
   80    76     1     0     0
SMALL
bcc


@<TRIPOS>ATOM
      1 C1         -1.2580   -1.3590   -3.9160 c3        1 0N0     -0.103000
      2 C2          0.1820   -1.6940   -3.8130 c3        1 0N0      0.021000
      3 C3          0.6250   -2.0840   -2.3220 c3        1 0N0     -0.167000
      4 C4          0.2910   -0.6350   -1.6310 c3        1 0N0     -0.162000
      5 C5         -1.2110   -0.3360   -1.8000 c3        1 0N0     -0.081000
      6 N6         -1.7580   -1.0600   -2.7700 n3        1 0N0     -0.272000
      7 N7          0.4570   -2.7810   -4.6690 n3        1 0N0     -0.896000
      8 C8          0.7380   -0.5660   -0.1960 c2        1 0N0      0.312000
      9 S9          0.1590   -2.6460   -6.3000 s4        1 0N0      2.077800
     10 C10         0.6580   -4.1690   -7.1620 c1        1 0N0     -0.832000
     11 O11        -1.2240   -2.3310   -6.5510 o         1 0N0     -0.554900
     12 O12         0.8430   -1.4460   -6.8800 o         1 0N0     -0.554900
     13 C13         1.8550   -4.3920   -7.8130 c2        1 0N0     -0.010000
     14 C14         2.2220   -5.6930   -8.1730 c1        1 0N0     -0.159000
     15 C15         1.3920   -6.7460   -7.8800 c1        1 0N0     -0.002000
     16 C16         0.1830   -6.5180   -7.2230 c1        1 0N0     -0.161000
     17 C17        -0.1800   -5.2330   -6.8670 c1        1 0N0     -0.012000
     18 C18         1.7800   -8.1480   -8.2840 c3        1 0N0     -0.193000
     19 O19         1.5980   -1.2900    0.1920 o         1 0N0     -0.395000
     20 N20         0.2210    0.4610    0.6710 n         1 0N0     -0.359000
     21 C21         0.3290    0.3080    2.1310 c3        1 0N0     -0.024000
     22 C22        -0.0550    1.6650    2.8360 c3        1 0N0      0.026000
     23 O23        -1.9040    3.7170    2.0020 os        1 0N0     -0.145000
     24 C24         0.3920    2.7830    1.9470 c2        1 0N0     -0.129000
     25 C25        -0.4860    3.8310    1.6550 c2        1 0N0      0.058000
     26 C26        -0.0010    5.0080    1.0130 c1        1 0N0     -0.151000
     27 C27         1.3680    5.1160    0.6710 c1        1 0N0     -0.125750
     28 C28         2.2520    4.0620    0.9650 c1        1 0N0     -0.125750
     29 C29         1.7740    2.8930    1.6010 c1        1 0N0     -0.095000
     30 C30        -2.3730    2.6090    2.8900 c1        1 0N0      0.075000
     31 C31        -1.5180    1.5830    3.2220 c1        1 0N0     -0.130000
     32 C32        -2.0060    0.4490    3.8960 c1        1 0N0     -0.094000
     33 C33        -3.3600    0.3620    4.2290 c1        1 0N0     -0.125750
     34 C34        -4.2340    1.4020    3.8940 c1        1 0N0     -0.125750
     35 C35        -3.7570    2.5180    3.2310 c1        1 0N0     -0.150000
     36 C36         0.7840    1.7690    4.1760 c3        1 0N0     -0.141000
     37 C37         0.2130    2.9120    5.0620 c3        1 0N0     -0.160000
     38 C38         0.8870    2.8490    6.4870 c3        1 0N0     -0.161000
     39 C39         0.2570    3.9010    7.4040 c3        1 0N0     -0.022000
     40 O40         0.7010    3.6930    8.7380 os        1 0N0     -0.281000
     41 C41         0.3340    4.7200    9.6260 c3        1 0N0     -0.073000
     42 H1         -1.7620   -2.1620   -4.3040 h1        1 0N0      0.097500
     43 H2         -1.3670   -0.5750   -4.5330 h1        1 0N0      0.097500
     44 H3          0.6920   -0.9440   -4.0980 h1        1 0N0      0.120000
     45 H4          1.5640   -2.2950   -2.2730 hc        1 0N0      0.099500
     46 H5          0.0690   -2.7930   -1.9560 hc        1 0N0      0.099500
     47 H6          0.8300    0.0660   -2.0260 hc        1 0N0      0.101000
     48 H7         -1.6770   -0.5330   -0.9460 h1        1 0N0      0.112000
     49 H8         -1.3240    0.6230   -2.0140 h1        1 0N0      0.112000
     50 H9         -2.6790   -0.8210   -2.8710 hn        1 0N0      0.144000
     51 H11         0.7660   -3.5590   -4.3280 hn        1 0N0      0.267000
     52 H12         2.4610   -3.6230   -8.0260 ha        1 0N0      0.150000
     53 H13         3.0880   -5.8560   -8.6440 ha        1 0N0      0.141000
     54 H14        -0.4060   -7.2660   -7.0160 ha        1 0N0      0.140000
     55 H15        -1.0450   -5.0720   -6.3980 ha        1 0N0      0.155000
     56 H16         2.7020   -8.3320   -7.9900 hc        1 0N0      0.092000
     57 H17         1.7230   -8.2350   -9.2760 hc        1 0N0      0.092000
     58 H18         1.1800   -8.7790   -7.8700 hc        1 0N0      0.092000
     59 H19        -0.2300    1.1910    0.3120 hn        1 0N0      0.229000
     60 H20         1.2310    0.0720    2.3630 h1        1 0N0      0.103500
     61 H21        -0.2680   -0.3840    2.4240 h1        1 0N0      0.103500
     62 H22        -0.6420    5.7710    0.8000 ha        1 0N0      0.149000
     63 H23         1.7030    5.9300    0.2290 ha        1 0N0      0.148000
     64 H24         3.1830    4.1360    0.7310 ha        1 0N0      0.148000
     65 H25         2.4040    2.1430    1.8090 ha        1 0N0      0.143000
     66 H26        -1.3970   -0.2810    4.1310 ha        1 0N0      0.137000
     67 H27        -3.7010   -0.4370    4.7040 ha        1 0N0      0.148000
     68 H28        -5.1570    1.3400    4.1210 ha        1 0N0      0.148000
     69 H29        -4.3550    3.2300    3.0030 ha        1 0N0      0.152000
     70 H30         0.7310    0.9410    4.6500 hc        1 0N0      0.086500
     71 H31         1.6880    1.9550    3.9670 hc        1 0N0      0.086500
     72 H32        -0.7630    2.8030    5.1530 hc        1 0N0      0.090500
     73 H33         0.4090    3.7820    4.6450 hc        1 0N0      0.090500
     74 H34         1.8510    3.0280    6.4010 hc        1 0N0      0.093000
     75 H35         0.7490    1.9320    6.8830 hc        1 0N0      0.093000
     76 H36        -0.7080    3.8230    7.3690 h1        1 0N0      0.066500
     77 H37         0.5330    4.8250    7.0970 h1        1 0N0      0.066500
     78 H38         0.6870    4.5260   10.5080 h1        1 0N0      0.070667
     79 H39        -0.6270    4.7780    9.6700 h1        1 0N0      0.070667
     80 H40         0.6940    5.5640    9.3110 h1        1 0N0      0.070667
@<TRIPOS>BOND
     1    1    2 1   
     2    1    6 1   
     3    1   42 1   
     4    1   43 1   
     5    2    3 1   
     6    2    7 1   
     7    2   44 1   
     8    3    4 1   
     9    3   45 1   
    10    3   46 1   
    11    4    5 1   
    12    4    8 1   
    13    4   47 1   
    14    5    6 1   
    15    5   48 1   
    16    5   49 1   
    17    6   50 1   
    18    7    9 1   
    19    7   51 1   
    20    8   19 1   
    21    8   20 1   
    22    9   11 1   
    23    9   12 1   
    24   10   13 1   
    25   10   17 1   
    26   13   14 1   
    27   13   52 1   
    28   14   53 1   
    29   15   16 1   
    30   15   18 1   
    31   16   54 1   
    32   17   55 1   
    33   18   56 1   
    34   18   57 1   
    35   18   58 1   
    36   20   21 1   
    37   20   59 1   
    38   21   22 1   
    39   21   60 1   
    40   21   61 1   
    41   22   24 1   
    42   22   31 1   
    43   22   36 1   
    44   23   25 1   
    45   23   30 1   
    46   24   25 1   
    47   24   29 1   
    48   25   26 1   
    49   26   62 1   
    50   27   28 1   
    51   27   63 1   
    52   28   64 1   
    53   29   65 1   
    54   30   35 1   
    55   31   32 1   
    56   32   66 1   
    57   33   34 1   
    58   33   67 1   
    59   34   68 1   
    60   35   69 1   
    61   36   37 1   
    62   36   70 1   
    63   36   71 1   
    64   37   38 1   
    65   37   72 1   
    66   37   73 1   
    67   38   39 1   
    68   38   74 1   
    69   38   75 1   
    70   39   40 1   
    71   39   76 1   
    72   39   77 1   
    73   40   41 1   
    74   41   78 1   
    75   41   79 1   
    76   41   80 1   
@<TRIPOS>SUBSTRUCTURE
     1 0N0         1 TEMP              0 ****  ****    0 ROOT
