@<TRIPOS>MOLECULE
0N0
   82    85     1     0     0
SMALL
bcc


@<TRIPOS>ATOM
      1 C1          1.6140    2.7610   -0.4090 c3        1 0N0      0.149800
      2 C2          2.5260    1.7920    0.3980 c3        1 0N0      0.134500
      3 C3          1.6780    1.1080    1.4830 c3        1 0N0     -0.104400
      4 C4          1.0130    2.1600    2.3640 c3        1 0N0     -0.132700
      5 C5          0.1740    3.1300    1.5020 c3        1 0N0      0.167800
      6 N6          0.9930    3.7240    0.4710 n7        1 0N0     -0.824200
      7 N7          3.2260    0.8530   -0.4860 n8        1 0N0     -0.994800
      8 C8          0.1170    1.4760    3.3700 c         1 0N0      0.539100
      9 S9          5.0990    1.9100   -1.5120 s4        1 0N0      1.683300
     10 C10         5.6360    0.6650   -2.2610 ca        1 0N0     -0.644500
     11 O11         4.3060    2.7770   -2.1960 o         1 0N0     -0.439900
     12 O12         5.6400    2.2160   -0.3030 o         1 0N0     -0.439900
     13 C13         5.2350    0.3660   -3.5950 ca        1 0N0      0.035500
     14 C14         5.7610   -0.7040   -4.2870 ca        1 0N0     -0.164500
     15 C15         6.7230   -1.5430   -3.6890 ca        1 0N0      0.117700
     16 C16         7.1300   -1.2710   -2.3660 ca        1 0N0     -0.164500
     17 C17         6.6040   -0.2000   -1.6760 ca        1 0N0      0.035500
     18 C18         7.3060   -2.6710   -4.4380 c3        1 0N0     -0.108800
     19 O19        -0.2560    0.3120    3.3570 o         1 0N0     -0.403100
     20 N20        -0.3760    2.3150    4.5150 ny        1 0N0     -0.672800
     21 C21         0.5660    2.2830    5.6800 c3        1 0N0      0.111800
     22 C22         0.0200    3.1490    6.8450 c3        1 0N0      0.075600
     23 O23        -2.4690    4.7250    7.1550 os        1 0N0     -0.212200
     24 C24        -0.1580    4.5590    6.3400 ca        1 0N0     -0.214800
     25 C25        -1.3470    5.2660    6.5540 ca        1 0N0      0.129600
     26 C26        -1.4920    6.6130    6.1660 ca        1 0N0     -0.130000
     27 C27        -0.4230    7.2550    5.5580 ca        1 0N0     -0.073500
     28 C28         0.7770    6.5670    5.3350 ca        1 0N0     -0.140000
     29 C29         0.9080    5.2420    5.7280 ca        1 0N0     -0.120500
     30 C30        -2.4190    3.3770    7.4770 ca        1 0N0      0.129600
     31 C31        -1.2850    2.5700    7.3090 ca        1 0N0     -0.214800
     32 C32        -1.4060    1.2090    7.6430 ca        1 0N0     -0.120500
     33 C33        -2.5970    0.6930    8.1360 ca        1 0N0     -0.140000
     34 C34        -3.7080    1.5250    8.3190 ca        1 0N0     -0.073500
     35 C35        -3.6300    2.8700    7.9870 ca        1 0N0     -0.130000
     36 C36         1.0770    3.1920    7.9620 c3        1 0N0     -0.073400
     37 C37         1.4440    1.8700    8.5980 c3        1 0N0     -0.082400
     38 C38         2.6580    2.0420    9.4880 c3        1 0N0     -0.088400
     39 C39         2.9610    0.7560   10.2410 c3        1 0N0      0.131400
     40 O40         4.3220    0.8480   10.6530 os        1 0N0     -0.423600
     41 C41         4.6840   -0.1610   11.5820 c3        1 0N0      0.113700
     42 H1          2.2370    3.3360   -1.1540 h1        1 0N0      0.067700
     43 H2          0.8580    2.1460   -0.9820 h1        1 0N0      0.067700
     44 H3          3.3360    2.3970    0.9130 h1        1 0N0      0.102700
     45 H4          0.8890    0.4640    1.0080 hc        1 0N0      0.077200
     46 H5          2.3210    0.4440    2.1180 hc        1 0N0      0.077200
     47 H6          1.8100    2.7410    2.9120 hc        1 0N0      0.112700
     48 H7         -0.2150    3.9710    2.1430 h1        1 0N0      0.053700
     49 H8         -0.7100    2.5580    1.0900 h1        1 0N0      0.053700
     50 H9          0.4850    4.4180   -0.0450 hn        1 0N0      0.418800
     51 H11         2.5990    0.5040   -1.1930 hn        1 0N0      0.399300
     52 H12         4.4930    1.0240   -4.0880 ha        1 0N0      0.170500
     53 H13         5.4350   -0.9070   -5.3230 ha        1 0N0      0.185000
     54 H14         7.8860   -1.9200   -1.8880 ha        1 0N0      0.185000
     55 H15         6.9490    0.0090   -0.6450 ha        1 0N0      0.170500
     56 H16         8.2140   -2.3140   -4.9970 hc        1 0N0      0.093367
     57 H17         6.5820   -3.0820   -5.1860 hc        1 0N0      0.093367
     58 H18         7.6270   -3.4960   -3.7530 hc        1 0N0      0.093367
     59 H19        -0.4950    3.2950    4.2210 hn        1 0N0      0.473300
     60 H20         0.6750    1.2090    6.0030 hx        1 0N0      0.105700
     61 H21         1.5650    2.6740    5.3410 hx        1 0N0      0.105700
     62 H22        -2.4410    7.1350    6.3690 ha        1 0N0      0.178000
     63 H23        -0.5140    8.3130    5.2630 ha        1 0N0      0.166500
     64 H24         1.6260    7.0910    4.8680 ha        1 0N0      0.157500
     65 H25         1.8780    4.7380    5.5940 ha        1 0N0      0.131500
     66 H26        -0.5390    0.5370    7.5410 ha        1 0N0      0.131500
     67 H27        -2.6660   -0.3750    8.4000 ha        1 0N0      0.157500
     68 H28        -4.6440    1.1140    8.7310 ha        1 0N0      0.166500
     69 H29        -4.4860    3.5500    8.1220 ha        1 0N0      0.178000
     70 H30         0.6840    3.8790    8.7610 hc        1 0N0      0.072700
     71 H31         2.0050    3.6680    7.5430 hc        1 0N0      0.072700
     72 H32         1.6720    1.1000    7.8150 hc        1 0N0      0.040200
     73 H33         0.5840    1.4870    9.2100 hc        1 0N0      0.040200
     74 H34         3.5520    2.3290    8.8740 hc        1 0N0      0.063700
     75 H35         2.4840    2.8690   10.2250 hc        1 0N0      0.063700
     76 H36         2.2880    0.6440   11.1310 h1        1 0N0      0.027700
     77 H37         2.8400   -0.1430    9.5780 h1        1 0N0      0.027700
     78 H38         5.7630    0.0400   11.8010 h1        1 0N0      0.041033
     79 H39         4.5560   -1.1750   11.1300 h1        1 0N0      0.041033
     80 H40         4.0720   -0.0780   12.5140 h1        1 0N0      0.041033
     81 H72         3.5620    0.0710    0.0530 hn        1 0N0      0.399300
     82 H202       -1.2880    1.9580    4.8460 hn        1 0N0      0.473300
@<TRIPOS>BOND
     1    1    2 1   
     2    1    6 1   
     3    1   42 1   
     4    1   43 1   
     5    2    3 1   
     6    2    7 1   
     7    2   44 1   
     8    3    4 1   
     9    3   45 1   
    10    3   46 1   
    11    4    5 1   
    12    4    8 1   
    13    4   47 1   
    14    5    6 1   
    15    5   48 1   
    16    5   49 1   
    17    6   50 1   
    18    7   51 1   
    19    7   81 1   
    20    8   19 2   
    21    8   20 1   
    22    9   10 1   
    23    9   11 1   
    24    9   12 1   
    25   10   13 ar  
    26   10   17 ar  
    27   13   14 ar  
    28   13   52 1   
    29   14   15 ar  
    30   14   53 1   
    31   15   16 ar  
    32   15   18 1   
    33   16   17 ar  
    34   16   54 1   
    35   17   55 1   
    36   18   56 1   
    37   18   57 1   
    38   18   58 1   
    39   20   21 1   
    40   20   59 1   
    41   20   82 1   
    42   21   22 1   
    43   21   60 1   
    44   21   61 1   
    45   22   24 1   
    46   22   31 1   
    47   22   36 1   
    48   23   25 1   
    49   23   30 1   
    50   24   25 ar  
    51   24   29 ar  
    52   25   26 ar  
    53   26   27 ar  
    54   26   62 1   
    55   27   28 ar  
    56   27   63 1   
    57   28   29 ar  
    58   28   64 1   
    59   29   65 1   
    60   30   31 ar  
    61   30   35 ar  
    62   31   32 ar  
    63   32   33 ar  
    64   32   66 1   
    65   33   34 ar  
    66   33   67 1   
    67   34   35 ar  
    68   34   68 1   
    69   35   69 1   
    70   36   37 1   
    71   36   70 1   
    72   36   71 1   
    73   37   38 1   
    74   37   72 1   
    75   37   73 1   
    76   38   39 1   
    77   38   74 1   
    78   38   75 1   
    79   39   40 1   
    80   39   76 1   
    81   39   77 1   
    82   40   41 1   
    83   41   78 1   
    84   41   79 1   
    85   41   80 1   
@<TRIPOS>SUBSTRUCTURE
     1 0N0         1 TEMP              0 ****  ****    0 ROOT
