@<TRIPOS>MOLECULE
0N1
   82    75     1     0     0
SMALL
bcc


@<TRIPOS>ATOM
      1 C12         1.2310   -2.8620    6.8340 c1        1 0N1     -0.091000
      2 C6         -0.0920    1.4920    5.2230 c1        1 0N1     -0.069000
      3 C1         -0.3120    2.6360    4.4650 c1        1 0N1     -0.071000
      4 C2         -0.7250    2.5250    3.1620 c1        1 0N1     -0.069000
      5 C5         -0.2950    0.2180    4.6480 c1        1 0N1     -0.122000
      6 C4         -0.7070    0.1150    3.3450 c2        1 0N1     -0.114000
      7 C3         -0.9260    1.2560    2.5920 c1        1 0N1     -0.122000
      8 C8          0.2090   -1.0140    5.3600 c1        1 0N1      0.340000
      9 C17         2.6070   -2.9790    6.9170 c1        1 0N1     -0.116000
     10 C18         0.0600   -3.9400    4.8310 c3        1 0N1     -0.164000
     11 C19         0.5120   -4.8080    3.5150 c2        1 0N1     -0.169000
     12 C37        -0.3980    1.4650   -7.5470 c1        1 0N1     -0.122000
     13 C38         0.2660    2.3180   -9.8780 c3        1 0N1     -0.070000
     14 C39        -0.8720    2.9290  -10.7500 c3        1 0N1     -0.206000
     15 C40         1.6060    2.9890  -10.2300 c3        1 0N1     -0.206000
     16 C41        -1.7180   -1.4080    0.1510 c3        1 0N1     -0.045000
     17 C35         0.0750    3.8190   -7.8320 c1        1 0N1     -0.123000
     18 C36        -0.0460    2.5520   -8.3720 c1        1 0N1     -0.069000
     19 C33        -0.5030    2.9380   -5.6420 c1        1 0N1     -0.121000
     20 C25        -1.2430    1.1310    1.1240 c2        1 0N1      0.348000
     21 C27        -1.1630    0.3120   -1.6270 c3        1 0N1      0.032000
     22 C29        -0.4430   -0.0650   -2.9230 c3        1 0N1     -0.071000
     23 C31        -0.1170    0.6650   -5.1560 c3        1 0N1     -0.034000
     24 C32        -0.6250    1.6680   -6.1810 c1        1 0N1     -0.086000
     25 O26        -2.4060    0.9110    0.7620 o         1 0N1     -0.364000
     26 N24        -0.0980    0.3890    0.4680 n         1 0N1     -0.364000
     27 C23        -0.5820   -0.4730   -0.4900 c3        1 0N1     -0.030000
     28 N30        -1.0680    0.5870   -4.0250 n3        1 0N1     -0.301000
     29 C34        -0.1500    4.0230   -6.4700 c1        1 0N1     -0.121000
     30 O28        -2.5180    0.0200   -1.7470 oh        1 0N1     -0.346000
     31 O22        -1.1620   -2.8080    0.3500 os        1 0N1     -0.283000
     32 C21        -0.9590   -3.0960    1.8580 c3        1 0N1      0.005000
     33 C20        -0.0710   -4.4140    2.0400 c2        1 0N1     -0.168000
     34 C11         1.3030   -3.0280    5.3370 c3        1 0N1      0.080000
     35 C16         3.2180   -3.0900    8.1540 c1        1 0N1     -0.121000
     36 C15         2.4500   -3.0820    9.3130 c1        1 0N1     -0.121000
     37 C14         1.0810   -2.9660    9.2330 c1        1 0N1     -0.121000
     38 C13         0.4640   -2.8550    7.9960 c1        1 0N1     -0.121000
     39 N10         1.2470   -1.8080    4.7400 n3        1 0N1     -0.361000
     40 O9         -0.4400   -1.4840    6.2710 o         1 0N1     -0.329000
     41 C7         -0.1800    4.0680    5.1310 c2        1 0N1     -0.185000
     42 H1          0.2010    1.5680    6.1480 ha        1 0N1      0.154000
     43 H2         -0.8790    3.3240    2.6320 ha        1 0N1      0.155000
     44 H3         -0.8460   -0.7530    2.9530 ha        1 0N1      0.139000
     45 H4          3.1540   -2.9840    6.0930 ha        1 0N1      0.127000
     46 H5         -0.2110   -4.5510    5.5480 hc        1 0N1      0.101500
     47 H6         -0.6870   -3.3670    4.5960 hc        1 0N1      0.101500
     48 H7          1.0740   -5.6410    3.6290 ha        1 0N1      0.128000
     49 H8         -0.4820    0.5800   -7.9240 ha        1 0N1      0.130000
     50 H9          0.3280    1.3440  -10.0550 hc        1 0N1      0.089000
     51 H10        -1.6930    2.4530  -10.5850 hc        1 0N1      0.075500
     52 H11        -0.6290    2.8490  -11.7230 hc        1 0N1      0.075500
     53 H12        -0.9910    3.8690  -10.5220 hc        1 0N1      0.075500
     54 H13         1.9480    2.6210  -11.1100 hc        1 0N1      0.075500
     55 H14         2.2620    2.8010   -9.5190 hc        1 0N1      0.075500
     56 H15         1.4750    3.9810  -10.3100 hc        1 0N1      0.075500
     57 H16        -1.9960   -1.0450    1.0070 h1        1 0N1      0.108500
     58 H17        -2.5060   -1.4450   -0.4680 h1        1 0N1      0.108500
     59 H18         0.3280    4.5970   -8.4230 ha        1 0N1      0.131000
     60 H19        -0.6660    3.0870   -4.6540 ha        1 0N1      0.137667
     61 H20        -1.0490    1.2660   -1.4560 h1        1 0N1      0.120000
     62 H21        -0.4880   -1.0040   -3.0460 h1        1 0N1      0.075500
     63 H22         0.4990    0.2130   -2.8690 h1        1 0N1      0.075500
     64 H23         0.7750    0.9570   -4.8220 h1        1 0N1      0.075000
     65 H24        -0.0360   -0.2160   -5.5750 h1        1 0N1      0.075000
     66 H25         0.6250    0.1650    0.9480 hn        1 0N1      0.221000
     67 H26         0.1430   -1.0280   -0.8190 h1        1 0N1      0.114000
     68 H27        -1.8360    0.0930   -4.2900 hn        1 0N1      0.173000
     69 H29        -0.0620    4.9390   -6.0810 ha        1 0N1      0.137667
     70 H30        -2.9750    0.7700   -1.8030 ho        1 0N1      0.233000
     71 H31        -0.5000   -2.3300    2.2800 h1        1 0N1      0.072000
     72 H32        -1.8510   -3.2320    2.2950 h1        1 0N1      0.072000
     73 H33         0.1960   -4.9270    1.2640 ha        1 0N1      0.147000
     74 H34         2.1210   -3.4540    5.1070 h1        1 0N1      0.100000
     75 H35         4.1890   -3.1720    8.2130 ha        1 0N1      0.137667
     76 H36         2.8810   -3.1590   10.1830 ha        1 0N1      0.137667
     77 H37         0.5460   -2.9610   10.0450 ha        1 0N1      0.137667
     78 H38        -0.4720   -2.7760    7.9420 ha        1 0N1      0.137667
     79 H39         2.0480   -1.3900    4.4290 hn        1 0N1      0.213000
     80 H40        -0.9890    4.6060    4.9220 ha        1 0N1      0.091333
     81 H41         0.6360    4.5340    4.7630 ha        1 0N1      0.091333
     82 H42        -0.0930    3.9720    6.1040 ha        1 0N1      0.091333
@<TRIPOS>BOND
     1    1    9 1   
     2    1   34 1   
     3    2    5 1   
     4    2   42 1   
     5    3    4 1   
     6    4   43 1   
     7    5    6 1   
     8    6    7 1   
     9    6   44 1   
    10    7   20 1   
    11    8   39 1   
    12    8   40 1   
    13    9   45 1   
    14   10   11 1   
    15   10   34 1   
    16   10   46 1   
    17   10   47 1   
    18   11   33 1   
    19   11   48 1   
    20   12   24 1   
    21   12   49 1   
    22   13   14 1   
    23   13   15 1   
    24   13   18 1   
    25   13   50 1   
    26   14   51 1   
    27   14   52 1   
    28   14   53 1   
    29   15   54 1   
    30   15   55 1   
    31   15   56 1   
    32   16   27 1   
    33   16   31 1   
    34   16   57 1   
    35   16   58 1   
    36   17   18 1   
    37   17   59 1   
    38   19   29 1   
    39   19   60 1   
    40   20   25 1   
    41   20   26 1   
    42   21   22 1   
    43   21   27 1   
    44   21   30 1   
    45   21   61 1   
    46   22   28 1   
    47   22   62 1   
    48   22   63 1   
    49   23   24 1   
    50   23   28 1   
    51   23   64 1   
    52   23   65 1   
    53   26   27 1   
    54   26   66 1   
    55   27   67 1   
    56   28   68 1   
    57   29   69 1   
    58   30   70 1   
    59   31   32 1   
    60   32   33 1   
    61   32   71 1   
    62   32   72 1   
    63   33   73 1   
    64   34   39 1   
    65   34   74 1   
    66   35   36 1   
    67   35   75 1   
    68   36   76 1   
    69   37   38 1   
    70   37   77 1   
    71   38   78 1   
    72   39   79 1   
    73   41   80 1   
    74   41   81 1   
    75   41   82 1   
@<TRIPOS>SUBSTRUCTURE
     1 0N1         1 TEMP              0 ****  ****    0 ROOT
