@<TRIPOS>MOLECULE
0N1
   82    85     1     0     0
SMALL
bcc


@<TRIPOS>ATOM
      1 C12         7.1770    1.0110   -0.4850 ca        1 0N1     -0.096300
      2 C6          1.9810    2.5550    1.4220 ca        1 0N1     -0.069000
      3 C1          0.9260    2.3960    2.3270 ca        1 0N1     -0.083300
      4 C2          0.4240    1.1140    2.5790 ca        1 0N1     -0.077000
      5 C5          2.5300    1.4400    0.7830 ca        1 0N1     -0.142600
      6 C4          2.0220    0.1600    1.0230 ca        1 0N1     -0.095000
      7 C3          0.9620    0.0050    1.9190 ca        1 0N1     -0.132600
      8 C8          3.6360    1.6390   -0.2010 c         1 0N1      0.674700
      9 C17         7.9490    2.0350   -1.0430 ca        1 0N1     -0.117000
     10 C18         5.7860   -0.6560   -1.6880 c3        1 0N1     -0.070200
     11 C19         4.4260   -1.0090   -2.1600 c2        1 0N1     -0.161200
     12 C37        -6.9130    0.3360   -0.2540 ca        1 0N1     -0.107000
     13 C39        -9.0040    2.4930   -2.1490 c3        1 0N1     -0.088100
     14 C40       -10.1280    1.8260   -0.0250 c3        1 0N1     -0.088100
     15 C41         0.1990   -2.8810   -0.9800 c3        1 0N1      0.104400
     16 C35        -8.7920   -0.5070   -1.5150 ca        1 0N1     -0.121000
     17 C36        -8.1610    0.5510   -0.8490 ca        1 0N1     -0.076300
     18 C33        -6.9360   -1.9660   -0.9950 ca        1 0N1     -0.126000
     19 C25         0.4400   -1.3500    2.2570 c         1 0N1      0.675700
     20 C27        -1.8940   -1.6050   -0.4980 c3        1 0N1      0.083100
     21 C29        -2.6190   -0.5530    0.3630 c3        1 0N1      0.132800
     22 C31        -4.9760   -1.1500    0.3450 c3        1 0N1      0.205100
     23 C32        -6.2990   -0.9180   -0.3250 ca        1 0N1     -0.095300
     24 O26         0.5810   -1.8290    3.4010 o         1 0N1     -0.594100
     25 N24        -0.2680   -2.0870    1.3270 n         1 0N1     -0.555900
     26 C23        -0.4080   -1.7810   -0.0700 c3        1 0N1      0.050700
     27 N30        -3.9530   -0.1990   -0.0580 n3        1 0N1     -0.814200
     28 C34        -8.1810   -1.7570   -1.5860 ca        1 0N1     -0.131000
     29 O28        -1.9420   -1.2510   -1.8710 oh        1 0N1     -0.597800
     30 O22         1.6140   -2.8670   -0.8840 os        1 0N1     -0.423600
     31 C21         2.2550   -2.1920   -1.9720 c3        1 0N1      0.156600
     32 C20         3.6460   -1.8950   -1.5360 c2        1 0N1     -0.183200
     33 C11         5.7930    0.7450   -1.0270 c3        1 0N1      0.148000
     34 C16         9.2340    2.2840   -0.5630 ca        1 0N1     -0.129000
     35 C15         9.7530    1.5180    0.4800 ca        1 0N1     -0.125000
     36 C14         8.9830    0.5010    1.0450 ca        1 0N1     -0.129000
     37 C13         7.6990    0.2480    0.5650 ca        1 0N1     -0.117000
     38 N10         4.7750    0.8820   -0.0070 n         1 0N1     -0.553900
     39 C7          0.3370    3.5720    3.0070 c3        1 0N1     -0.057800
     40 H1          2.3810    3.5580    1.2030 ha        1 0N1      0.155000
     41 H2         -0.3930    0.9740    3.3050 ha        1 0N1      0.151000
     42 H3          2.4400   -0.7200    0.5020 ha        1 0N1      0.158000
     43 H4          7.5400    2.6500   -1.8600 ha        1 0N1      0.132500
     44 H5          6.1690   -1.4190   -0.9600 hc        1 0N1      0.059200
     45 H6          6.4980   -0.6270   -2.5540 hc        1 0N1      0.059200
     46 H7          4.0760   -0.4570   -3.0490 ha        1 0N1      0.130000
     47 H9         -8.1230    2.5880   -0.1890 hc        1 0N1      0.052700
     48 H10        -9.4530    3.5120   -2.0650 hc        1 0N1      0.036367
     49 H11        -8.0260    2.5750   -2.6810 hc        1 0N1      0.036367
     50 H12        -9.6870    1.8530   -2.7580 hc        1 0N1      0.036367
     51 H13       -10.8470    1.1650   -0.5660 hc        1 0N1      0.036367
     52 H14        -9.9760    1.4180    1.0020 hc        1 0N1      0.036367
     53 H15       -10.5760    2.8450    0.0570 hc        1 0N1      0.036367
     54 H16        -0.1060   -3.9050   -0.6330 h1        1 0N1      0.066700
     55 H17        -0.1560   -2.7230   -2.0320 h1        1 0N1      0.066700
     56 H18        -9.7740   -0.3480   -1.9850 ha        1 0N1      0.132000
     57 H19        -6.4570   -2.9540   -1.0580 ha        1 0N1      0.130000
     58 H20        -2.4270   -2.5950   -0.4520 h1        1 0N1      0.079700
     59 H21        -2.6560   -0.9180    1.4270 h1        1 0N1      0.063700
     60 H22        -2.0110    0.3970    0.3400 h1        1 0N1      0.063700
     61 H23        -5.1150   -1.0330    1.4600 h1        1 0N1      0.037700
     62 H24        -4.6550   -2.2190    0.1620 h1        1 0N1      0.037700
     63 H25        -0.5190   -3.0130    1.5990 hn        1 0N1      0.317500
     64 H26         0.1310   -0.8120   -0.2940 h1        1 0N1      0.073700
     65 H27        -3.9790   -0.0550   -1.0520 hn        1 0N1      0.370800
     66 H29        -8.6820   -2.5830   -2.1120 ha        1 0N1      0.131000
     67 H30        -1.5910   -0.3550   -1.9530 ho        1 0N1      0.404000
     68 H31         2.2490   -2.8750   -2.8650 h1        1 0N1      0.042200
     69 H32         1.6990   -1.2500   -2.2280 h1        1 0N1      0.042200
     70 H33         3.9860   -2.4570   -0.6500 ha        1 0N1      0.142000
     71 H34         5.5620    1.5080   -1.8340 h1        1 0N1      0.095700
     72 H35         9.8370    3.0900   -1.0080 ha        1 0N1      0.133500
     73 H36        10.7660    1.7180    0.8590 ha        1 0N1      0.133000
     74 H37         9.3880   -0.1020    1.8710 ha        1 0N1      0.133500
     75 H38         7.0980   -0.5570    1.0140 ha        1 0N1      0.132500
     76 H39         4.7950    0.2270    0.7390 hn        1 0N1      0.312500
     77 H40        -0.5660    3.9240    2.4460 hc        1 0N1      0.051033
     78 H41         0.0240    3.3140    4.0490 hc        1 0N1      0.051033
     79 H42         1.0690    4.4160    3.0560 hc        1 0N1      0.051033
     80 O9          3.5390    2.4610   -1.1340 o         1 0N1     -0.602100
     81 H8         -6.4050    1.1590    0.2750 ha        1 0N1      0.144000
     82 C38        -8.8060    1.8990   -0.7670 c3        1 0N1     -0.024400
@<TRIPOS>BOND
     1    1    9 ar  
     2    1   33 1   
     3    1   37 ar  
     4    2    3 ar  
     5    2    5 ar  
     6    2   40 1   
     7    3    4 ar  
     8    3   39 1   
     9    4    7 ar  
    10    4   41 1   
    11    5    6 ar  
    12    5    8 1   
    13    6    7 ar  
    14    6   42 1   
    15    7   19 1   
    16    8   38 1   
    17    8   80 2   
    18    9   34 ar  
    19    9   43 1   
    20   10   11 1   
    21   10   33 1   
    22   10   44 1   
    23   10   45 1   
    24   11   32 2   
    25   11   46 1   
    26   12   17 ar  
    27   12   23 ar  
    28   12   81 1   
    29   13   48 1   
    30   13   49 1   
    31   13   50 1   
    32   13   82 1   
    33   14   51 1   
    34   14   52 1   
    35   14   53 1   
    36   14   82 1   
    37   15   26 1   
    38   15   30 1   
    39   15   54 1   
    40   15   55 1   
    41   16   17 ar  
    42   16   28 ar  
    43   16   56 1   
    44   17   82 1   
    45   18   23 ar  
    46   18   28 ar  
    47   18   57 1   
    48   19   24 2   
    49   19   25 1   
    50   20   21 1   
    51   20   26 1   
    52   20   29 1   
    53   20   58 1   
    54   21   27 1   
    55   21   59 1   
    56   21   60 1   
    57   22   23 1   
    58   22   27 1   
    59   22   61 1   
    60   22   62 1   
    61   25   26 1   
    62   25   63 1   
    63   26   64 1   
    64   27   65 1   
    65   28   66 1   
    66   29   67 1   
    67   30   31 1   
    68   31   32 1   
    69   31   68 1   
    70   31   69 1   
    71   32   70 1   
    72   33   38 1   
    73   33   71 1   
    74   34   35 ar  
    75   34   72 1   
    76   35   36 ar  
    77   35   73 1   
    78   36   37 ar  
    79   36   74 1   
    80   37   75 1   
    81   38   76 1   
    82   39   77 1   
    83   39   78 1   
    84   39   79 1   
    85   47   82 1   
@<TRIPOS>SUBSTRUCTURE
     1 0N1         1 TEMP              0 ****  ****    0 ROOT
