@<TRIPOS>MOLECULE
0N1
   82    81     1     0     0
SMALL
bcc


@<TRIPOS>ATOM
      1 C12        -1.7790   -1.2230    1.7230 c3        1 0N1     -0.066000
      2 C6         -1.3970    3.6800   -0.8100 c2        1 0N1     -0.077000
      3 C1         -1.9150    4.8650   -1.2880 c2        1 0N1     -0.136000
      4 C2         -3.1930    4.8660   -1.9070 c2        1 0N1     -0.019000
      5 C5         -2.1560    2.4890   -0.9520 c2        1 0N1     -0.249000
      6 C4         -3.4330    2.4710   -1.5490 c1        1 0N1     -0.258000
      7 C3         -3.9290    3.6970   -2.0360 c2        1 0N1     -0.140000
      8 C8         -1.6890    1.2320   -0.4540 c2        1 0N1      0.354000
      9 C17         0.5980    1.5410   -0.9680 c2        1 0N1      0.161000
     10 C18        -3.0670   -2.2080   -0.2070 c3        1 0N1     -0.211000
     11 C19        -3.3290   -2.0860   -1.6450 c1        1 0N1     -0.084000
     12 C37        -5.2160    6.8680   -7.1940 c2        1 0N1     -0.180000
     13 C39        -2.3670    7.7880   -8.1750 c3        1 0N1     -0.218000
     14 C40        -3.7260    9.3410   -9.5630 c3        1 0N1     -0.218000
     15 C41        -6.3500    0.4870   -3.9240 c1        1 0N1      0.071000
     16 C35        -5.3720    7.0430   -9.6420 c2        1 0N1     -0.455000
     17 C36        -4.8140    7.4180   -8.3580 c2        1 0N1      0.007000
     18 C33        -7.4620    5.9240   -7.5920 c2        1 0N1     -0.183000
     19 C25        -5.2680    3.8300   -2.6700 c2        1 0N1      0.363000
     20 C27        -4.7680    1.8210   -5.2320 c3        1 0N1      0.144000
     21 C29        -4.1860    3.1510   -5.4050 c2        1 0N1     -0.788000
     22 C31        -5.9210    4.7780   -6.0390 c3        1 0N1     -0.172000
     23 C32        -6.2550    5.8660   -7.0150 c2        1 0N1     -0.112000
     24 O26        -5.8450    4.9480   -2.6960 o         1 0N1     -0.430000
     25 N24        -5.9740    2.7580   -3.2000 n         1 0N1     -0.295000
     26 C23        -5.3410    1.6020   -3.7750 c3        1 0N1     -0.139000
     27 N30        -4.6510    4.0490   -6.3870 n4        1 0N1      0.167000
     28 C34        -5.2270    7.6550  -10.8020 c1        1 0N1      0.207000
     29 O28        -3.8050    0.7840   -5.4260 oh        1 0N1     -0.376000
     30 O22        -6.0420   -0.7480   -3.7130 os        1 0N1     -0.091000
     31 C21        -4.7670   -1.1880   -3.3110 c2        1 0N1      0.080000
     32 C20        -4.6260   -1.7360   -2.0770 c2        1 0N1     -0.284000
     33 C11        -2.0480   -1.1290    0.2070 c3        1 0N1      0.042000
     34 C16         1.9010    1.4170   -0.5900 c2        1 0N1     -0.300000
     35 C15         2.8650    1.9330   -1.4850 c1        1 0N1     -0.100000
     36 C14        -3.8530   -0.6450    3.2270 c1        1 0N1     -0.177000
     37 C13        -2.9170   -0.9090    2.5300 c1        1 0N1     -0.195000
     38 N10        -2.4940    0.1950   -0.2060 n3        1 0N1     -0.216000
     39 C7         -1.1780    6.1430   -1.1600 c3        1 0N1     -0.171000
     40 H1         -0.4240    3.6710   -0.2940 ha        1 0N1      0.119000
     41 H2         -3.6010    5.8250   -2.2730 ha        1 0N1      0.145000
     42 H3          0.2460    2.0160   -1.9030 h4        1 0N1      0.197000
     43 H4         -0.9290   -0.5290    1.9830 hc        1 0N1      0.117000
     44 H5         -5.5130   -1.8450   -1.4240 ha        1 0N1      0.120000
     45 H6         -2.5940   -3.2150   -0.0330 hc        1 0N1      0.108500
     46 H7         -3.9730   -2.1390    0.4580 hc        1 0N1      0.108500
     47 H9         -3.8980    9.1130   -7.4360 hc        1 0N1      0.104000
     48 H10        -2.3480    7.1700   -7.2450 hc        1 0N1      0.086333
     49 H11        -2.1450    7.1270   -9.0470 hc        1 0N1      0.086333
     50 H12        -1.5670    8.5640   -8.1060 hc        1 0N1      0.086333
     51 H13        -3.0270   10.2000   -9.4120 hc        1 0N1      0.086333
     52 H14        -3.3720    8.7850  -10.4720 hc        1 0N1      0.086333
     53 H15        -4.7470    9.7580   -9.7520 hc        1 0N1      0.086333
     54 H16        -4.9200   -1.1710   -6.4440 ha        1 0N1      0.001500
     55 H17        -5.4240   -0.8930   -6.0840 ha        1 0N1      0.001500
     56 H18        -6.0120    6.1310   -9.6380 ha        1 0N1      0.193000
     57 H19        -8.2360    5.1660   -7.4140 ha        1 0N1      0.126000
     58 H20        -3.9250    4.7530   -6.5510 hn        1 0N1      0.204000
     59 H21        -4.8170    3.5460   -7.2620 hn        1 0N1      0.204000
     60 H22        -5.5850    1.5930   -5.9780 h1        1 0N1      0.076000
     61 H23        -5.7940    5.2120   -5.0020 hx        1 0N1      0.143000
     62 H24        -6.7440    4.0120   -5.9850 hx        1 0N1      0.143000
     63 H25        -6.8310    3.0170   -3.6480 hn        1 0N1      0.207000
     64 H26        -4.4700    1.3160   -3.1020 h1        1 0N1      0.160000
     65 H27        -3.5630    3.5790   -4.6180 hx        1 0N1      0.154000
     66 H29        -7.7550    6.7510   -8.2540 ha        1 0N1      0.126000
     67 H30        -2.9290    1.1820   -5.3600 ho        1 0N1      0.218000
     68 H31        -2.1760   -1.0850   -5.6100 ha        1 0N1      0.001500
     69 H32        -2.7250   -1.2640   -5.9650 ha        1 0N1      0.001500
     70 H33        -3.9690   -1.0360   -4.0640 h4        1 0N1      0.197000
     71 H34        -1.0690   -1.3400   -0.3240 h1        1 0N1      0.131000
     72 H35        -1.4390   -2.2750    1.9370 hc        1 0N1      0.117000
     73 H36         2.1470    0.9310    0.3710 ha        1 0N1      0.114000
     74 H37         3.9180    1.8380   -1.1870 ha        1 0N1      0.055000
     75 H38        -4.6850   -0.4090    3.8420 ha        1 0N1      0.229000
     76 H39        -3.4750    0.3480   -0.4110 hn        1 0N1      0.307000
     77 H40        -1.7870    6.8860   -0.5860 hc        1 0N1      0.080667
     78 H41        -0.2040    6.0010   -0.6300 hc        1 0N1      0.080667
     79 H42        -0.9690    6.5730   -2.1720 hc        1 0N1      0.080667
     80 O9         -0.3520    1.0010   -0.1200 os        1 0N1     -0.201000
     81 H8         -4.7360    7.1910   -6.2510 ha        1 0N1      0.141000
     82 C38        -3.7220    8.4540   -8.3360 c3        1 0N1     -0.087000
@<TRIPOS>BOND
     1    1   33 1   
     2    1   37 1   
     3    1   43 1   
     4    1   72 1   
     5    2    3 1   
     6    2    5 1   
     7    2   40 1   
     8    3    4 1   
     9    3   39 1   
    10    4    7 1   
    11    4   41 1   
    12    5    6 1   
    13    5    8 1   
    14    6    7 1   
    15    7   19 1   
    16    8   38 1   
    17    8   80 1   
    18    9   34 1   
    19    9   42 1   
    20    9   80 1   
    21   10   11 1   
    22   10   33 1   
    23   10   45 1   
    24   10   46 1   
    25   11   32 1   
    26   12   17 1   
    27   12   23 1   
    28   12   81 1   
    29   13   48 1   
    30   13   49 1   
    31   13   50 1   
    32   13   82 1   
    33   14   51 1   
    34   14   52 1   
    35   14   53 1   
    36   14   82 1   
    37   15   26 1   
    38   15   30 1   
    39   16   17 1   
    40   16   28 1   
    41   16   56 1   
    42   17   82 1   
    43   18   23 1   
    44   18   57 1   
    45   18   66 1   
    46   19   24 1   
    47   19   25 1   
    48   20   21 1   
    49   20   26 1   
    50   20   29 1   
    51   20   60 1   
    52   21   27 1   
    53   21   65 1   
    54   22   23 1   
    55   22   27 1   
    56   22   61 1   
    57   22   62 1   
    58   25   26 1   
    59   25   63 1   
    60   26   64 1   
    61   27   58 1   
    62   27   59 1   
    63   29   67 1   
    64   30   31 1   
    65   31   32 1   
    66   31   70 1   
    67   32   44 1   
    68   33   38 1   
    69   33   71 1   
    70   34   35 1   
    71   34   73 1   
    72   35   74 1   
    73   36   37 1   
    74   36   75 1   
    75   38   76 1   
    76   39   77 1   
    77   39   78 1   
    78   39   79 1   
    79   47   82 1   
    80   54   55 1   
    81   68   69 1   
@<TRIPOS>SUBSTRUCTURE
     1 0N1         1 TEMP              0 ****  ****    0 ROOT
