@<TRIPOS>MOLECULE
0N2
   60    62     1     0     0
SMALL
bcc


@<TRIPOS>ATOM
      1 O41         2.0500    3.4180    1.4790 o         1 0N2     -0.639500
      2 C41         3.0000    2.8140    0.9480 c         1 0N2      0.715700
      3 C51         3.7550    3.2550   -0.2330 cc        1 0N2     -0.258400
      4 C5A         3.3620    4.5330   -0.8590 c3        1 0N2     -0.039900
      5 C61         4.7820    2.4960   -0.7140 cd        1 0N2      0.045600
      6 N31         3.4010    1.5910    1.5180 ns        1 0N2     -0.591500
      7 C21         4.4520    0.8160    1.0070 c         1 0N2      0.806500
      8 O21         4.7400   -0.2710    1.5620 o         1 0N2     -0.674500
      9 N11         5.1300    1.2730   -0.1520 n         1 0N2     -0.383000
     10 C1X         6.2780    0.5010   -0.6260 c3        1 0N2      0.300500
     11 O4X         7.5100    1.1630   -0.3020 os        1 0N2     -0.417600
     12 C2X         6.2730    0.2410   -2.1450 c3        1 0N2     -0.115400
     13 C3X         7.3910    1.1190   -2.7140 c3        1 0N2      0.118100
     14 O3X         8.1900    0.3100   -3.5540 oh        1 0N2     -0.617800
     15 C4X         8.1910    1.6100   -1.4840 c3        1 0N2      0.069100
     16 C5X         8.3360    3.1370   -1.3990 c3        1 0N2      0.142400
     17 O5X         9.5500    3.5780   -1.9510 os        1 0N2     -0.616200
     18 P           9.6010    4.0450   -3.4980 p5        1 0N2      1.785500
     19 O1P        10.7640    5.1230   -3.3900 oh        1 0N2     -0.772400
     20 O2P         9.7740    2.9120   -4.3960 o         1 0N2     -0.853300
     21 OPP         8.3010    4.9000   -3.6290 os        1 0N2     -0.815800
     22 P2          6.7310    5.5370   -3.7090 p5        1 0N2      1.587800
     23 O3P         5.9370    4.4700   -3.0780 o         1 0N2     -0.832500
     24 O4P         6.5810    6.1800   -5.0130 o         1 0N2     -0.832500
     25 O1          6.9920    6.7040   -2.5810 os        1 0N2     -0.607200
     26 C1          7.3720    7.9710   -3.0090 c3        1 0N2      0.369900
     27 C2          8.7680    8.3300   -2.4970 c3        1 0N2     -0.115400
     28 C3          8.8620    8.2240   -0.9700 c3        1 0N2      0.155500
     29 N3          9.5500    7.0200   -0.5380 n8        1 0N2     -0.905800
     30 C4          7.4450    8.3640   -0.3490 c3        1 0N2      0.073100
     31 O4          7.5430    8.7730    1.0040 oh        1 0N2     -0.599800
     32 C5          6.5330    9.2900   -1.1580 c3        1 0N2      0.129100
     33 O5          6.3820    8.8610   -2.5080 os        1 0N2     -0.428600
     34 C6          6.9880   10.7410   -1.1390 c3        1 0N2     -0.122100
     35 H1          3.5160    5.3750   -0.1380 hc        1 0N2      0.058033
     36 H2          3.9720    4.7250   -1.7790 hc        1 0N2      0.058033
     37 H3          2.2780    4.5080   -1.1320 hc        1 0N2      0.058033
     38 H4          5.3830    2.8320   -1.5960 h4        1 0N2      0.232000
     39 H5          2.9390    1.2460    2.3300 hn        1 0N2      0.338500
     40 H6          6.3030   -0.4650   -0.0340 h2        1 0N2      0.115700
     41 H7          6.4980   -0.8390   -2.3320 hc        1 0N2      0.077700
     42 H8          5.2960    0.4850   -2.6260 hc        1 0N2      0.077700
     43 H9          6.9500    1.9800   -3.2880 h1        1 0N2      0.083700
     44 H10         8.7710    0.9000   -4.0610 ho        1 0N2      0.451000
     45 H11         9.2050    1.1230   -1.4540 h1        1 0N2      0.088700
     46 H12         8.3590    3.4290   -0.3110 h1        1 0N2      0.078200
     47 H13         7.4750    3.6610   -1.9110 h1        1 0N2      0.078200
     48 H16         7.2860    8.0630   -4.1350 h2        1 0N2      0.114700
     49 H17         9.5220    7.6700   -2.9980 hc        1 0N2      0.058200
     50 H18         8.9840    9.3860   -2.8010 hc        1 0N2      0.058200
     51 H19         9.4860    9.0920   -0.5980 h1        1 0N2      0.039700
     52 H20         9.5660    6.9910    0.4640 hn        1 0N2      0.354800
     53 H21         9.0560    6.2100   -0.8680 hn        1 0N2      0.354800
     54 H23         6.9440    7.3510   -0.3010 h1        1 0N2      0.116700
     55 H24         7.9280    9.6580    1.0100 ho        1 0N2      0.390000
     56 H25         5.4910    9.2310   -0.7270 h1        1 0N2      0.064700
     57 H26         6.4180   11.3210   -1.9030 hc        1 0N2      0.036700
     58 H27         6.7970   11.1830   -0.1320 hc        1 0N2      0.036700
     59 H28         8.0760   10.8240   -1.3710 hc        1 0N2      0.036700
     60 H33        10.7150    5.7260   -2.6500 ho        1 0N2      0.484000
@<TRIPOS>BOND
     1    1    2 2   
     2    2    3 1   
     3    2    6 1   
     4    3    4 1   
     5    3    5 2   
     6    4   35 1   
     7    4   36 1   
     8    4   37 1   
     9    5    9 1   
    10    5   38 1   
    11    6    7 1   
    12    6   39 1   
    13    7    8 2   
    14    7    9 1   
    15    9   10 1   
    16   10   11 1   
    17   10   12 1   
    18   10   40 1   
    19   11   15 1   
    20   12   13 1   
    21   12   41 1   
    22   12   42 1   
    23   13   14 1   
    24   13   15 1   
    25   13   43 1   
    26   14   44 1   
    27   15   16 1   
    28   15   45 1   
    29   16   17 1   
    30   16   46 1   
    31   16   47 1   
    32   17   18 1   
    33   18   19 1   
    34   18   20 2   
    35   18   21 1   
    36   19   60 1   
    37   21   22 1   
    38   22   23 1   
    39   22   24 1   
    40   22   25 1   
    41   25   26 1   
    42   26   27 1   
    43   26   33 1   
    44   26   48 1   
    45   27   28 1   
    46   27   49 1   
    47   27   50 1   
    48   28   29 1   
    49   28   30 1   
    50   28   51 1   
    51   29   52 1   
    52   29   53 1   
    53   30   31 1   
    54   30   32 1   
    55   30   54 1   
    56   31   55 1   
    57   32   33 1   
    58   32   34 1   
    59   32   56 1   
    60   34   57 1   
    61   34   58 1   
    62   34   59 1   
@<TRIPOS>SUBSTRUCTURE
     1 0N2         1 TEMP              0 ****  ****    0 ROOT
