@<TRIPOS>MOLECULE
0N2
   60    62     1     0     0
SMALL
bcc


@<TRIPOS>ATOM
      1 O41         2.1400    3.4090    1.6200 o         1 0N2     -0.639500
      2 C41         3.0810    2.8070    1.0700 c         1 0N2      0.715700
      3 C51         3.8000    3.2420   -0.1350 cc        1 0N2     -0.258400
      4 C5A         3.3800    4.5090   -0.7640 c3        1 0N2     -0.039900
      5 C61         4.8210    2.4860   -0.6350 cd        1 0N2      0.045600
      6 N31         3.5080    1.5940    1.6420 n         1 0N2     -0.591500
      7 C21         4.5520    0.8220    1.1110 c         1 0N2      0.806500
      8 O21         4.8640   -0.2570    1.6700 o         1 0N2     -0.674500
      9 N11         5.1940    1.2720   -0.0700 n         1 0N2     -0.383000
     10 C1X         6.3360    0.5050   -0.5660 c3        1 0N2      0.300500
     11 O4X         7.5700    1.1810   -0.2810 os        1 0N2     -0.417600
     12 C2X         6.2930    0.2290   -2.0820 c3        1 0N2     -0.115400
     13 C3X         7.3890    1.1100   -2.6880 c3        1 0N2      0.118100
     14 O3X         8.1720    0.2990   -3.5410 oh        1 0N2     -0.617800
     15 C4X         8.2160    1.6210   -1.4850 c3        1 0N2      0.069100
     16 C5X         8.3490    3.1500   -1.4200 c3        1 0N2      0.142400
     17 O5X         9.5450    3.5950   -2.0080 os        1 0N2     -0.616200
     18 P           9.5510    4.0460   -3.5610 p5        1 0N2      1.785500
     19 O1P        10.7070    5.1360   -3.4950 oh        1 0N2     -0.772400
     20 O2P         9.7100    2.9060   -4.4520 o         1 0N2     -0.853300
     21 OPP         8.2410    4.8890   -3.6670 os        1 0N2     -0.815800
     22 P2          6.6630    5.5120   -3.7120 p5        1 0N2      1.587800
     23 O3P         5.8960    4.4440   -3.0500 o         1 0N2     -0.832500
     24 O4P         6.4740    6.1400   -5.0180 o         1 0N2     -0.832500
     25 O1          6.9440    6.6920   -2.6030 os        1 0N2     -0.607200
     26 C1          7.3000    7.9580   -3.0530 c3        1 0N2      0.369900
     27 C2          8.7060    8.3340   -2.5810 c3        1 0N2     -0.115400
     28 C3          8.8420    8.2440   -1.0560 c3        1 0N2      0.155500
     29 N3          9.5520    7.0510   -0.6310 n3        1 0N2     -0.905800
     30 C4          7.4400    8.3780   -0.3990 c3        1 0N2      0.073100
     31 O4          7.5700    8.8010    0.9460 oh        1 0N2     -0.599800
     32 C5          6.4990    9.2880   -1.1930 c3        1 0N2      0.129100
     33 O5          6.3160    8.8440   -2.5340 os        1 0N2     -0.428600
     34 C6          6.9410   10.7420   -1.2000 c3        1 0N2     -0.122100
     35 H1          3.5460    5.3600   -0.0570 hc        1 0N2      0.058033
     36 H2          3.9630    4.6960   -1.7020 hc        1 0N2      0.058033
     37 H3          2.2890    4.4720   -1.0080 hc        1 0N2      0.058033
     38 H4          5.3950    2.8170   -1.5370 h4        1 0N2      0.232000
     39 H5          3.0710    1.2540    2.4700 hn        1 0N2      0.338500
     40 H6          6.3860   -0.4540    0.0350 h2        1 0N2      0.115700
     41 H7          5.3020    0.4590   -2.5390 hc        1 0N2      0.077700
     42 H8          6.5230   -0.8510   -2.2630 hc        1 0N2      0.077700
     43 H9          6.9250    1.9610   -3.2600 h1        1 0N2      0.083700
     44 H10         8.7340    0.8890   -4.0700 ho        1 0N2      0.451000
     45 H11         9.2350    1.1430   -1.4780 h1        1 0N2      0.088700
     46 H12         7.4710    3.6610   -1.9150 h1        1 0N2      0.078200
     47 H13         8.3990    3.4540   -0.3370 h1        1 0N2      0.078200
     48 H16         7.1840    8.0380   -4.1780 h2        1 0N2      0.114700
     49 H17         9.4530    7.6760   -3.0960 hc        1 0N2      0.058200
     50 H18         8.9040    9.3890   -2.9010 hc        1 0N2      0.058200
     51 H19         9.4670    9.1220   -0.7090 h1        1 0N2      0.039700
     52 H20         9.0570    6.2330   -0.9400 hn        1 0N2      0.354800
     53 H21        10.6730    5.7460   -2.7610 ho        1 0N2      0.484000
     54 H23         6.9500    7.3610   -0.3280 h1        1 0N2      0.116700
     55 H24         7.9470    9.6890    0.9340 ho        1 0N2      0.390000
     56 H25         5.4690    9.2230   -0.7340 h1        1 0N2      0.064700
     57 H26         6.7730   11.1930   -0.1930 hc        1 0N2      0.036700
     58 H27         8.0220   10.8330   -1.4620 hc        1 0N2      0.036700
     59 H28         6.3460   11.3100   -1.9540 hc        1 0N2      0.036700
     60 H33         9.5950    7.0320    0.3710 hn        1 0N2      0.354800
@<TRIPOS>BOND
     1    1    2 2   
     2    2    3 1   
     3    2    6 1   
     4    3    4 1   
     5    3    5 2   
     6    4   35 1   
     7    4   36 1   
     8    4   37 1   
     9    5    9 1   
    10    5   38 1   
    11    6    7 1   
    12    6   39 1   
    13    7    8 2   
    14    7    9 1   
    15    9   10 1   
    16   10   11 1   
    17   10   12 1   
    18   10   40 1   
    19   11   15 1   
    20   12   13 1   
    21   12   41 1   
    22   12   42 1   
    23   13   14 1   
    24   13   15 1   
    25   13   43 1   
    26   14   44 1   
    27   15   16 1   
    28   15   45 1   
    29   16   17 1   
    30   16   46 1   
    31   16   47 1   
    32   17   18 1   
    33   18   19 1   
    34   18   20 2   
    35   18   21 1   
    36   19   53 1   
    37   21   22 1   
    38   22   23 1   
    39   22   24 1   
    40   22   25 1   
    41   25   26 1   
    42   26   27 1   
    43   26   33 1   
    44   26   48 1   
    45   27   28 1   
    46   27   49 1   
    47   27   50 1   
    48   28   29 1   
    49   28   30 1   
    50   28   51 1   
    51   29   52 1   
    52   29   60 1   
    53   30   31 1   
    54   30   32 1   
    55   30   54 1   
    56   31   55 1   
    57   32   33 1   
    58   32   34 1   
    59   32   56 1   
    60   34   57 1   
    61   34   58 1   
    62   34   59 1   
@<TRIPOS>SUBSTRUCTURE
     1 0N2         1 TEMP              0 ****  ****    0 ROOT
