@<TRIPOS>MOLECULE
0N2
   59    58     1     0     0
SMALL
bcc


@<TRIPOS>ATOM
      1 O41        -7.2150   -0.0400    3.0430 o         1 0N2     -0.381000
      2 C41        -6.4540    0.7480    2.5680 c1        1 0N2      0.359000
      3 C51        -6.3890    2.1300    3.1010 c2        1 0N2     -0.269000
      4 C5A        -7.3980    2.5950    4.1890 c3        1 0N2     -0.145000
      5 C61        -5.3530    3.0420    2.6280 c1        1 0N2      0.073000
      6 N31        -5.5310    0.3300    1.5760 n2        1 0N2     -0.373000
      7 C21        -4.4460    1.2190    1.1710 c2        1 0N2      0.395000
      8 O21        -3.5690    0.8090    0.4820 o         1 0N2     -0.399000
      9 N11        -4.4220    2.6070    1.6360 n2        1 0N2     -0.268000
     10 C1X        -3.6100    3.5600    0.9700 c3        1 0N2      0.154000
     11 O4X        -2.4960    2.8260    0.0940 os        1 0N2     -0.284000
     12 C2X        -2.9440    4.2740    1.8400 c3        1 0N2     -0.208000
     13 C3X        -1.5260    4.6080    1.1560 c3        1 0N2      0.040000
     14 O3X        -1.6550    5.7360    0.2700 oh        1 0N2     -0.368000
     15 C4X        -1.1760    3.5090    0.4580 c3        1 0N2     -0.056000
     16 C5X        -0.3130    2.5720    1.3250 c3        1 0N2      0.060000
     17 O5X         0.3790    1.6480    0.4810 os        1 0N2     -0.730000
     18 P           1.5500    0.7350    1.1320 p3        1 0N2      2.730000
     19 O1P         0.9610   -0.1110    2.2730 os        1 0N2     -1.193000
     20 O2P         2.6590    1.6410    1.6830 o         1 0N2     -1.228000
     21 OPP         2.1730   -0.2510   -0.0140 os        1 0N2     -1.275000
     22 P2          3.3210   -1.3190    0.2660 p5        1 0N2      2.079000
     23 O3P         4.5350   -0.6240    0.7900 o         1 0N2     -0.869000
     24 O4P         2.8410   -2.3070    1.2680 o         1 0N2     -0.869000
     25 O1          3.6880   -2.0690   -1.0860 os        1 0N2     -0.762000
     26 C1          4.3960   -3.2710   -1.0100 c3        1 0N2      0.199000
     27 C2          5.6140   -3.1720   -1.8890 c3        1 0N2     -0.239000
     28 C3          5.2710   -3.1380   -3.3190 c3        1 0N2     -0.046000
     29 N3          4.5940   -1.8540   -3.6220 n3        1 0N2     -0.337000
     30 C4          4.3760   -4.2500   -3.7070 c3        1 0N2      0.002000
     31 O4          5.1110   -5.4980   -3.6330 oh        1 0N2     -0.353000
     32 C5          3.1640   -4.3460   -2.8190 c3        1 0N2      0.005000
     33 O5          3.5090   -4.3730   -1.4030 os        1 0N2     -0.307000
     34 C6          2.4140   -5.6160   -3.1630 c3        1 0N2     -0.205000
     35 H1         -8.2960    2.6560    3.7990 hc        1 0N2      0.086667
     36 H2         -7.4050    1.9440    4.9310 hc        1 0N2      0.086667
     37 H3         -7.1200    3.5030    4.5400 hc        1 0N2      0.086667
     38 H4         -5.3610    3.9740    2.9120 ha        1 0N2      0.205000
     39 H5         -5.5870   -0.5130    1.2260 hn        1 0N2      0.248000
     40 H6         -4.1530    4.1330    0.4100 h2        1 0N2      0.138000
     41 H7         -2.8090    3.7600    2.6640 hc        1 0N2      0.104000
     42 H8         -3.4270    5.1040    2.0360 hc        1 0N2      0.104000
     43 H9         -0.8570    4.7960    1.8440 h1        1 0N2      0.119000
     44 H10        -1.1360    6.4120    0.5660 ho        1 0N2      0.287000
     45 H11        -0.6900    3.7650   -0.3550 h1        1 0N2      0.140000
     46 H12        -0.8890    2.0810    1.9450 h1        1 0N2      0.053000
     47 H13         0.3260    3.0920    1.8240 h1        1 0N2      0.053000
     48 H16         4.6920   -3.4140   -0.0580 h2        1 0N2      0.153000
     49 H17         6.2080   -3.9720   -1.7160 hc        1 0N2      0.079000
     50 H18         6.1040   -2.3580   -1.6600 hc        1 0N2      0.079000
     51 H19         6.0870   -3.1940   -3.8390 h1        1 0N2      0.070000
     52 H20         5.1990   -1.1750   -3.5790 hn        1 0N2      0.157500
     53 H21         4.2380   -1.8900   -4.4580 hn        1 0N2      0.157500
     54 H23         4.0740   -4.1070   -4.6520 h1        1 0N2      0.104000
     55 H24         5.4130   -5.7040   -4.4230 ho        1 0N2      0.207000
     56 H25         2.5680   -3.5560   -2.9950 h1        1 0N2      0.127000
     57 H26         2.9230   -6.4090   -2.8180 hc        1 0N2      0.075000
     58 H27         2.3210   -5.6840   -4.1290 hc        1 0N2      0.075000
     59 H28         1.5230   -5.5940   -2.7490 hc        1 0N2      0.075000
@<TRIPOS>BOND
     1    1    2 1   
     2    2    3 1   
     3    3    4 1   
     4    3    5 1   
     5    4   35 1   
     6    4   36 1   
     7    4   37 1   
     8    5   38 1   
     9    6    7 1   
    10    6   39 1   
    11    7    8 1   
    12    7    9 1   
    13    9   10 1   
    14   10   11 1   
    15   10   12 1   
    16   10   40 1   
    17   11   15 1   
    18   12   13 1   
    19   12   41 1   
    20   12   42 1   
    21   13   14 1   
    22   13   15 1   
    23   13   43 1   
    24   14   44 1   
    25   15   16 1   
    26   15   45 1   
    27   16   17 1   
    28   16   46 1   
    29   16   47 1   
    30   17   18 1   
    31   18   20 1   
    32   18   21 1   
    33   21   22 1   
    34   22   23 1   
    35   22   24 1   
    36   22   25 1   
    37   25   26 1   
    38   26   27 1   
    39   26   33 1   
    40   26   48 1   
    41   27   28 1   
    42   27   49 1   
    43   27   50 1   
    44   28   29 1   
    45   28   30 1   
    46   28   51 1   
    47   29   52 1   
    48   29   53 1   
    49   30   31 1   
    50   30   32 1   
    51   30   54 1   
    52   31   55 1   
    53   32   33 1   
    54   32   34 1   
    55   32   56 1   
    56   34   57 1   
    57   34   58 1   
    58   34   59 1   
@<TRIPOS>SUBSTRUCTURE
     1 0N2         1 TEMP              0 ****  ****    0 ROOT
