@<TRIPOS>MOLECULE
0N2
   60    62     1     0     0
SMALL
bcc


@<TRIPOS>ATOM
      1 O41         2.1400    3.3780    1.6030 o         1 0N2     -0.639500
      2 C41         3.0730    2.7810    1.0350 c         1 0N2      0.715700
      3 C51         3.7920    3.2380   -0.1620 cc        1 0N2     -0.258400
      4 C5A         3.3800    4.5240   -0.7590 c3        1 0N2     -0.039900
      5 C61         4.8040    2.4860   -0.6840 cd        1 0N2      0.045600
      6 N31         3.4920    1.5510    1.5760 n         1 0N2     -0.591500
      7 C21         4.5280    0.7830    1.0230 c         1 0N2      0.806500
      8 O21         4.8330   -0.3110    1.5550 o         1 0N2     -0.674500
      9 N11         5.1690    1.2560   -0.1490 n         1 0N2     -0.383000
     10 C1X         6.3030    0.4910   -0.6690 c3        1 0N2      0.300500
     11 O4X         7.5440    1.1500   -0.3730 os        1 0N2     -0.417600
     12 C2X         6.2520    0.2520   -2.1900 c3        1 0N2     -0.115400
     13 C3X         7.3520    1.1390   -2.7810 c3        1 0N2      0.118100
     14 O3X         8.1250    0.3420   -3.6560 oh        1 0N2     -0.617800
     15 C4X         8.1880    1.6130   -1.5690 c3        1 0N2      0.069100
     16 C5X         8.3360    3.1390   -1.4680 c3        1 0N2      0.142400
     17 O5X         9.5330    3.5880   -2.0510 os        1 0N2     -0.616200
     18 P           9.5360    4.0760   -3.5920 p5        1 0N2      1.785500
     19 O1P        10.7020    5.1530   -3.5050 oh        1 0N2     -0.772400
     20 O2P         9.6810    2.9560   -4.5110 o         1 0N2     -0.853300
     21 OPP         8.2330    4.9320   -3.6720 os        1 0N2     -0.815800
     22 P2          6.6610    5.5700   -3.6940 p5        1 0N2      1.587800
     23 O3P         5.8870    4.4920   -3.0560 o         1 0N2     -0.832500
     24 O4P         6.4710    6.2310   -4.9840 o         1 0N2     -0.832500
     25 O1          6.9560    6.7190   -2.5580 os        1 0N2     -0.607200
     26 C1          7.3220    7.9930   -2.9770 c3        1 0N2      0.369900
     27 C2          8.7330    8.3450   -2.5030 c3        1 0N2     -0.115400
     28 C3          8.8750    8.2160   -0.9810 c3        1 0N2      0.155500
     29 N3          9.5760    7.0060   -0.5900 n3        1 0N2     -0.905800
     30 C4          7.4770    8.3450   -0.3150 c3        1 0N2      0.073100
     31 O4          7.6160    8.7330    1.0400 oh        1 0N2     -0.599800
     32 C5          6.5410    9.2830   -1.0820 c3        1 0N2      0.129100
     33 O5          6.3480    8.8740   -2.4330 os        1 0N2     -0.428600
     34 C6          6.9950   10.7330   -1.0540 c3        1 0N2     -0.122100
     35 H1          2.2870    4.5020   -0.9990 hc        1 0N2      0.058033
     36 H2          3.5560    5.3570   -0.0330 hc        1 0N2      0.058033
     37 H3          3.9610    4.7280   -1.6950 hc        1 0N2      0.058033
     38 H4          5.3780    2.8340   -1.5800 h4        1 0N2      0.232000
     39 H5          3.0560    1.1950    2.3970 hn        1 0N2      0.338500
     40 H6          6.3460   -0.4820   -0.0900 h2        1 0N2      0.115700
     41 H7          5.2600    0.5020   -2.6380 hc        1 0N2      0.077700
     42 H8          6.4710   -0.8250   -2.3980 hc        1 0N2      0.077700
     43 H9          6.8930    2.0070   -3.3290 h1        1 0N2      0.083700
     44 H10         8.6890    0.9390   -4.1730 ho        1 0N2      0.451000
     45 H11         9.2030    1.1270   -1.5770 h1        1 0N2      0.088700
     46 H12         8.3920    3.4160   -0.3780 h1        1 0N2      0.078200
     47 H13         7.4590    3.6690   -1.9460 h1        1 0N2      0.078200
     48 H16         7.2020    8.1020   -4.0990 h2        1 0N2      0.114700
     49 H17         8.9400    9.4060   -2.7970 hc        1 0N2      0.058200
     50 H18         9.4720    7.6930   -3.0370 hc        1 0N2      0.058200
     51 H19         9.5090    9.0790   -0.6160 h1        1 0N2      0.039700
     52 H20         9.6230    6.9630    0.4110 hn        1 0N2      0.354800
     53 H21        10.6760    5.7450   -2.7560 ho        1 0N2      0.484000
     54 H23         6.9780    7.3310   -0.2670 h1        1 0N2      0.116700
     55 H24         8.0010    9.6180    1.0480 ho        1 0N2      0.390000
     56 H25         5.5120    9.2160   -0.6200 h1        1 0N2      0.064700
     57 H26         8.0760   10.8210   -1.3190 hc        1 0N2      0.036700
     58 H27         6.8350   11.1600   -0.0360 hc        1 0N2      0.036700
     59 H28         6.4020   11.3250   -1.7920 hc        1 0N2      0.036700
     60 H33         9.0720    6.2000   -0.9160 hn        1 0N2      0.354800
@<TRIPOS>BOND
     1    1    2 2   
     2    2    3 1   
     3    2    6 1   
     4    3    4 1   
     5    3    5 2   
     6    4   35 1   
     7    4   36 1   
     8    4   37 1   
     9    5    9 1   
    10    5   38 1   
    11    6    7 1   
    12    6   39 1   
    13    7    8 2   
    14    7    9 1   
    15    9   10 1   
    16   10   11 1   
    17   10   12 1   
    18   10   40 1   
    19   11   15 1   
    20   12   13 1   
    21   12   41 1   
    22   12   42 1   
    23   13   14 1   
    24   13   15 1   
    25   13   43 1   
    26   14   44 1   
    27   15   16 1   
    28   15   45 1   
    29   16   17 1   
    30   16   46 1   
    31   16   47 1   
    32   17   18 1   
    33   18   19 1   
    34   18   20 2   
    35   18   21 1   
    36   19   53 1   
    37   21   22 1   
    38   22   23 1   
    39   22   24 1   
    40   22   25 1   
    41   25   26 1   
    42   26   27 1   
    43   26   33 1   
    44   26   48 1   
    45   27   28 1   
    46   27   49 1   
    47   27   50 1   
    48   28   29 1   
    49   28   30 1   
    50   28   51 1   
    51   29   52 1   
    52   29   60 1   
    53   30   31 1   
    54   30   32 1   
    55   30   54 1   
    56   31   55 1   
    57   32   33 1   
    58   32   34 1   
    59   32   56 1   
    60   34   57 1   
    61   34   58 1   
    62   34   59 1   
@<TRIPOS>SUBSTRUCTURE
     1 0N2         1 TEMP              0 ****  ****    0 ROOT
