@<TRIPOS>MOLECULE
0N2
   59    61     1     0     0
SMALL
bcc


@<TRIPOS>ATOM
      1 O41         5.2170   -4.2260   -0.2990 o         1 0N2     -0.669500
      2 C41         4.9640   -3.0220   -0.0890 c         1 0N2      0.715700
      3 C51         3.7090   -2.3270   -0.3830 cc        1 0N2     -0.273400
      4 C5A         2.6110   -3.1060   -0.9880 c3        1 0N2     -0.043900
      5 C61         3.5730   -0.9970   -0.0920 cd        1 0N2      0.065600
      6 N31         5.9860   -2.2400    0.4840 n         1 0N2     -0.596500
      7 C21         5.8330   -0.8750    0.7720 c         1 0N2      0.800500
      8 O21         6.8070   -0.2540    1.2710 o         1 0N2     -0.699500
      9 N11         4.6110   -0.2470    0.4480 n         1 0N2     -0.374000
     10 C1X         4.4310    1.1580    0.8460 c3        1 0N2      0.301500
     11 O4X         3.4870    1.2660    1.9110 os        1 0N2     -0.428600
     12 C2X         3.9670    2.0740   -0.3030 c3        1 0N2     -0.120400
     13 C3X         2.5370    2.4900    0.0560 c3        1 0N2      0.139100
     14 O3X         2.4560    3.8990   -0.0160 oh        1 0N2     -0.650800
     15 C4X         2.3080    1.9890    1.4990 c3        1 0N2      0.070100
     16 C5X         1.0860    1.0660    1.6530 c3        1 0N2      0.171400
     17 O5X        -0.0450    1.7660    2.0480 os        1 0N2     -0.592200
     18 P          -1.1140    2.3000    0.8960 p5        1 0N2      1.605800
     19 O1P        -2.4380    2.3710    1.5400 o         1 0N2     -0.878000
     20 O2P        -0.4000    3.4320    0.2650 o         1 0N2     -0.878000
     21 OPP        -1.0740    1.0500   -0.1480 os        1 0N2     -0.833800
     22 P2         -0.8520   -0.1720   -1.2010 p5        1 0N2      1.601800
     23 O3P        -1.6360    0.0450   -2.4260 o         1 0N2     -0.874000
     24 O4P         0.5860   -0.5280   -1.1610 o         1 0N2     -0.874000
     25 O1         -1.6670   -1.3260   -0.3120 os        1 0N2     -0.558200
     26 C1         -3.0130   -1.0990   -0.1340 c3        1 0N2      0.393900
     27 C2         -3.3570   -0.6880    1.3010 c3        1 0N2     -0.148400
     28 C3         -4.8770   -0.5700    1.4320 c3        1 0N2      0.152500
     29 N3         -5.2850   -0.1580    2.7670 n3        1 0N2     -0.910800
     30 C4         -5.5150   -1.9220    1.0310 c3        1 0N2      0.106100
     31 O4         -6.9350   -1.8510    1.0230 oh        1 0N2     -0.615800
     32 C5         -4.9980   -2.4040   -0.3400 c3        1 0N2      0.130100
     33 O5         -3.5840   -2.3980   -0.4090 os        1 0N2     -0.428600
     34 C6         -5.6210   -1.6460   -1.5010 c3        1 0N2     -0.132100
     35 H1          2.9590   -3.5860   -1.9360 hc        1 0N2      0.059700
     36 H2          2.2870   -3.9170   -0.2890 hc        1 0N2      0.059700
     37 H3          1.7330   -2.4400   -1.2080 hc        1 0N2      0.059700
     38 H4          2.6060   -0.4590   -0.2970 h4        1 0N2      0.261000
     39 H5          6.8560   -2.6580    0.7240 hn        1 0N2      0.326500
     40 H6          5.4160    1.5040    1.2820 h2        1 0N2      0.094700
     41 H7          4.6340    2.9700   -0.3480 hc        1 0N2      0.064700
     42 H8          3.9890    1.5670   -1.2970 hc        1 0N2      0.064700
     43 H9          1.8050    2.0220   -0.6570 h1        1 0N2      0.092700
     44 H10         1.5040    4.1190    0.0120 ho        1 0N2      0.478000
     45 H11         2.2250    2.8580    2.2070 h1        1 0N2      0.078700
     46 H12         0.8910    0.5090    0.6900 h1        1 0N2      0.051700
     47 H13         1.3210    0.3220    2.4670 h1        1 0N2      0.051700
     48 H16        -3.4040   -0.3500   -0.8860 h2        1 0N2      0.050700
     49 H17        -2.9520   -1.4480    2.0130 hc        1 0N2      0.093700
     50 H18        -2.8710    0.3090    1.5180 hc        1 0N2      0.093700
     51 H19        -5.2210    0.1920    0.6610 h1        1 0N2      0.014700
     52 H20        -4.6380    0.5280    3.1120 hn        1 0N2      0.349300
     53 H21        -6.1990    0.2470    2.7230 hn        1 0N2      0.349300
     54 H23        -5.2810   -2.7020    1.8080 h1        1 0N2      0.082700
     55 H24        -7.1730   -1.1100    0.4540 ho        1 0N2      0.386000
     56 H25        -5.2590   -3.4990   -0.4440 h1        1 0N2      0.045700
     57 H26        -5.0420   -1.8550   -2.4330 hc        1 0N2      0.039700
     58 H27        -6.6800   -1.9690   -1.6420 hc        1 0N2      0.039700
     59 H28        -5.6020   -0.5440   -1.3230 hc        1 0N2      0.039700
@<TRIPOS>BOND
     1    1    2 2   
     2    2    3 1   
     3    2    6 1   
     4    3    4 1   
     5    3    5 2   
     6    4   35 1   
     7    4   36 1   
     8    4   37 1   
     9    5    9 1   
    10    5   38 1   
    11    6    7 1   
    12    6   39 1   
    13    7    8 2   
    14    7    9 1   
    15    9   10 1   
    16   10   11 1   
    17   10   12 1   
    18   10   40 1   
    19   11   15 1   
    20   12   13 1   
    21   12   41 1   
    22   12   42 1   
    23   13   14 1   
    24   13   15 1   
    25   13   43 1   
    26   14   44 1   
    27   15   16 1   
    28   15   45 1   
    29   16   17 1   
    30   16   46 1   
    31   16   47 1   
    32   17   18 1   
    33   18   19 1   
    34   18   20 1   
    35   18   21 1   
    36   21   22 1   
    37   22   23 1   
    38   22   24 1   
    39   22   25 1   
    40   25   26 1   
    41   26   27 1   
    42   26   33 1   
    43   26   48 1   
    44   27   28 1   
    45   27   49 1   
    46   27   50 1   
    47   28   29 1   
    48   28   30 1   
    49   28   51 1   
    50   29   52 1   
    51   29   53 1   
    52   30   31 1   
    53   30   32 1   
    54   30   54 1   
    55   31   55 1   
    56   32   33 1   
    57   32   34 1   
    58   32   56 1   
    59   34   57 1   
    60   34   58 1   
    61   34   59 1   
@<TRIPOS>SUBSTRUCTURE
     1 0N2         1 TEMP              0 ****  ****    0 ROOT
