@<TRIPOS>MOLECULE
0N5
   47    50     1     0     0
SMALL
bcc


@<TRIPOS>ATOM
      1 C1         -5.6250    3.3940    0.3650 c3        1 0N5      0.119700
      2 O1         -6.4310    2.2780    0.0010 os        1 0N5     -0.346900
      3 C2         -5.7860    1.0550   -0.0660 ca        1 0N5      0.048100
      4 C3         -4.4240    0.8650    0.0030 ca        1 0N5     -0.139000
      5 C4         -3.8830   -0.4390   -0.0940 ca        1 0N5     -0.288600
      6 C5         -4.7600   -1.5600   -0.2410 ca        1 0N5      0.446600
      7 C6         -6.1680   -1.3410   -0.3190 ca        1 0N5     -0.206300
      8 C7         -6.6710   -0.0590   -0.2360 ca        1 0N5      0.145100
      9 O2         -8.0320    0.0990   -0.3230 oh        1 0N5     -0.488100
     10 N1         -4.2760   -2.8560   -0.3040 nb        1 0N5     -0.711000
     11 C8         -2.9540   -2.9900   -0.2220 ca        1 0N5      0.666900
     12 N2         -2.0010   -2.0070   -0.1010 nb        1 0N5     -0.765000
     13 C9         -2.4490   -0.7330   -0.0400 ca        1 0N5      0.691200
     14 N3         -1.5550    0.3340    0.1320 nh        1 0N5     -0.714300
     15 C10        -0.1500    0.1640    0.1020 ca        1 0N5      0.098600
     16 C11         0.6410    0.9560   -0.7570 ca        1 0N5     -0.111000
     17 C12         2.0260    0.8710   -0.7410 ca        1 0N5     -0.155000
     18 C13         2.6790   -0.0220    0.1340 ca        1 0N5      0.060600
     19 C14         1.8840   -0.8190    0.9920 ca        1 0N5     -0.155000
     20 C15         0.5000   -0.7270    0.9800 ca        1 0N5     -0.111000
     21 N4          4.0740   -0.1720    0.1800 n         1 0N5     -0.467100
     22 C16         5.0280    0.6480   -0.4090 c         1 0N5      0.680700
     23 O3          4.7380    1.6570   -1.0770 o         1 0N5     -0.585100
     24 C17         6.4510    0.2550   -0.1800 ca        1 0N5     -0.148600
     25 C18         6.8720   -1.0760   -0.2640 ca        1 0N5     -0.091500
     26 C19         8.2160   -1.3910   -0.0650 ca        1 0N5     -0.136000
     27 C20         9.1370   -0.3830    0.2200 ca        1 0N5     -0.107000
     28 C21         8.7190    0.9450    0.2960 ca        1 0N5     -0.136000
     29 C22         7.3780    1.2680    0.0910 ca        1 0N5     -0.091500
     30 H1         -5.1180    3.2150    1.3440 h1        1 0N5      0.048700
     31 H2         -4.8750    3.6080   -0.4350 h1        1 0N5      0.048700
     32 H3         -6.3650    4.2310    0.4470 h1        1 0N5      0.048700
     33 H4         -3.7680    1.7340    0.1550 ha        1 0N5      0.139000
     34 H5         -6.8540   -2.1940   -0.4410 ha        1 0N5      0.176000
     35 H6         -8.2380    1.0420   -0.2230 ho        1 0N5      0.441000
     36 H7         -2.5460   -4.0230   -0.2660 h5        1 0N5      0.053100
     37 H8         -1.8620    1.1860   -0.2920 hn        1 0N5      0.422800
     38 H9          0.1680    1.6620   -1.4580 ha        1 0N5      0.142500
     39 H10         2.6070    1.5130   -1.4250 ha        1 0N5      0.153000
     40 H11         2.3560   -1.5300    1.6890 ha        1 0N5      0.153000
     41 H12        -0.0830   -1.3630    1.6640 ha        1 0N5      0.142500
     42 H13         4.4080   -0.9120    0.7580 hn        1 0N5      0.320500
     43 H14         6.1570   -1.8770   -0.5070 ha        1 0N5      0.146000
     44 H15         8.5480   -2.4370   -0.1360 ha        1 0N5      0.139000
     45 H16        10.1960   -0.6360    0.3800 ha        1 0N5      0.137000
     46 H17         9.4460    1.7420    0.5120 ha        1 0N5      0.139000
     47 H18         7.0400    2.3160    0.1290 ha        1 0N5      0.146000
@<TRIPOS>BOND
     1    1    2 1   
     2    1   30 1   
     3    1   31 1   
     4    1   32 1   
     5    2    3 1   
     6    3    4 ar  
     7    3    8 ar  
     8    4    5 ar  
     9    4   33 1   
    10    5    6 ar  
    11    5   13 ar  
    12    6    7 ar  
    13    6   10 ar  
    14    7    8 ar  
    15    7   34 1   
    16    8    9 1   
    17    9   35 1   
    18   10   11 ar  
    19   11   12 ar  
    20   11   36 1   
    21   12   13 ar  
    22   13   14 1   
    23   14   15 1   
    24   14   37 1   
    25   15   16 ar  
    26   15   20 ar  
    27   16   17 ar  
    28   16   38 1   
    29   17   18 ar  
    30   17   39 1   
    31   18   19 ar  
    32   18   21 1   
    33   19   20 ar  
    34   19   40 1   
    35   20   41 1   
    36   21   22 1   
    37   21   42 1   
    38   22   23 2   
    39   22   24 1   
    40   24   25 ar  
    41   24   29 ar  
    42   25   26 ar  
    43   25   43 1   
    44   26   27 ar  
    45   26   44 1   
    46   27   28 ar  
    47   27   45 1   
    48   28   29 ar  
    49   28   46 1   
    50   29   47 1   
@<TRIPOS>SUBSTRUCTURE
     1 0N5         1 TEMP              0 ****  ****    0 ROOT
