@<TRIPOS>MOLECULE
0N5
   49    52     1     0     0
SMALL
bcc


@<TRIPOS>ATOM
      1 C1          0.1260   -0.0930   -0.3570 c3        1 0N5      0.099700
      2 O1          1.5180    0.1620   -0.1520 os        1 0N5     -0.260900
      3 C2          1.9870    0.1110    1.1230 ca        1 0N5      0.211100
      4 C3          1.2420   -0.1440    2.2560 ca        1 0N5     -0.272000
      5 C4          1.8630   -0.1680    3.5300 ca        1 0N5     -0.210600
      6 C5          3.2880    0.0610    3.6450 ca        1 0N5      0.462600
      7 C6          4.0380    0.3290    2.4560 ca        1 0N5     -0.258300
      8 C7          3.4160    0.3570    1.2310 ca        1 0N5      0.180100
      9 O2          4.0410    0.6050    0.0500 oh        1 0N5     -0.435100
     10 N1          3.9230    0.0250    4.8580 nb        1 0N5     -0.605000
     11 C8          3.1730   -0.2320    5.9390 ca        1 0N5      0.652900
     12 N2          1.8190   -0.4560    5.9650 nb        1 0N5     -0.692000
     13 C9          1.1990   -0.4130    4.7740 ca        1 0N5      0.480200
     14 N3         -0.2750   -0.6490    4.7500 n4        1 0N5     -0.629100
     15 C10        -0.9420   -0.5090    6.0500 ca        1 0N5      0.026600
     16 C11        -1.6460    0.6700    6.3470 ca        1 0N5     -0.069000
     17 C12        -2.2830    0.8020    7.5790 ca        1 0N5     -0.076000
     18 C13        -2.2090   -0.2390    8.5220 ca        1 0N5      0.008600
     19 C14        -1.5010   -1.4170    8.2230 ca        1 0N5     -0.076000
     20 C15        -0.8640   -1.5500    6.9920 ca        1 0N5     -0.069000
     21 N4         -2.8680   -0.0950    9.8200 n4        1 0N5     -0.570200
     22 C16        -4.4170   -0.1140    9.7510 c         1 0N5      0.590700
     23 O3         -4.8860    0.2310    8.6800 o         1 0N5     -0.418100
     24 C17        -5.0810   -0.5480   10.9710 ca        1 0N5     -0.222600
     25 C18        -4.4870   -0.4930   12.2450 ca        1 0N5     -0.063000
     26 C19        -5.2100   -0.9020   13.3590 ca        1 0N5     -0.118500
     27 C20        -6.5240   -1.3690   13.2200 ca        1 0N5     -0.031000
     28 C21        -7.1170   -1.4170   11.9580 ca        1 0N5     -0.118500
     29 C22        -6.4070   -1.0040   10.8330 ca        1 0N5     -0.063000
     30 H1         -0.4920    0.6740    0.1670 h1        1 0N5      0.065367
     31 H2          0.0220    0.0030   -1.4710 h1        1 0N5      0.065367
     32 H3         -0.1360   -1.1250   -0.0210 h1        1 0N5      0.065367
     33 H4          0.1670   -0.3420    2.1460 ha        1 0N5      0.129000
     34 H5          5.1250    0.5090    2.5420 ha        1 0N5      0.195000
     35 H6          4.9910    0.7500    0.2150 ho        1 0N5      0.455000
     36 H7          3.6880   -0.2710    6.9260 h5        1 0N5      0.095100
     37 H8         -0.4260   -1.6060    4.3950 hn        1 0N5      0.473300
     38 H9         -1.7100    1.5070    5.6280 ha        1 0N5      0.188000
     39 H10        -2.8540    1.7260    7.7880 ha        1 0N5      0.187000
     40 H11        -1.4280   -2.2500    8.9470 ha        1 0N5      0.187000
     41 H12        -0.2900   -2.4730    6.7850 ha        1 0N5      0.188000
     42 H13        -2.5660   -0.8540   10.4450 hn        1 0N5      0.469800
     43 H14        -3.4710   -0.1020   12.3980 ha        1 0N5      0.148000
     44 H15        -4.7500   -0.8530   14.3620 ha        1 0N5      0.179000
     45 H16        -7.0890   -1.6920   14.1120 ha        1 0N5      0.181000
     46 H17        -8.1560   -1.7750   11.8470 ha        1 0N5      0.179000
     47 H18        -6.8810   -1.0300    9.8360 ha        1 0N5      0.148000
     48 H32        -0.6810    0.0250    4.0850 hn        1 0N5      0.473300
     49 H42        -2.5840    0.8020   10.2360 hn        1 0N5      0.469800
@<TRIPOS>BOND
     1    1    2 1   
     2    1   30 1   
     3    1   31 1   
     4    1   32 1   
     5    2    3 1   
     6    3    4 ar  
     7    3    8 ar  
     8    4    5 ar  
     9    4   33 1   
    10    5    6 ar  
    11    5   13 ar  
    12    6    7 ar  
    13    6   10 ar  
    14    7    8 ar  
    15    7   34 1   
    16    8    9 1   
    17    9   35 1   
    18   10   11 ar  
    19   11   12 ar  
    20   11   36 1   
    21   12   13 ar  
    22   13   14 1   
    23   14   15 1   
    24   14   37 1   
    25   14   48 1   
    26   15   16 ar  
    27   15   20 ar  
    28   16   17 ar  
    29   16   38 1   
    30   17   18 ar  
    31   17   39 1   
    32   18   19 ar  
    33   18   21 1   
    34   19   20 ar  
    35   19   40 1   
    36   20   41 1   
    37   21   22 1   
    38   21   42 1   
    39   21   49 1   
    40   22   23 2   
    41   22   24 1   
    42   24   25 ar  
    43   24   29 ar  
    44   25   26 ar  
    45   25   43 1   
    46   26   27 ar  
    47   26   44 1   
    48   27   28 ar  
    49   27   45 1   
    50   28   29 ar  
    51   28   46 1   
    52   29   47 1   
@<TRIPOS>SUBSTRUCTURE
     1 0N5         1 TEMP              0 ****  ****    0 ROOT
