@<TRIPOS>MOLECULE
0N5
   47    50     1     0     0
SMALL
bcc


@<TRIPOS>ATOM
      1 C1          0.1410   -0.1650   -0.2420 c3        1 0N5      0.107700
      2 O1          1.5330    0.1180   -0.1420 os        1 0N5     -0.299900
      3 C2          2.0580    0.1420    1.1320 ca        1 0N5      0.104100
      4 C3          1.3420   -0.0230    2.2990 ca        1 0N5     -0.160000
      5 C4          1.9910    0.0260    3.5560 ca        1 0N5     -0.282600
      6 C5          3.4050    0.2240    3.6150 ca        1 0N5      0.449600
      7 C6          4.1310    0.4010    2.3970 ca        1 0N5     -0.263300
      8 C7          3.4750    0.3650    1.1870 ca        1 0N5      0.146100
      9 O2          4.1050    0.5290   -0.0210 oh        1 0N5     -0.470100
     10 N1          4.0880    0.2450    4.8180 nb        1 0N5     -0.716000
     11 C8          3.3470    0.0710    5.9120 ca        1 0N5      0.666900
     12 N2          1.9880   -0.1070    6.0020 nb        1 0N5     -0.765000
     13 C9          1.3000   -0.1290    4.8380 ca        1 0N5      0.691200
     14 N3         -0.0840   -0.3540    4.8280 nh        1 0N5     -0.715300
     15 C10        -0.8560   -0.4160    6.0140 ca        1 0N5      0.099600
     16 C11        -2.0030    0.3920    6.1530 ca        1 0N5     -0.111000
     17 C12        -2.8260    0.2870    7.2660 ca        1 0N5     -0.155000
     18 C13        -2.5270   -0.6300    8.2940 ca        1 0N5      0.060600
     19 C14        -1.3730   -1.4380    8.1540 ca        1 0N5     -0.155000
     20 C15        -0.5560   -1.3370    7.0380 ca        1 0N5     -0.111000
     21 N4         -3.3050   -0.7670    9.4540 n         1 0N5     -0.467100
     22 C16        -4.5660   -0.2340    9.6900 c         1 0N5      0.680700
     23 O3         -5.1760    0.4610    8.8570 o         1 0N5     -0.584100
     24 C17        -5.1700   -0.5590   11.0170 ca        1 0N5     -0.148600
     25 C18        -4.4230   -0.5140   12.1980 ca        1 0N5     -0.091500
     26 C19        -5.0370   -0.8040   13.4160 ca        1 0N5     -0.136500
     27 C20        -6.3910   -1.1400   13.4570 ca        1 0N5     -0.107000
     28 C21        -7.1370   -1.1760   12.2790 ca        1 0N5     -0.136500
     29 C22        -6.5320   -0.8810   11.0590 ca        1 0N5     -0.091500
     30 H1         -0.0420   -0.1600   -1.3470 h1        1 0N5      0.046700
     31 H2         -0.0930   -1.1670    0.1930 h1        1 0N5      0.046700
     32 H3         -0.4600    0.6320    0.2590 h1        1 0N5      0.046700
     33 H4          0.2610   -0.2150    2.2370 ha        1 0N5      0.140000
     34 H5          5.2190    0.5630    2.4410 ha        1 0N5      0.160000
     35 H6          5.0500    0.6650    0.1520 ho        1 0N5      0.423000
     36 H7          3.8770    0.0800    6.8880 h5        1 0N5      0.052100
     37 H8         -0.5570    0.0830    4.0650 hn        1 0N5      0.423800
     38 H9         -2.2680    1.1240    5.3730 ha        1 0N5      0.142500
     39 H10        -3.7170    0.9340    7.3320 ha        1 0N5      0.153000
     40 H11        -1.1040   -2.1660    8.9360 ha        1 0N5      0.153000
     41 H12         0.3310   -1.9850    6.9650 ha        1 0N5      0.142500
     42 H13        -2.9310   -1.3720   10.1530 hn        1 0N5      0.319500
     43 H14        -3.3590   -0.2320   12.1800 ha        1 0N5      0.146500
     44 H15        -4.4510   -0.7640   14.3470 ha        1 0N5      0.139000
     45 H16        -6.8700   -1.3710   14.4200 ha        1 0N5      0.137000
     46 H17        -8.2060   -1.4320   12.3120 ha        1 0N5      0.139000
     47 H18        -7.1160   -0.8880   10.1250 ha        1 0N5      0.146500
@<TRIPOS>BOND
     1    1    2 1   
     2    1   30 1   
     3    1   31 1   
     4    1   32 1   
     5    2    3 1   
     6    3    4 ar  
     7    3    8 ar  
     8    4    5 ar  
     9    4   33 1   
    10    5    6 ar  
    11    5   13 ar  
    12    6    7 ar  
    13    6   10 ar  
    14    7    8 ar  
    15    7   34 1   
    16    8    9 1   
    17    9   35 1   
    18   10   11 ar  
    19   11   12 ar  
    20   11   36 1   
    21   12   13 ar  
    22   13   14 1   
    23   14   15 1   
    24   14   37 1   
    25   15   16 ar  
    26   15   20 ar  
    27   16   17 ar  
    28   16   38 1   
    29   17   18 ar  
    30   17   39 1   
    31   18   19 ar  
    32   18   21 1   
    33   19   20 ar  
    34   19   40 1   
    35   20   41 1   
    36   21   22 1   
    37   21   42 1   
    38   22   23 2   
    39   22   24 1   
    40   24   25 ar  
    41   24   29 ar  
    42   25   26 ar  
    43   25   43 1   
    44   26   27 ar  
    45   26   44 1   
    46   27   28 ar  
    47   27   45 1   
    48   28   29 ar  
    49   28   46 1   
    50   29   47 1   
@<TRIPOS>SUBSTRUCTURE
     1 0N5         1 TEMP              0 ****  ****    0 ROOT
