@<TRIPOS>MOLECULE
0N5
   47    50     1     0     0
SMALL
bcc


@<TRIPOS>ATOM
      1 C1          0.1390   -0.1370   -0.2430 c3        1 0N5      0.107700
      2 O1          1.5310    0.1410   -0.1420 os        1 0N5     -0.299900
      3 C2          2.0570    0.1560    1.1330 ca        1 0N5      0.104100
      4 C3          1.3410   -0.0130    2.2990 ca        1 0N5     -0.160000
      5 C4          1.9910    0.0280    3.5560 ca        1 0N5     -0.282600
      6 C5          3.4060    0.2200    3.6160 ca        1 0N5      0.449600
      7 C6          4.1320    0.4000    2.3980 ca        1 0N5     -0.263300
      8 C7          3.4750    0.3730    1.1880 ca        1 0N5      0.146100
      9 O2          4.1050    0.5410   -0.0190 oh        1 0N5     -0.470100
     10 N1          4.0890    0.2320    4.8180 nb        1 0N5     -0.716000
     11 C8          3.3470    0.0550    5.9120 ca        1 0N5      0.666900
     12 N2          1.9880   -0.1180    6.0020 nb        1 0N5     -0.765000
     13 C9          1.2990   -0.1320    4.8370 ca        1 0N5      0.691200
     14 N3         -0.0850   -0.3510    4.8270 nu        1 0N5     -0.715300
     15 C10        -0.8570   -0.4160    6.0120 ca        1 0N5      0.099600
     16 C11        -2.0010    0.3970    6.1570 ca        1 0N5     -0.111000
     17 C12        -2.8240    0.2890    7.2690 ca        1 0N5     -0.155000
     18 C13        -2.5280   -0.6340    8.2930 ca        1 0N5      0.060600
     19 C14        -1.3770   -1.4470    8.1480 ca        1 0N5     -0.155000
     20 C15        -0.5610   -1.3430    7.0310 ca        1 0N5     -0.111000
     21 N4         -3.3060   -0.7740    9.4530 ns        1 0N5     -0.467100
     22 C16        -4.5630   -0.2350    9.6920 c         1 0N5      0.680700
     23 O3         -5.1710    0.4670    8.8640 o         1 0N5     -0.584100
     24 C17        -5.1680   -0.5650   11.0180 ca        1 0N5     -0.148600
     25 C18        -4.4200   -0.5300   12.1990 ca        1 0N5     -0.091500
     26 C19        -5.0340   -0.8240   13.4160 ca        1 0N5     -0.136500
     27 C20        -6.3890   -1.1530   13.4570 ca        1 0N5     -0.107000
     28 C21        -7.1370   -1.1790   12.2800 ca        1 0N5     -0.136500
     29 C22        -6.5310   -0.8800   11.0600 ca        1 0N5     -0.091500
     30 H1         -0.0990   -1.1400    0.1880 h1        1 0N5      0.046700
     31 H2         -0.0440   -0.1260   -1.3470 h1        1 0N5      0.046700
     32 H3         -0.4600    0.6600    0.2630 h1        1 0N5      0.046700
     33 H4          0.2590   -0.2000    2.2360 ha        1 0N5      0.140000
     34 H5          5.2210    0.5570    2.4430 ha        1 0N5      0.160000
     35 H6          5.0510    0.6720    0.1540 ho        1 0N5      0.423000
     36 H7          3.8780    0.0570    6.8880 h5        1 0N5      0.052100
     37 H8         -0.5580    0.0920    4.0660 hn        1 0N5      0.423800
     38 H9         -2.2630    1.1340    5.3810 ha        1 0N5      0.142500
     39 H10        -3.7120    0.9400    7.3400 ha        1 0N5      0.153000
     40 H11        -1.1110   -2.1800    8.9260 ha        1 0N5      0.153000
     41 H12         0.3240   -1.9940    6.9550 ha        1 0N5      0.142500
     42 H13        -2.9340   -1.3840   10.1480 hn        1 0N5      0.319500
     43 H14        -3.3540   -0.2540   12.1810 ha        1 0N5      0.146500
     44 H15        -4.4470   -0.7920   14.3460 ha        1 0N5      0.139000
     45 H16        -6.8690   -1.3860   14.4190 ha        1 0N5      0.137000
     46 H17        -8.2070   -1.4300   12.3120 ha        1 0N5      0.139000
     47 H18        -7.1160   -0.8790   10.1270 ha        1 0N5      0.146500
@<TRIPOS>BOND
     1    1    2 1   
     2    1   30 1   
     3    1   31 1   
     4    1   32 1   
     5    2    3 1   
     6    3    4 ar  
     7    3    8 ar  
     8    4    5 ar  
     9    4   33 1   
    10    5    6 ar  
    11    5   13 ar  
    12    6    7 ar  
    13    6   10 ar  
    14    7    8 ar  
    15    7   34 1   
    16    8    9 1   
    17    9   35 1   
    18   10   11 ar  
    19   11   12 ar  
    20   11   36 1   
    21   12   13 ar  
    22   13   14 1   
    23   14   15 1   
    24   14   37 1   
    25   15   16 ar  
    26   15   20 ar  
    27   16   17 ar  
    28   16   38 1   
    29   17   18 ar  
    30   17   39 1   
    31   18   19 ar  
    32   18   21 1   
    33   19   20 ar  
    34   19   40 1   
    35   20   41 1   
    36   21   22 1   
    37   21   42 1   
    38   22   23 2   
    39   22   24 1   
    40   24   25 ar  
    41   24   29 ar  
    42   25   26 ar  
    43   25   43 1   
    44   26   27 ar  
    45   26   44 1   
    46   27   28 ar  
    47   27   45 1   
    48   28   29 ar  
    49   28   46 1   
    50   29   47 1   
@<TRIPOS>SUBSTRUCTURE
     1 0N5         1 TEMP              0 ****  ****    0 ROOT
