@<TRIPOS>MOLECULE
0N5
   47    40     1     0     0
SMALL
bcc


@<TRIPOS>ATOM
      1 C1          4.5370   -5.3150   -3.4690 c3        1 0N5     -0.076000
      2 O1          3.2410   -5.4560   -2.9250 os        1 0N5     -0.211000
      3 C2          3.0650   -4.7960   -1.6940 c2        1 0N5      0.026000
      4 C3          2.6100   -3.4870   -1.6560 c2        1 0N5     -0.085000
      5 C4          2.7610   -2.7200   -0.4790 c1        1 0N5     -0.177000
      6 C5          3.3510   -3.2670    0.6160 c1        1 0N5      0.071000
      7 C6          3.8140   -4.6020    0.5770 c1        1 0N5     -0.206000
      8 C7          3.6660   -5.3530   -0.5780 c1        1 0N5      0.090000
      9 O2          4.0430   -6.7050   -0.4810 o         1 0N5     -0.244000
     10 N1          3.5840   -2.4990    1.7180 n1        1 0N5     -0.199000
     11 C8          3.2230   -1.1800    1.7210 c1        1 0N5      0.014000
     12 N2          2.6270   -0.6270    0.6160 n1        1 0N5     -0.247000
     13 C9          2.3960   -1.3820   -0.4730 c1        1 0N5      0.186000
     14 N3          1.7300   -0.4230   -1.2900 n2        1 0N5     -0.240000
     15 C10         0.5930    0.2750   -0.7870 c2        1 0N5      0.020000
     16 C11        -0.6320   -0.3680   -0.7000 c2        1 0N5     -0.080000
     17 C12        -1.7500    0.3240   -0.2540 c1        1 0N5     -0.174000
     18 C13        -1.6420    1.6600    0.1040 c1        1 0N5      0.070000
     19 C14        -0.4160    2.3030    0.0170 c1        1 0N5     -0.140000
     20 C15         0.7010    1.6110   -0.4290 c1        1 0N5     -0.139000
     21 N4         -2.7640    2.3380    0.6720 n         1 0N5     -0.321000
     22 C16        -2.8530    3.7570    0.5910 c2        1 0N5      0.354000
     23 O3         -1.9760    4.3910    0.0390 o         1 0N5     -0.344000
     24 C17        -4.0400    4.4800    1.2090 c2        1 0N5     -0.128000
     25 C18        -5.3120    4.2950    0.6900 c2        1 0N5     -0.106000
     26 C19        -6.3920    4.9650    1.2470 c1        1 0N5     -0.136000
     27 C20        -6.1990    5.8190    2.3220 c1        1 0N5     -0.121500
     28 C21        -4.9270    6.0040    2.8410 c1        1 0N5     -0.121500
     29 C22        -3.8470    5.3350    2.2850 c1        1 0N5     -0.077000
     30 H1          4.5690   -4.5110   -4.0310 h1        1 0N5      0.085667
     31 H2          5.1900   -5.2330   -2.7420 h1        1 0N5      0.085667
     32 H3          4.7510   -6.1040   -4.0140 h1        1 0N5      0.085667
     33 H4          2.1950   -3.0920   -2.4460 ha        1 0N5      0.148000
     34 H5          4.2390   -4.9940    1.3640 ha        1 0N5      0.158000
     35 H6          3.4090   -7.1600   -0.0520 ho        1 0N5      0.226000
     36 H7          3.3900   -0.6310    2.5110 ha        1 0N5      0.189000
     37 H8          2.0120   -0.2780   -2.1450 hn        1 0N5      0.227000
     38 H9         -0.7090   -1.3090   -0.9520 ha        1 0N5      0.155000
     39 H10        -2.6120   -0.1300   -0.1930 ha        1 0N5      0.132000
     40 H11        -0.3390    3.2440    0.2690 ha        1 0N5      0.176000
     41 H12         1.5640    2.0640   -0.4910 ha        1 0N5      0.133000
     42 H13        -3.4160    1.8630    1.0960 hn        1 0N5      0.233000
     43 H14        -5.4480    3.6940   -0.0660 ha        1 0N5      0.137000
     44 H15        -7.2880    4.8350    0.8820 ha        1 0N5      0.138000
     45 H16        -6.9600    6.2910    2.7150 ha        1 0N5      0.138500
     46 H17        -4.7910    6.6060    3.5980 ha        1 0N5      0.138500
     47 H18        -2.9510    5.4650    2.6500 ha        1 0N5      0.155000
@<TRIPOS>BOND
     1    1    2 1   
     2    1   30 1   
     3    1   31 1   
     4    1   32 1   
     5    2    3 1   
     6    3    4 1   
     7    3    8 1   
     8    4    5 1   
     9    4   33 1   
    10    5   13 1   
    11    6    7 1   
    12    6   10 1   
    13    7   34 1   
    14    9   35 1   
    15   11   12 1   
    16   11   36 1   
    17   14   15 1   
    18   14   37 1   
    19   15   16 1   
    20   15   20 1   
    21   16   17 1   
    22   16   38 1   
    23   17   39 1   
    24   18   19 1   
    25   18   21 1   
    26   19   40 1   
    27   20   41 1   
    28   21   22 1   
    29   21   42 1   
    30   22   23 1   
    31   22   24 1   
    32   24   25 1   
    33   24   29 1   
    34   25   26 1   
    35   25   43 1   
    36   26   44 1   
    37   27   28 1   
    38   27   45 1   
    39   28   46 1   
    40   29   47 1   
@<TRIPOS>SUBSTRUCTURE
     1 0N5         1 TEMP              0 ****  ****    0 ROOT
