@<TRIPOS>MOLECULE
0N6
   58    61     1     0     0
SMALL
bcc


@<TRIPOS>ATOM
      1 C9          0.4010   -0.6870   -0.8710 ca        1 0N6      0.006000
      2 C5          1.3440   -0.9960    0.1030 ca        1 0N6     -0.089300
      3 C3          1.1040   -2.1350    1.0330 c3        1 0N6     -0.087100
      4 C2          2.3820   -2.5710    1.7580 c3        1 0N6      0.151800
      5 N1          3.2110   -1.4900    2.2410 n3        1 0N6     -0.793200
      6 C1          3.5790   -0.5520    1.2080 c3        1 0N6      0.175100
      7 C4          2.5180   -0.2200    0.1980 ca        1 0N6      0.026700
      8 C6          2.7170    0.8480   -0.6890 ca        1 0N6     -0.151000
      9 C7          1.7690    1.1470   -1.6520 ca        1 0N6      0.009000
     10 C8          0.5820    0.3900   -1.7670 ca        1 0N6     -0.552500
     11 S1         -0.4800    0.6780   -2.9300 sy        1 0N6      1.486200
     12 O1         -0.0290    1.5000   -3.9460 o         1 0N6     -0.575300
     13 O3         -1.3460   -0.3630   -3.1980 o         1 0N6     -0.575300
     14 N2         -1.6000    1.8510   -1.9230 n4        1 0N6     -0.701900
     15 C10        -2.2500    2.9430   -2.7020 c3        1 0N6      0.049500
     16 C12        -3.7030    2.5320   -3.0720 c         1 0N6      0.643100
     17 O2         -4.3260    1.7990   -2.2720 o         1 0N6     -0.608100
     18 N3         -4.2450    3.0000   -4.2250 n         1 0N6     -0.439800
     19 C13        -5.6200    2.6880   -4.6060 c3        1 0N6      0.086500
     20 C14        -5.8720    3.3520   -5.9670 c3        1 0N6     -0.089400
     21 C15        -4.5830    4.0720   -6.3530 c3        1 0N6     -0.089400
     22 C16        -3.5690    3.8010   -5.2280 c3        1 0N6      0.086500
     23 C11        -2.3450    4.2630   -1.9170 c3        1 0N6     -0.052100
     24 C17        -1.0110    4.7580   -1.4870 ca        1 0N6     -0.136300
     25 C22        -0.5480    4.4920   -0.1940 ca        1 0N6     -0.118000
     26 C18        -0.2280    5.5270   -2.3580 ca        1 0N6     -0.094000
     27 C19         1.0080    6.0190   -1.9430 ca        1 0N6     -0.118000
     28 C20         1.4820    5.7440   -0.6600 ca        1 0N6     -0.075000
     29 C21         0.7040    4.9720    0.2140 ca        1 0N6     -0.002000
     30 C23         1.1820    4.6660    1.5180 cg        1 0N6      0.208800
     31 N4          1.5760    4.4060    2.5800 n1        1 0N6     -0.319800
     32 H1         -0.5070   -1.3150   -0.9610 ha        1 0N6      0.166000
     33 H2          0.3270   -1.8260    1.7840 hc        1 0N6      0.073200
     34 H3          0.6920   -3.0130    0.4680 hc        1 0N6      0.073200
     35 H4          2.1000   -3.2200    2.6340 h1        1 0N6      0.076700
     36 H5          3.0060   -3.1930    1.0540 h1        1 0N6      0.076700
     37 H6          2.7740   -1.0210    3.0130 hn        1 0N6      0.373800
     38 H8          3.9520    0.4000    1.6860 h1        1 0N6      0.093200
     39 H9          4.4460   -1.0040    0.6330 h1        1 0N6      0.093200
     40 H10         3.6420    1.4460   -0.6200 ha        1 0N6      0.171000
     41 H11         1.9480    1.9790   -2.3590 ha        1 0N6      0.164000
     42 H12        -1.0630    2.2780   -1.1660 hn        1 0N6      0.461300
     43 H13        -1.6210    3.1120   -3.6290 hx        1 0N6      0.126700
     44 H14        -5.7470    1.5710   -4.6600 h1        1 0N6      0.060450
     45 H15        -6.3200    3.0790   -3.8180 h1        1 0N6      0.060450
     46 H16        -6.1400    2.5790   -6.7290 hc        1 0N6      0.070450
     47 H17        -6.7250    4.0710   -5.8930 hc        1 0N6      0.070450
     48 H18        -4.1860    3.6920   -7.3260 hc        1 0N6      0.070450
     49 H19        -4.7550    5.1720   -6.4570 hc        1 0N6      0.070450
     50 H20        -3.2120    4.7660   -4.7720 h1        1 0N6      0.060450
     51 H21        -2.6750    3.2470   -5.6280 h1        1 0N6      0.060450
     52 H22        -2.8340    5.0190   -2.5920 hc        1 0N6      0.095200
     53 H23        -3.0210    4.1240   -1.0300 hc        1 0N6      0.095200
     54 H24        -1.1770    3.9380    0.5210 ha        1 0N6      0.145000
     55 H25        -0.5960    5.7550   -3.3710 ha        1 0N6      0.147000
     56 H26         1.6120    6.6360   -2.6280 ha        1 0N6      0.162000
     57 H27         2.4570    6.1390   -0.3310 ha        1 0N6      0.165000
     58 H221       -2.3520    1.2980   -1.4870 hn        1 0N6      0.461300
@<TRIPOS>BOND
     1    1    2 ar  
     2    1   10 ar  
     3    1   32 1   
     4    2    3 1   
     5    2    7 ar  
     6    3    4 1   
     7    3   33 1   
     8    3   34 1   
     9    4    5 1   
    10    4   35 1   
    11    4   36 1   
    12    5    6 1   
    13    5   37 1   
    14    6    7 1   
    15    6   38 1   
    16    6   39 1   
    17    7    8 ar  
    18    8    9 ar  
    19    8   40 1   
    20    9   10 ar  
    21    9   41 1   
    22   10   11 1   
    23   11   12 2   
    24   11   13 2   
    25   11   14 1   
    26   14   15 1   
    27   14   42 1   
    28   14   58 1   
    29   15   16 1   
    30   15   23 1   
    31   15   43 1   
    32   16   17 2   
    33   16   18 1   
    34   18   19 1   
    35   18   22 1   
    36   19   20 1   
    37   19   44 1   
    38   19   45 1   
    39   20   21 1   
    40   20   46 1   
    41   20   47 1   
    42   21   22 1   
    43   21   48 1   
    44   21   49 1   
    45   22   50 1   
    46   22   51 1   
    47   23   24 1   
    48   23   52 1   
    49   23   53 1   
    50   24   25 ar  
    51   24   26 ar  
    52   25   29 ar  
    53   25   54 1   
    54   26   27 ar  
    55   26   55 1   
    56   27   28 ar  
    57   27   56 1   
    58   28   29 ar  
    59   28   57 1   
    60   29   30 1   
    61   30   31 3   
@<TRIPOS>SUBSTRUCTURE
     1 0N6         1 TEMP              0 ****  ****    0 ROOT
