@<TRIPOS>MOLECULE
0N6
   58    61     1     0     0
SMALL
bcc


@<TRIPOS>ATOM
      1 C9          0.4110   -0.6620   -0.8470 ca        1 0N6      0.006000
      2 C5          1.3700   -0.9580    0.1140 ca        1 0N6     -0.089300
      3 C3          1.1310   -2.0640    1.0830 c3        1 0N6     -0.087100
      4 C2          2.4170   -2.5010    1.7930 c3        1 0N6      0.151800
      5 N1          3.2750   -1.4210    2.2260 n3        1 0N6     -0.793200
      6 C1          3.6360   -0.5200    1.1570 c3        1 0N6      0.175100
      7 C4          2.5580   -0.2000    0.1610 ca        1 0N6      0.026700
      8 C6          2.7550    0.8380   -0.7620 ca        1 0N6     -0.151000
      9 C7          1.7920    1.1240   -1.7130 ca        1 0N6      0.009000
     10 C8          0.5890    0.3850   -1.7790 ca        1 0N6     -0.552500
     11 S1         -0.4930    0.6570   -2.9270 sy        1 0N6      1.486200
     12 O1         -0.0510    1.4420   -3.9770 o         1 0N6     -0.575300
     13 O3         -1.3810   -0.3770   -3.1460 o         1 0N6     -0.575300
     14 N2         -1.5730    1.8760   -1.9310 n4        1 0N6     -0.701900
     15 C10        -2.2140    2.9620   -2.7260 c3        1 0N6      0.049500
     16 C12        -3.6800    2.5700   -3.0630 c         1 0N6      0.643100
     17 O2         -4.3040    1.8690   -2.2350 o         1 0N6     -0.608100
     18 N3         -4.2330    3.0220   -4.2170 n         1 0N6     -0.439800
     19 C13        -5.6200    2.7270   -4.5690 c3        1 0N6      0.086500
     20 C14        -5.8810    3.3620   -5.9410 c3        1 0N6     -0.089400
     21 C15        -4.5850    4.0490   -6.3650 c3        1 0N6     -0.089400
     22 C16        -3.5580    3.7850   -5.2500 c3        1 0N6      0.086500
     23 C11        -2.2710    4.3010   -1.9720 c3        1 0N6     -0.052100
     24 C17        -0.9210    4.7810   -1.5760 ca        1 0N6     -0.136300
     25 C22        -0.4410    4.5360   -0.2850 ca        1 0N6     -0.118000
     26 C18        -0.1390    5.5150   -2.4780 ca        1 0N6     -0.094000
     27 C19         1.1130    5.9930   -2.0950 ca        1 0N6     -0.118000
     28 C20         1.6040    5.7390   -0.8150 ca        1 0N6     -0.075000
     29 C21         0.8270    5.0020    0.0900 ca        1 0N6     -0.002000
     30 C23         1.3220    4.7160    1.3920 cg        1 0N6      0.208800
     31 N4          1.7300    4.4730    2.4540 n1        1 0N6     -0.319800
     32 H1         -0.5090   -1.2760   -0.8990 ha        1 0N6      0.166000
     33 H2          0.3760   -1.7200    1.8420 hc        1 0N6      0.073200
     34 H3          0.6920   -2.9520    0.5540 hc        1 0N6      0.073200
     35 H4          2.1440   -3.1180    2.6950 h1        1 0N6      0.076700
     36 H5          3.0150   -3.1540    1.0960 h1        1 0N6      0.076700
     37 H6          2.8630   -0.9210    2.9930 hn        1 0N6      0.373800
     38 H8          4.0340    0.4390    1.5990 h1        1 0N6      0.093200
     39 H9          4.4810   -1.0040    0.5780 h1        1 0N6      0.093200
     40 H10         3.6910    1.4210   -0.7310 ha        1 0N6      0.170000
     41 H11         1.9680    1.9310   -2.4480 ha        1 0N6      0.164000
     42 H12        -1.0150    2.3110   -1.1940 hn        1 0N6      0.461300
     43 H13        -1.5970    3.0960   -3.6670 hx        1 0N6      0.126700
     44 H14        -5.7690    1.6130   -4.5920 h1        1 0N6      0.060450
     45 H15        -6.2990    3.1520   -3.7800 h1        1 0N6      0.060450
     46 H16        -6.1760    2.5760   -6.6790 hc        1 0N6      0.070450
     47 H17        -6.7190    4.0980   -5.8720 hc        1 0N6      0.070450
     48 H18        -4.2120    3.6380   -7.3350 hc        1 0N6      0.070450
     49 H19        -4.7390    5.1490   -6.4930 hc        1 0N6      0.070450
     50 H20        -3.1750    4.7540   -4.8240 h1        1 0N6      0.060450
     51 H21        -2.6820    3.2040   -5.6510 h1        1 0N6      0.060450
     52 H22        -2.7580    5.0510   -2.6560 hc        1 0N6      0.095200
     53 H23        -2.9340    4.1970   -1.0700 hc        1 0N6      0.095200
     54 H24        -1.0670    4.0100    0.4530 ha        1 0N6      0.145000
     55 H25        -0.5210    5.7270   -3.4890 ha        1 0N6      0.148000
     56 H26         1.7160    6.5840   -2.8040 ha        1 0N6      0.162000
     57 H27         2.5910    6.1230   -0.5110 ha        1 0N6      0.165000
     58 H221       -2.3280    1.3490   -1.4690 hn        1 0N6      0.461300
@<TRIPOS>BOND
     1    1    2 ar  
     2    1   10 ar  
     3    1   32 1   
     4    2    3 1   
     5    2    7 ar  
     6    3    4 1   
     7    3   33 1   
     8    3   34 1   
     9    4    5 1   
    10    4   35 1   
    11    4   36 1   
    12    5    6 1   
    13    5   37 1   
    14    6    7 1   
    15    6   38 1   
    16    6   39 1   
    17    7    8 ar  
    18    8    9 ar  
    19    8   40 1   
    20    9   10 ar  
    21    9   41 1   
    22   10   11 1   
    23   11   12 2   
    24   11   13 2   
    25   11   14 1   
    26   14   15 1   
    27   14   42 1   
    28   14   58 1   
    29   15   16 1   
    30   15   23 1   
    31   15   43 1   
    32   16   17 2   
    33   16   18 1   
    34   18   19 1   
    35   18   22 1   
    36   19   20 1   
    37   19   44 1   
    38   19   45 1   
    39   20   21 1   
    40   20   46 1   
    41   20   47 1   
    42   21   22 1   
    43   21   48 1   
    44   21   49 1   
    45   22   50 1   
    46   22   51 1   
    47   23   24 1   
    48   23   52 1   
    49   23   53 1   
    50   24   25 ar  
    51   24   26 ar  
    52   25   29 ar  
    53   25   54 1   
    54   26   27 ar  
    55   26   55 1   
    56   27   28 ar  
    57   27   56 1   
    58   28   29 ar  
    59   28   57 1   
    60   29   30 1   
    61   30   31 3   
@<TRIPOS>SUBSTRUCTURE
     1 0N6         1 TEMP              0 ****  ****    0 ROOT
