@<TRIPOS>MOLECULE
0N6
   58    61     1     0     0
SMALL
bcc


@<TRIPOS>ATOM
      1 C9          0.0000    0.0000    0.0000 ca        1 0N6      0.018000
      2 C5          1.3860    0.0000    0.0000 ca        1 0N6     -0.100300
      3 C3          2.1050    0.0000    1.3260 c3        1 0N6     -0.027100
      4 C2          3.5640   -0.4130    1.1290 c3        1 0N6      0.175800
      5 N1          4.1380    0.4030    0.0470 n7        1 0N6     -0.623200
      6 C1          3.5780   -0.0010   -1.2470 c3        1 0N6      0.223100
      7 C4          2.0730    0.0060   -1.1950 ca        1 0N6     -0.071300
      8 C6          1.3710    0.0170   -2.3910 ca        1 0N6     -0.120000
      9 C7         -0.0090    0.0190   -2.3900 ca        1 0N6      0.005000
     10 C8         -0.6970    0.0090   -1.1920 ca        1 0N6     -0.209500
     11 S1         -2.4590    0.0090   -1.1840 sy        1 0N6      0.957200
     12 O1         -2.8650   -0.5250   -2.4360 o         1 0N6     -0.499300
     13 O3         -2.8550   -0.5450    0.0630 o         1 0N6     -0.499300
     14 N2         -2.9490    1.5910   -1.1700 ny        1 0N6     -0.190900
     15 C10        -2.6590    2.4590   -2.3140 c3        1 0N6     -0.003500
     16 C12        -3.8440    2.4760   -3.2450 c         1 0N6      0.579100
     17 O2         -4.8330    1.8270   -2.9790 o         1 0N6     -0.627100
     18 N3         -3.8040    3.2120   -4.3740 n         1 0N6     -0.158800
     19 C13        -4.8830    3.3180   -5.3660 c3        1 0N6      0.022000
     20 C14        -4.3790    4.2440   -6.4930 c3        1 0N6     -0.011400
     21 C15        -2.8370    4.1560   -6.3530 c3        1 0N6     -0.011400
     22 C16        -2.6720    4.0480   -4.8140 c3        1 0N6      0.022000
     23 C11        -2.3800    3.8790   -1.8190 c3        1 0N6     -0.014100
     24 C17        -1.1230    3.8830   -0.9870 ca        1 0N6     -0.131300
     25 C22        -1.1980    3.6650    0.3730 ca        1 0N6     -0.135000
     26 C18         0.1030    4.1000   -1.5900 ca        1 0N6     -0.115000
     27 C19         1.2620    4.1040   -0.8330 ca        1 0N6     -0.026000
     28 C20         1.2010    3.8920    0.5290 ca        1 0N6     -0.050000
     29 C21        -0.0330    3.6680    1.1430 ca        1 0N6      0.066000
     30 C23        -0.1030    3.4430    2.5550 cg        1 0N6      0.173800
     31 N4         -0.1720    3.2510    3.6730 n1        1 0N6     -0.294800
     32 H1         -0.6380    0.1260    0.8660 ha        1 0N6      0.118000
     33 H2          1.7950    0.9740    1.6840 hc        1 0N6      0.020700
     34 H3          1.3720   -0.4780    1.9640 hc        1 0N6      0.020700
     35 H4          4.2560   -0.0670    1.8870 h1        1 0N6      0.045200
     36 H5          3.3250   -1.4610    1.2580 h1        1 0N6      0.045200
     37 H6          4.3740    1.2970    0.4290 hn        1 0N6      0.304800
     38 H8          3.3940    0.8400   -1.9040 h1        1 0N6      0.066700
     39 H9          4.0520   -0.9700   -1.3520 h1        1 0N6      0.066700
     40 H10         2.0310    0.3910   -3.1650 ha        1 0N6      0.130000
     41 H11        -0.3770    0.1160   -3.4040 ha        1 0N6      0.127000
     42 H12        -2.7690    1.8390   -0.2170 hn        1 0N6      0.334800
     43 H13        -1.7900    2.0830   -2.8410 hx        1 0N6      0.095700
     44 H14        -5.1470    2.4270   -5.9210 h1        1 0N6      0.038700
     45 H15        -5.7500    3.4740   -4.7350 h1        1 0N6      0.038700
     46 H16        -4.7390    4.1350   -7.5090 hc        1 0N6      0.044200
     47 H17        -4.5090    5.3180   -6.5590 hc        1 0N6      0.044200
     48 H18        -2.3020    3.2230   -6.4890 hc        1 0N6      0.044200
     49 H19        -2.3820    5.1390   -6.3510 hc        1 0N6      0.044200
     50 H20        -2.8340    4.7710   -4.0230 h1        1 0N6      0.038700
     51 H21        -1.9080    3.2810   -4.7840 h1        1 0N6      0.038700
     52 H22        -2.2730    4.4950   -2.7040 hc        1 0N6      0.062700
     53 H23        -3.3790    4.1440   -1.4940 hc        1 0N6      0.062700
     54 H24        -2.1700    3.6680    0.8510 ha        1 0N6      0.117000
     55 H25        -0.2160    4.7990   -2.3530 ha        1 0N6      0.136000
     56 H26         2.1430    4.3650   -1.4070 ha        1 0N6      0.127000
     57 H27         1.9610    3.5940    1.2420 ha        1 0N6      0.132000
     58 H221       -3.8360    1.6090   -0.7060 hn        1 0N6      0.334800
@<TRIPOS>BOND
     1    1    2 ar  
     2    1   10 ar  
     3    1   32 1   
     4    2    3 1   
     5    2    7 ar  
     6    3    4 1   
     7    3   33 1   
     8    3   34 1   
     9    4    5 1   
    10    4   35 1   
    11    4   36 1   
    12    5    6 1   
    13    5   37 1   
    14    6    7 1   
    15    6   38 1   
    16    6   39 1   
    17    7    8 ar  
    18    8    9 ar  
    19    8   40 1   
    20    9   10 ar  
    21    9   41 1   
    22   10   11 1   
    23   11   12 2   
    24   11   13 2   
    25   11   14 1   
    26   14   15 1   
    27   14   42 1   
    28   14   58 1   
    29   15   16 1   
    30   15   23 1   
    31   15   43 1   
    32   16   17 2   
    33   16   18 1   
    34   18   19 1   
    35   18   22 1   
    36   19   20 1   
    37   19   44 1   
    38   19   45 1   
    39   20   21 1   
    40   20   46 1   
    41   20   47 1   
    42   21   22 1   
    43   21   48 1   
    44   21   49 1   
    45   22   50 1   
    46   22   51 1   
    47   23   24 1   
    48   23   52 1   
    49   23   53 1   
    50   24   25 ar  
    51   24   26 ar  
    52   25   29 ar  
    53   25   54 1   
    54   26   27 ar  
    55   26   55 1   
    56   27   28 ar  
    57   27   56 1   
    58   28   29 ar  
    59   28   57 1   
    60   29   30 1   
    61   30   31 3   
@<TRIPOS>SUBSTRUCTURE
     1 0N6         1 TEMP              0 ****  ****    0 ROOT
