@<TRIPOS>MOLECULE
0N6
   57    60     1     0     0
SMALL
bcc


@<TRIPOS>ATOM
      1 C9         -1.8080   -1.6990   -0.3250 ca        1 0N6     -0.013000
      2 C5         -3.1700   -1.5520   -0.0590 ca        1 0N6     -0.097300
      3 C3         -4.1650   -1.8300   -1.1310 c3        1 0N6     -0.076100
      4 C2         -5.5900   -1.9590   -0.5860 c3        1 0N6      0.151800
      5 N1         -5.9520   -0.9920    0.4300 n3        1 0N6     -0.795200
      6 C1         -5.0370   -1.0000    1.5530 c3        1 0N6      0.185100
      7 C4         -3.5780   -1.1320    1.2180 ca        1 0N6     -0.041300
      8 C6         -2.6190   -0.8690    2.2010 ca        1 0N6     -0.153000
      9 C7         -1.2660   -1.0160    1.9170 ca        1 0N6     -0.013000
     10 C8         -0.8400   -1.4310    0.6490 ca        1 0N6     -0.388500
     11 S1          0.7900   -1.6690    0.3210 sy        1 0N6      1.518200
     12 O1          1.5160   -1.6880    1.5380 o         1 0N6     -0.657300
     13 O3          0.9140   -2.8010   -0.5100 o         1 0N6     -0.657300
     14 N2          1.2120   -0.3510   -0.5270 n3        1 0N6     -0.907100
     15 C10         2.0670    0.6990   -0.0500 c3        1 0N6      0.191500
     16 C12         3.4730    0.5750   -0.7040 c         1 0N6      0.629100
     17 O2          3.5900    0.7440   -1.9350 o         1 0N6     -0.606100
     18 N3          4.5740    0.3640    0.0960 n         1 0N6     -0.456800
     19 C13         5.8860    0.1440   -0.4990 c3        1 0N6      0.077000
     20 C14         6.7360   -0.6350    0.5160 c3        1 0N6     -0.090400
     21 C15         5.8720   -0.8130    1.7600 c3        1 0N6     -0.090400
     22 C16         4.5140   -0.1600    1.4500 c3        1 0N6      0.077000
     23 C11         1.5850    2.1230   -0.3940 c3        1 0N6     -0.049100
     24 C17         0.3800    2.5260    0.3770 ca        1 0N6     -0.084300
     25 C22        -0.8650    2.6170   -0.2530 ca        1 0N6     -0.081000
     26 C18         0.4910    2.8570    1.7340 ca        1 0N6     -0.108000
     27 C19        -0.6270    3.2760    2.4520 ca        1 0N6     -0.133000
     28 C20        -1.8700    3.3670    1.8290 ca        1 0N6     -0.092000
     29 C21        -1.9890    3.0330    0.4730 ca        1 0N6     -0.018000
     30 C23        -3.2560    3.1090   -0.1680 cg        1 0N6      0.235800
     31 N4         -4.2930    3.1640   -0.6910 n1        1 0N6     -0.367800
     32 H1         -1.4870   -2.0570   -1.3200 ha        1 0N6      0.147000
     33 H2         -4.1220   -0.9980   -1.8850 hc        1 0N6      0.060700
     34 H3         -3.8950   -2.7790   -1.6670 hc        1 0N6      0.060700
     35 H4         -6.3180   -1.8620   -1.4380 h1        1 0N6      0.060200
     36 H5         -5.7160   -2.9850   -0.1380 h1        1 0N6      0.060200
     37 H6         -5.9970   -0.0720    0.0270 hn        1 0N6      0.362800
     38 H8         -5.1980   -0.0620    2.1580 h1        1 0N6      0.069700
     39 H9         -5.3140   -1.8800    2.2060 h1        1 0N6      0.069700
     40 H10        -2.9400   -0.5480    3.2040 ha        1 0N6      0.141000
     41 H11        -0.5130   -0.8180    2.7010 ha        1 0N6      0.155000
     42 H12         0.9900   -0.2590   -1.4920 hn        1 0N6      0.456800
     43 H13         2.1380    0.6130    1.0770 h1        1 0N6      0.086700
     44 H14         5.7860   -0.4170   -1.4690 h1        1 0N6      0.059200
     45 H15         6.3470    1.1440   -0.7260 h1        1 0N6      0.059200
     46 H16         7.0330   -1.6250    0.0920 hc        1 0N6      0.054450
     47 H17         7.6700   -0.0690    0.7530 hc        1 0N6      0.054450
     48 H18         5.7310   -1.8950    2.0000 hc        1 0N6      0.054450
     49 H19         6.3410   -0.3220    2.6470 hc        1 0N6      0.054450
     50 H20         4.3190    0.6920    2.1590 h1        1 0N6      0.059200
     51 H21         3.6810   -0.9100    1.5660 h1        1 0N6      0.059200
     52 H22         2.4280    2.8280   -0.1570 hc        1 0N6      0.075700
     53 H23         1.3960    2.1950   -1.4990 hc        1 0N6      0.075700
     54 H24        -0.9630    2.3640   -1.3200 ha        1 0N6      0.147000
     55 H25         1.4710    2.7920    2.2320 ha        1 0N6      0.139000
     56 H26        -0.5290    3.5390    3.5160 ha        1 0N6      0.142000
     57 H27        -2.7520    3.7010    2.3950 ha        1 0N6      0.145000
@<TRIPOS>BOND
     1    1    2 ar  
     2    1   10 ar  
     3    1   32 1   
     4    2    3 1   
     5    2    7 ar  
     6    3    4 1   
     7    3   33 1   
     8    3   34 1   
     9    4    5 1   
    10    4   35 1   
    11    4   36 1   
    12    5    6 1   
    13    5   37 1   
    14    6    7 1   
    15    6   38 1   
    16    6   39 1   
    17    7    8 ar  
    18    8    9 ar  
    19    8   40 1   
    20    9   10 ar  
    21    9   41 1   
    22   10   11 1   
    23   11   12 2   
    24   11   13 2   
    25   11   14 1   
    26   14   15 1   
    27   14   42 1   
    28   15   16 1   
    29   15   23 1   
    30   15   43 1   
    31   16   17 2   
    32   16   18 1   
    33   18   19 1   
    34   18   22 1   
    35   19   20 1   
    36   19   44 1   
    37   19   45 1   
    38   20   21 1   
    39   20   46 1   
    40   20   47 1   
    41   21   22 1   
    42   21   48 1   
    43   21   49 1   
    44   22   50 1   
    45   22   51 1   
    46   23   24 1   
    47   23   52 1   
    48   23   53 1   
    49   24   25 ar  
    50   24   26 ar  
    51   25   29 ar  
    52   25   54 1   
    53   26   27 ar  
    54   26   55 1   
    55   27   28 ar  
    56   27   56 1   
    57   28   29 ar  
    58   28   57 1   
    59   29   30 1   
    60   30   31 3   
@<TRIPOS>SUBSTRUCTURE
     1 0N6         1 TEMP              0 ****  ****    0 ROOT
