@<TRIPOS>MOLECULE
0N6
   57    52     1     0     0
SMALL
bcc


@<TRIPOS>ATOM
      1 C9         -0.2040   -2.5890    1.1430 c1        1 0N6     -0.005000
      2 C5         -0.2520   -3.3460    2.3040 c1        1 0N6     -0.093000
      3 C3         -1.5770   -3.8730    2.9040 c2        1 0N6     -0.161000
      4 C2         -1.4620   -4.7640    4.0120 c3        1 0N6     -0.086000
      5 N1         -0.4240   -4.5240    4.9070 n3        1 0N6     -0.272000
      6 C1          0.8410   -4.4060    4.4010 c3        1 0N6     -0.061000
      7 C4          0.9700   -3.6770    2.9980 c2        1 0N6     -0.032000
      8 C6          2.1870   -3.2370    2.5020 c1        1 0N6     -0.152000
      9 C7          2.2310   -2.4700    1.3270 c1        1 0N6     -0.015000
     10 C8          1.0290   -2.1450    0.6450 c1        1 0N6     -0.838000
     11 S1          1.0910   -1.2000   -0.8530 s4        1 0N6      2.084800
     12 O1          2.0910   -1.7090   -1.7500 o         1 0N6     -0.551900
     13 O3         -0.1010   -1.3820   -1.6330 o         1 0N6     -0.551900
     14 N2          1.3450    0.3880   -0.5150 n2        1 0N6     -0.884000
     15 C10         1.2090    1.3620   -1.5380 c3        1 0N6      0.046000
     16 C12        -0.0670    1.1130   -2.3040 c2        1 0N6      0.279000
     17 O2         -0.8970    0.3410   -1.8670 o         1 0N6     -0.380000
     18 N3         -0.3000    1.7820   -3.5310 n         1 0N6     -0.317000
     19 C13        -1.3440    1.6690   -4.2920 c3        1 0N6     -0.039000
     20 C14        -0.8330    2.0000   -5.7420 c3        1 0N6     -0.169000
     21 C15         0.5680    2.5900   -5.5570 c3        1 0N6     -0.169000
     22 C16         0.6730    2.8240   -4.2520 c3        1 0N6     -0.039000
     23 C11         1.1640    2.7450   -0.9170 c3        1 0N6     -0.126000
     24 C17         0.2950    2.7130    0.3250 c1        1 0N6     -0.083000
     25 C22        -1.0380    3.0910    0.2480 c1        1 0N6     -0.094000
     26 C18         0.8500    2.3790    1.5510 c1        1 0N6     -0.098000
     27 C19         0.0740    2.4210    2.6990 c1        1 0N6     -0.115000
     28 C20        -1.2580    2.7990    2.6220 c1        1 0N6     -0.115000
     29 C21        -1.8140    3.1330    1.3970 c1        1 0N6     -0.019000
     30 C23        -3.2770    3.5080    1.3070 c1        1 0N6     -0.093000
     31 N4         -4.3800    3.7900    1.2400 n1        1 0N6     -0.040000
     32 H1         -1.0300   -2.3640    0.6730 ha        1 0N6      0.150000
     33 H2         -2.1080   -3.1020    3.1890 ha        1 0N6      0.100000
     34 H3         -2.0680   -4.3360    2.1930 ha        1 0N6      0.100000
     35 H4         -1.3530   -5.6720    3.6590 h1        1 0N6      0.099500
     36 H5         -2.3050   -4.7310    4.5130 h1        1 0N6      0.099500
     37 H6         -0.6200   -3.7870    5.4130 hn        1 0N6      0.153000
     38 H8          1.3700   -3.8960    5.0470 h1        1 0N6      0.110500
     39 H9          1.2010   -5.3110    4.2960 h1        1 0N6      0.110500
     40 H10         3.0140   -3.4600    2.9700 ha        1 0N6      0.144000
     41 H11         3.0890   -2.1610    0.9790 ha        1 0N6      0.159000
     42 H12         1.6150    0.6390    0.3190 hn        1 0N6      0.258000
     43 H13         1.9720    1.3040   -2.1470 h1        1 0N6      0.118000
     44 H14        -1.6950    0.7550   -4.2550 h1        1 0N6      0.099750
     45 H15        -2.0340    2.3100   -4.0200 h1        1 0N6      0.099750
     46 H16        -1.4230    2.6540   -6.1670 hc        1 0N6      0.093000
     47 H17        -0.7880    1.1840   -6.2790 hc        1 0N6      0.093000
     48 H18         0.6540    3.4260   -6.0610 hc        1 0N6      0.093000
     49 H19         1.2490    1.9470   -5.8440 hc        1 0N6      0.093000
     50 H20         0.3930    3.7410   -4.0500 h1        1 0N6      0.099750
     51 H21         1.5960    2.6810   -3.9570 h1        1 0N6      0.099750
     52 H22         2.0700    3.0230   -0.6740 hc        1 0N6      0.105500
     53 H23         0.7890    3.3800   -1.5610 hc        1 0N6      0.105500
     54 H24        -1.4290    3.3260   -0.6140 ha        1 0N6      0.180000
     55 H25         1.7880    2.1130    1.6050 ha        1 0N6      0.141000
     56 H26         0.4660    2.1860    3.5620 ha        1 0N6      0.142500
     57 H27        -1.8040    2.8290    3.4310 ha        1 0N6      0.142500
@<TRIPOS>BOND
     1    1    2 1   
     2    1   32 1   
     3    2    7 1   
     4    3    4 1   
     5    3   33 1   
     6    3   34 1   
     7    4    5 1   
     8    4   35 1   
     9    4   36 1   
    10    5    6 1   
    11    5   37 1   
    12    6    7 1   
    13    6   38 1   
    14    6   39 1   
    15    7    8 1   
    16    8   40 1   
    17    9   10 1   
    18    9   41 1   
    19   10   11 1   
    20   11   12 1   
    21   11   13 1   
    22   14   15 1   
    23   14   42 1   
    24   15   16 1   
    25   15   23 1   
    26   15   43 1   
    27   16   17 1   
    28   16   18 1   
    29   18   19 1   
    30   18   22 1   
    31   19   20 1   
    32   19   44 1   
    33   19   45 1   
    34   20   21 1   
    35   20   46 1   
    36   20   47 1   
    37   21   22 1   
    38   21   48 1   
    39   21   49 1   
    40   22   50 1   
    41   22   51 1   
    42   23   24 1   
    43   23   52 1   
    44   23   53 1   
    45   24   26 1   
    46   25   29 1   
    47   25   54 1   
    48   26   55 1   
    49   27   28 1   
    50   27   56 1   
    51   28   57 1   
    52   30   31 1   
@<TRIPOS>SUBSTRUCTURE
     1 0N6         1 TEMP              0 ****  ****    0 ROOT
