@<TRIPOS>MOLECULE
0N7
   20    21     1     0     0
SMALL
bcc


@<TRIPOS>ATOM
      1 O13        -0.1200    0.0990   -0.0010 o         1 0N7     -0.572500
      2 C10         1.1180    0.0880   -0.0320 c         1 0N7      0.715100
      3 N9          1.8470    0.1840    1.1880 n         1 0N7     -0.371900
      4 O12         1.1620   -0.1230    2.2850 oh        1 0N7     -0.372100
      5 C8          3.2500   -0.0180    1.2680 c         1 0N7      0.703500
      6 O11         3.7910   -0.2030    2.3650 o         1 0N7     -0.571500
      7 C7          4.0650    0.1010    0.0010 c3        1 0N7     -0.116100
      8 C2          3.3050    0.0360   -1.2680 ca        1 0N7     -0.041300
      9 C3          1.9040    0.0440   -1.2860 ca        1 0N7     -0.149600
     10 C4          1.2120   -0.0030   -2.5040 ca        1 0N7     -0.063000
     11 C5          1.9190   -0.0600   -3.7030 ca        1 0N7     -0.140000
     12 C6          3.3150   -0.0710   -3.6890 ca        1 0N7     -0.091000
     13 C1          4.0050   -0.0240   -2.4800 ca        1 0N7     -0.140000
     14 H1          0.8740    0.7300    2.6710 ho        1 0N7      0.419000
     15 H2          4.6150    1.0830    0.0590 hc        1 0N7      0.100200
     16 H3          4.8390   -0.7170    0.0280 hc        1 0N7      0.100200
     17 H4          0.1090    0.0040   -2.4970 ha        1 0N7      0.164000
     18 H5          1.3760   -0.0970   -4.6590 ha        1 0N7      0.145000
     19 H6          3.8740   -0.1190   -4.6360 ha        1 0N7      0.141000
     20 H7          5.1060   -0.0340   -2.4710 ha        1 0N7      0.141000
@<TRIPOS>BOND
     1    1    2 2   
     2    2    3 1   
     3    2    9 1   
     4    3    4 1   
     5    3    5 1   
     6    4   14 1   
     7    5    6 2   
     8    5    7 1   
     9    7    8 1   
    10    7   15 1   
    11    7   16 1   
    12    8    9 ar  
    13    8   13 ar  
    14    9   10 ar  
    15   10   11 ar  
    16   10   17 1   
    17   11   12 ar  
    18   11   18 1   
    19   12   13 ar  
    20   12   19 1   
    21   13   20 1   
@<TRIPOS>SUBSTRUCTURE
     1 0N7         1 TEMP              0 ****  ****    0 ROOT
