@<TRIPOS>MOLECULE
0N7
   20    21     1     0     0
SMALL
bcc


@<TRIPOS>ATOM
      1 O13        -0.1130    0.1310    0.0000 o         1 0N7     -0.572500
      2 C10         1.1250    0.1010   -0.0310 c         1 0N7      0.715100
      3 N9          1.8560    0.1770    1.1900 n         1 0N7     -0.371900
      4 O12         1.1660   -0.1270    2.2840 oh        1 0N7     -0.372100
      5 C8          3.2550   -0.0480    1.2680 c         1 0N7      0.703500
      6 O11         3.7930   -0.2490    2.3640 o         1 0N7     -0.571500
      7 C7          4.0720    0.0680    0.0020 c3        1 0N7     -0.116100
      8 C2          3.3110    0.0240   -1.2680 ca        1 0N7     -0.041300
      9 C3          1.9100    0.0540   -1.2860 ca        1 0N7     -0.149600
     10 C4          1.2180    0.0260   -2.5040 ca        1 0N7     -0.063000
     11 C5          1.9230   -0.0340   -3.7030 ca        1 0N7     -0.140000
     12 C6          3.3190   -0.0670   -3.6890 ca        1 0N7     -0.091000
     13 C1          4.0100   -0.0380   -2.4800 ca        1 0N7     -0.140000
     14 H1          0.8910    0.7270    2.6770 ho        1 0N7      0.419000
     15 H2          4.6370    1.0420    0.0660 hc        1 0N7      0.100200
     16 H3          4.8330   -0.7610    0.0230 hc        1 0N7      0.100200
     17 H4          0.1150    0.0510   -2.4960 ha        1 0N7      0.164000
     18 H5          1.3800   -0.0560   -4.6590 ha        1 0N7      0.145000
     19 H6          3.8770   -0.1160   -4.6370 ha        1 0N7      0.141000
     20 H7          5.1100   -0.0660   -2.4720 ha        1 0N7      0.141000
@<TRIPOS>BOND
     1    1    2 2   
     2    2    3 1   
     3    2    9 1   
     4    3    4 1   
     5    3    5 1   
     6    4   14 1   
     7    5    6 2   
     8    5    7 1   
     9    7    8 1   
    10    7   15 1   
    11    7   16 1   
    12    8    9 ar  
    13    8   13 ar  
    14    9   10 ar  
    15   10   11 ar  
    16   10   17 1   
    17   11   12 ar  
    18   11   18 1   
    19   12   13 ar  
    20   12   19 1   
    21   13   20 1   
@<TRIPOS>SUBSTRUCTURE
     1 0N7         1 TEMP              0 ****  ****    0 ROOT
