@<TRIPOS>MOLECULE
0N7
   20    21     1     0     0
SMALL
bcc


@<TRIPOS>ATOM
      1 O13         0.6580   -2.4570    0.0480 o         1 0N7     -0.572500
      2 C10         0.5250   -1.2260    0.0250 c         1 0N7      0.715100
      3 N9          1.6830   -0.4000   -0.0560 n         1 0N7     -0.371900
      4 O12         2.8220   -0.9840    0.3020 oh        1 0N7     -0.372100
      5 C8          1.6400    1.0090    0.1110 c         1 0N7      0.703500
      6 O11         2.6830    1.6440    0.3130 o         1 0N7     -0.571500
      7 C7          0.3150    1.7120   -0.0690 c3        1 0N7     -0.116100
      8 C2         -0.8890    0.8500   -0.0200 ca        1 0N7     -0.041300
      9 C3         -0.7910   -0.5470    0.0100 ca        1 0N7     -0.149600
     10 C4         -1.9480   -1.3370    0.0410 ca        1 0N7     -0.063000
     11 C5         -3.2020   -0.7310    0.0440 ca        1 0N7     -0.140000
     12 C6         -3.3040    0.6610    0.0170 ca        1 0N7     -0.091000
     13 C1         -2.1550    1.4480   -0.0140 ca        1 0N7     -0.140000
     14 H1          3.2580   -1.2600   -0.5300 ho        1 0N7      0.419000
     15 H2          0.2520    2.5060    0.7280 hc        1 0N7      0.100200
     16 H3          0.3580    2.2400   -1.0640 hc        1 0N7      0.100200
     17 H4         -1.8490   -2.4350    0.0640 ha        1 0N7      0.164000
     18 H5         -4.1110   -1.3510    0.0680 ha        1 0N7      0.145000
     19 H6         -4.2960    1.1400    0.0210 ha        1 0N7      0.141000
     20 H7         -2.2380    2.5450   -0.0340 ha        1 0N7      0.141000
@<TRIPOS>BOND
     1    1    2 2   
     2    2    3 1   
     3    2    9 1   
     4    3    4 1   
     5    3    5 1   
     6    4   14 1   
     7    5    6 2   
     8    5    7 1   
     9    7    8 1   
    10    7   15 1   
    11    7   16 1   
    12    8    9 ar  
    13    8   13 ar  
    14    9   10 ar  
    15   10   11 ar  
    16   10   17 1   
    17   11   12 ar  
    18   11   18 1   
    19   12   13 ar  
    20   12   19 1   
    21   13   20 1   
@<TRIPOS>SUBSTRUCTURE
     1 0N7         1 TEMP              0 ****  ****    0 ROOT
