@<TRIPOS>MOLECULE
0N7
   20    16     1     0     0
SMALL
bcc


@<TRIPOS>ATOM
      1 O13        -2.6460   -0.1040    0.9810 o         1 0N7     -0.296500
      2 C10        -1.4310   -0.1040    0.9810 c1        1 0N7      0.331500
      3 N9         -0.7240   -0.1040    2.2050 n3        1 0N7     -0.232000
      4 O12        -1.4050   -0.2040    3.3870 oh        1 0N7     -0.177000
      5 C8          0.6930   -0.0490    2.2050 c1        1 0N7      0.331500
      6 O11         1.3120   -0.3460    3.2080 o         1 0N7     -0.296500
      7 C7          1.4340    0.4300    0.9700 c2        1 0N7     -0.152000
      8 C2          0.6990    0.1240   -0.3450 c1        1 0N7     -0.034000
      9 C3         -0.6670   -0.0770   -0.3420 c1        1 0N7     -0.129000
     10 C4         -1.3450   -0.3010   -1.5490 c1        1 0N7     -0.063000
     11 C5         -0.6420   -0.3220   -2.7470 c1        1 0N7     -0.115500
     12 C6          0.7350   -0.1200   -2.7500 c1        1 0N7     -0.115500
     13 C1          1.4070    0.1030   -1.5560 c1        1 0N7     -0.140000
     14 H1         -1.6170    0.6080    3.6760 ho        1 0N7      0.218000
     15 H2          1.7510    1.3530    0.9970 ha        1 0N7      0.139500
     16 H3          2.2690   -0.0740    0.9650 ha        1 0N7      0.139500
     17 H4         -2.3110   -0.4430   -1.5470 ha        1 0N7      0.164000
     18 H5         -1.1140   -0.4790   -3.5870 ha        1 0N7      0.143000
     19 H6          1.2280   -0.1350   -3.5930 ha        1 0N7      0.143000
     20 H7          2.3730    0.2440   -1.5580 ha        1 0N7      0.141000
@<TRIPOS>BOND
     1    1    2 1   
     2    2    3 1   
     3    3    4 1   
     4    3    5 1   
     5    4   14 1   
     6    5    6 1   
     7    7    8 1   
     8    7   15 1   
     9    7   16 1   
    10    8   13 1   
    11    9   10 1   
    12   10   17 1   
    13   11   12 1   
    14   11   18 1   
    15   12   19 1   
    16   13   20 1   
@<TRIPOS>SUBSTRUCTURE
     1 0N7         1 TEMP              0 ****  ****    0 ROOT
