@<TRIPOS>MOLECULE
0N8
   52    54     1     0     0
SMALL
bcc


@<TRIPOS>ATOM
      1 CL2        -4.6770    4.5550   -0.1600 cl        1 0N8     -0.127400
      2 C19        -3.6570    3.3240    0.4380 ca        1 0N8      0.009400
      3 C18        -2.5770    3.6620    1.2570 ca        1 0N8     -0.127500
      4 C17        -1.7500    2.6540    1.7470 ca        1 0N8     -0.115000
      5 C20        -3.9090    1.9910    0.1040 ca        1 0N8     -0.127500
      6 C21        -3.0770    0.9910    0.6010 ca        1 0N8     -0.115000
      7 C16        -1.9920    1.3120    1.4280 ca        1 0N8     -0.064300
      8 C15        -1.1360    0.2350    1.9970 c3        1 0N8     -0.029100
      9 C11        -0.0920   -0.3330    1.0250 c3        1 0N8     -0.139000
     10 C10         0.8260    0.7980    0.5610 c3        1 0N8     -0.061400
     11 C9          2.0540    0.2970   -0.1920 c3        1 0N8      0.160300
     12 C14        -0.7910   -1.0140   -0.1630 c         1 0N8      0.591300
     13 O27        -0.5710   -0.6080   -1.3160 o         1 0N8     -0.579100
     14 C22        -1.6720   -2.1110    0.1730 ce        1 0N8     -0.403200
     15 C23        -2.3370   -2.9210   -0.6910 cf        1 0N8      0.114900
     16 O28        -2.2300   -2.7650   -2.0350 oh        1 0N8     -0.497100
     17 C24        -3.2520   -4.0680   -0.2280 c         1 0N8      0.881800
     18 O26        -3.7840   -4.7240   -1.1690 o         1 0N8     -0.802300
     19 O25        -3.4040   -4.2700    1.0000 o         1 0N8     -0.802300
     20 C12         0.7520   -1.3590    1.7830 c3        1 0N8     -0.061400
     21 C13         1.9490   -1.8290    0.9620 c3        1 0N8      0.160300
     22 N8          2.8050   -0.7310    0.5220 n3        1 0N8     -0.727600
     23 C7          3.9300   -1.2270   -0.2650 c3        1 0N8      0.208100
     24 C2          5.0160   -0.2130   -0.4860 ca        1 0N8     -0.071300
     25 C3          5.5300    0.5330    0.5800 ca        1 0N8     -0.118000
     26 C4          6.5750    1.4310    0.3680 ca        1 0N8     -0.138500
     27 C5          7.1150    1.5900   -0.9090 ca        1 0N8     -0.140000
     28 C6          6.6040    0.8500   -1.9740 ca        1 0N8     -0.138500
     29 C1          5.5570   -0.0470   -1.7660 ca        1 0N8     -0.118000
     30 H1         -2.3780    4.7120    1.5120 ha        1 0N8      0.140000
     31 H2         -0.8940    2.9160    2.3870 ha        1 0N8      0.151500
     32 H3         -4.7540    1.7270   -0.5500 ha        1 0N8      0.140000
     33 H4         -3.2550   -0.0660    0.3320 ha        1 0N8      0.151500
     34 H5         -0.5940    0.6320    2.8980 hc        1 0N8      0.054200
     35 H6         -1.7960   -0.6050    2.3490 hc        1 0N8      0.054200
     36 H7          0.2540    1.4750   -0.1260 hc        1 0N8      0.049450
     37 H8          1.1470    1.3940    1.4550 hc        1 0N8      0.049450
     38 H9          1.7130   -0.0710   -1.2060 h1        1 0N8      0.040450
     39 H10         2.7550    1.1640   -0.3550 h1        1 0N8      0.040450
     40 H11        -1.8280   -2.3410    1.2400 ha        1 0N8      0.153000
     41 H14        -2.7900   -3.4570   -2.4500 ho        1 0N8      0.448000
     42 H16         1.1110   -0.8990    2.7410 hc        1 0N8      0.049450
     43 H17         0.1320   -2.2560    2.0410 hc        1 0N8      0.049450
     44 H18         2.5740   -2.5140    1.6010 h1        1 0N8      0.040450
     45 H19         1.5640   -2.4300    0.0850 h1        1 0N8      0.040450
     46 H21         4.3890   -2.0910    0.3010 h1        1 0N8      0.038700
     47 H22         3.5900   -1.6260   -1.2680 h1        1 0N8      0.038700
     48 H23         5.1000    0.4120    1.5860 ha        1 0N8      0.140500
     49 H24         6.9720    2.0170    1.2090 ha        1 0N8      0.123000
     50 H25         7.9390    2.2980   -1.0740 ha        1 0N8      0.121000
     51 H26         7.0240    0.9760   -2.9830 ha        1 0N8      0.123000
     52 H27         5.1520   -0.6220   -2.6120 ha        1 0N8      0.140500
@<TRIPOS>BOND
     1    1    2 1   
     2    2    3 ar  
     3    2    5 ar  
     4    3    4 ar  
     5    3   30 1   
     6    4    7 ar  
     7    4   31 1   
     8    5    6 ar  
     9    5   32 1   
    10    6    7 ar  
    11    6   33 1   
    12    7    8 1   
    13    8    9 1   
    14    8   34 1   
    15    8   35 1   
    16    9   10 1   
    17    9   12 1   
    18    9   20 1   
    19   10   11 1   
    20   10   36 1   
    21   10   37 1   
    22   11   22 1   
    23   11   38 1   
    24   11   39 1   
    25   12   13 2   
    26   12   14 1   
    27   14   15 2   
    28   14   40 1   
    29   15   16 1   
    30   15   17 1   
    31   16   41 1   
    32   17   18 1   
    33   17   19 1   
    34   20   21 1   
    35   20   42 1   
    36   20   43 1   
    37   21   22 1   
    38   21   44 1   
    39   21   45 1   
    40   22   23 1   
    41   23   24 1   
    42   23   46 1   
    43   23   47 1   
    44   24   25 ar  
    45   24   29 ar  
    46   25   26 ar  
    47   25   48 1   
    48   26   27 ar  
    49   26   49 1   
    50   27   28 ar  
    51   27   50 1   
    52   28   29 ar  
    53   28   51 1   
    54   29   52 1   
@<TRIPOS>SUBSTRUCTURE
     1 0N8         1 TEMP              0 ****  ****    0 ROOT
