@<TRIPOS>MOLECULE
0N8
   52    54     1     0     0
SMALL
bcc


@<TRIPOS>ATOM
      1 Cl2         0.0540   -0.9080    0.0230 cl        1 0N8     -0.127400
      2 C19         1.7310   -0.5970   -0.0090 ca        1 0N8      0.009400
      3 C18         2.4800   -0.7330    1.1630 ca        1 0N8     -0.127500
      4 C17         3.8500   -0.4840    1.1310 ca        1 0N8     -0.115000
      5 C20         2.3430   -0.2080   -1.2040 ca        1 0N8     -0.127500
      6 C21         3.7140    0.0380   -1.2240 ca        1 0N8     -0.115000
      7 C16         4.4800   -0.1000   -0.0590 ca        1 0N8     -0.064300
      8 C15         5.9530    0.1140   -0.0980 c3        1 0N8     -0.029100
      9 C11         6.3850    1.5870   -0.0800 c3        1 0N8     -0.139000
     10 C10         5.8500    2.2500    1.1890 c3        1 0N8     -0.061400
     11 C9          6.4430    3.6330    1.4350 c3        1 0N8      0.160300
     12 C14         5.8790    2.3020   -1.3440 c         1 0N8      0.591300
     13 O27         5.1240    3.2820   -1.2310 o         1 0N8     -0.579100
     14 C22         6.3440    1.7580   -2.6010 ce        1 0N8     -0.403200
     15 C23         6.1110    2.2530   -3.8440 cf        1 0N8      0.114900
     16 O28         5.3720    3.3760   -4.0340 oh        1 0N8     -0.497100
     17 C24         6.6580    1.5960   -5.1230 c         1 0N8      0.881800
     18 O26         6.3480    2.1970   -6.1920 o         1 0N8     -0.802300
     19 O25         7.3450    0.5520   -5.0270 o         1 0N8     -0.802300
     20 C12         7.9140    1.6320   -0.0400 c3        1 0N8     -0.061400
     21 C13         8.4350    3.0480    0.1880 c3        1 0N8      0.160300
     22 N8          7.9030    3.6630    1.4010 n3        1 0N8     -0.727600
     23 C7          8.4230    5.0150    1.5740 c3        1 0N8      0.208100
     24 C2          8.1800    5.5950    2.9380 ca        1 0N8     -0.071300
     25 C3          8.4840    4.8650    4.0920 ca        1 0N8     -0.118000
     26 C4          8.3030    5.4360    5.3510 ca        1 0N8     -0.138500
     27 C5          7.8210    6.7400    5.4670 ca        1 0N8     -0.140000
     28 C6          7.5150    7.4700    4.3190 ca        1 0N8     -0.138500
     29 C1          7.6910    6.9010    3.0590 ca        1 0N8     -0.118000
     30 H1          1.9950   -1.0330    2.1030 ha        1 0N8      0.140000
     31 H2          4.4420   -0.5840    2.0540 ha        1 0N8      0.151500
     32 H3          1.7500   -0.0900   -2.1230 ha        1 0N8      0.140000
     33 H4          4.2070    0.3610   -2.1590 ha        1 0N8      0.151500
     34 H5          6.4230   -0.3980    0.7850 hc        1 0N8      0.054200
     35 H6          6.3650   -0.3710   -1.0250 hc        1 0N8      0.054200
     36 H7          6.0670    1.5830    2.0640 hc        1 0N8      0.049450
     37 H8          4.7370    2.3640    1.1020 hc        1 0N8      0.049450
     38 H9          6.1310    3.9820    2.4600 h1        1 0N8      0.040450
     39 H10         5.9990    4.3420    0.6740 h1        1 0N8      0.040450
     40 H11         6.9660    0.8480   -2.5710 ha        1 0N8      0.153000
     41 H14         5.3420    3.5390   -5.0010 ho        1 0N8      0.448000
     42 H16         8.3380    1.2560   -1.0070 hc        1 0N8      0.049450
     43 H17         8.2760    0.9610    0.7820 hc        1 0N8      0.049450
     44 H18         8.1970    3.6660   -0.7280 h1        1 0N8      0.040450
     45 H19         9.5560    3.0030    0.2920 h1        1 0N8      0.040450
     46 H21         9.5420    4.9740    1.4220 h1        1 0N8      0.038700
     47 H22         8.0050    5.7230    0.7950 h1        1 0N8      0.038700
     48 H23         8.8590    3.8340    4.0010 ha        1 0N8      0.140500
     49 H24         8.5400    4.8560    6.2540 ha        1 0N8      0.123000
     50 H25         7.6790    7.1890    6.4600 ha        1 0N8      0.121000
     51 H26         7.1300    8.4960    4.4060 ha        1 0N8      0.123000
     52 H27         7.4410    7.4790    2.1560 ha        1 0N8      0.140500
@<TRIPOS>BOND
     1    1    2 1   
     2    2    3 ar  
     3    2    5 ar  
     4    3    4 ar  
     5    3   30 1   
     6    4    7 ar  
     7    4   31 1   
     8    5    6 ar  
     9    5   32 1   
    10    6    7 ar  
    11    6   33 1   
    12    7    8 1   
    13    8    9 1   
    14    8   34 1   
    15    8   35 1   
    16    9   10 1   
    17    9   12 1   
    18    9   20 1   
    19   10   11 1   
    20   10   36 1   
    21   10   37 1   
    22   11   22 1   
    23   11   38 1   
    24   11   39 1   
    25   12   13 2   
    26   12   14 1   
    27   14   15 2   
    28   14   40 1   
    29   15   16 1   
    30   15   17 1   
    31   16   41 1   
    32   17   18 1   
    33   17   19 1   
    34   20   21 1   
    35   20   42 1   
    36   20   43 1   
    37   21   22 1   
    38   21   44 1   
    39   21   45 1   
    40   22   23 1   
    41   23   24 1   
    42   23   46 1   
    43   23   47 1   
    44   24   25 ar  
    45   24   29 ar  
    46   25   26 ar  
    47   25   48 1   
    48   26   27 ar  
    49   26   49 1   
    50   27   28 ar  
    51   27   50 1   
    52   28   29 ar  
    53   28   51 1   
    54   29   52 1   
@<TRIPOS>SUBSTRUCTURE
     1 0N8         1 TEMP              0 ****  ****    0 ROOT
