@<TRIPOS>MOLECULE
0N8
   52    54     1     0     0
SMALL
bcc


@<TRIPOS>ATOM
      1 CL2         0.0610   -0.9240    0.0520 cl        1 0N8     -0.127400
      2 C19         1.7380   -0.6090    0.0130 ca        1 0N8      0.009400
      3 C18         2.4920   -0.7440    1.1820 ca        1 0N8     -0.127500
      4 C17         3.8610   -0.4910    1.1450 ca        1 0N8     -0.115000
      5 C20         2.3430   -0.2170   -1.1840 ca        1 0N8     -0.127500
      6 C21         3.7130    0.0310   -1.2100 ca        1 0N8     -0.115000
      7 C16         4.4850   -0.1050   -0.0480 ca        1 0N8     -0.064300
      8 C15         5.9570    0.1130   -0.0940 c3        1 0N8     -0.029100
      9 C11         6.3860    1.5870   -0.0790 c3        1 0N8     -0.139000
     10 C10         5.8530    2.2490    1.1910 c3        1 0N8     -0.061400
     11 C9          6.4440    3.6350    1.4330 c3        1 0N8      0.160300
     12 C14         5.8750    2.2990   -1.3420 c         1 0N8      0.591300
     13 O27         5.1180    3.2770   -1.2290 o         1 0N8     -0.579100
     14 C22         6.3360    1.7530   -2.6000 ce        1 0N8     -0.403200
     15 C23         6.0980    2.2460   -3.8430 cf        1 0N8      0.114900
     16 O28         5.3540    3.3660   -4.0320 oh        1 0N8     -0.497100
     17 C24         6.6430    1.5890   -5.1230 c         1 0N8      0.881800
     18 O26         6.3270    2.1870   -6.1920 o         1 0N8     -0.802300
     19 O25         7.3340    0.5470   -5.0280 o         1 0N8     -0.802300
     20 C12         7.9150    1.6350   -0.0440 c3        1 0N8     -0.061400
     21 C13         8.4330    3.0520    0.1800 c3        1 0N8      0.160300
     22 N8          7.9040    3.6680    1.3940 n3        1 0N8     -0.727600
     23 C7          8.4210    5.0220    1.5630 c3        1 0N8      0.208100
     24 C2          8.1810    5.6030    2.9260 ca        1 0N8     -0.071300
     25 C3          8.4900    4.8760    4.0810 ca        1 0N8     -0.118000
     26 C4          8.3110    5.4500    5.3390 ca        1 0N8     -0.138500
     27 C5          7.8260    6.7530    5.4540 ca        1 0N8     -0.140000
     28 C6          7.5160    7.4800    4.3060 ca        1 0N8     -0.138500
     29 C1          7.6890    6.9080    3.0460 ca        1 0N8     -0.118000
     30 H1          2.0110   -1.0460    2.1230 ha        1 0N8      0.140000
     31 H2          4.4570   -0.5910    2.0640 ha        1 0N8      0.151500
     32 H3          1.7470   -0.1010   -2.1010 ha        1 0N8      0.140000
     33 H4          4.2020    0.3560   -2.1470 ha        1 0N8      0.151500
     34 H5          6.3670   -0.3730   -1.0210 hc        1 0N8      0.054200
     35 H6          6.4330   -0.3980    0.7880 hc        1 0N8      0.054200
     36 H7          4.7410    2.3610    1.1070 hc        1 0N8      0.049450
     37 H8          6.0750    1.5850    2.0660 hc        1 0N8      0.049450
     38 H9          5.9960    4.3420    0.6720 h1        1 0N8      0.040450
     39 H10         6.1350    3.9850    2.4580 h1        1 0N8      0.040450
     40 H11         6.9620    0.8450   -2.5710 ha        1 0N8      0.153000
     41 H14         5.3210    3.5280   -4.9990 ho        1 0N8      0.448000
     42 H16         8.2820    0.9660    0.7780 hc        1 0N8      0.049450
     43 H17         8.3370    1.2580   -1.0120 hc        1 0N8      0.049450
     44 H18         8.1910    3.6680   -0.7360 h1        1 0N8      0.040450
     45 H19         9.5550    3.0100    0.2810 h1        1 0N8      0.040450
     46 H21         8.0000    5.7270    0.7840 h1        1 0N8      0.038700
     47 H22         9.5400    4.9830    1.4070 h1        1 0N8      0.038700
     48 H23         8.8670    3.8460    3.9910 ha        1 0N8      0.140500
     49 H24         8.5520    4.8720    6.2430 ha        1 0N8      0.123000
     50 H25         7.6860    7.2030    6.4470 ha        1 0N8      0.121000
     51 H26         7.1280    8.5050    4.3920 ha        1 0N8      0.123000
     52 H27         7.4350    7.4840    2.1440 ha        1 0N8      0.140500
@<TRIPOS>BOND
     1    1    2 1   
     2    2    3 ar  
     3    2    5 ar  
     4    3    4 ar  
     5    3   30 1   
     6    4    7 ar  
     7    4   31 1   
     8    5    6 ar  
     9    5   32 1   
    10    6    7 ar  
    11    6   33 1   
    12    7    8 1   
    13    8    9 1   
    14    8   34 1   
    15    8   35 1   
    16    9   10 1   
    17    9   12 1   
    18    9   20 1   
    19   10   11 1   
    20   10   36 1   
    21   10   37 1   
    22   11   22 1   
    23   11   38 1   
    24   11   39 1   
    25   12   13 2   
    26   12   14 1   
    27   14   15 2   
    28   14   40 1   
    29   15   16 1   
    30   15   17 1   
    31   16   41 1   
    32   17   18 1   
    33   17   19 1   
    34   20   21 1   
    35   20   42 1   
    36   20   43 1   
    37   21   22 1   
    38   21   44 1   
    39   21   45 1   
    40   22   23 1   
    41   23   24 1   
    42   23   46 1   
    43   23   47 1   
    44   24   25 ar  
    45   24   29 ar  
    46   25   26 ar  
    47   25   48 1   
    48   26   27 ar  
    49   26   49 1   
    50   27   28 ar  
    51   27   50 1   
    52   28   29 ar  
    53   28   51 1   
    54   29   52 1   
@<TRIPOS>SUBSTRUCTURE
     1 0N8         1 TEMP              0 ****  ****    0 ROOT
