@<TRIPOS>MOLECULE
0N8
   52    54     1     0     0
SMALL
bcc


@<TRIPOS>ATOM
      1 CL2         0.0690   -0.9380    0.0490 cl        1 0N8     -0.127400
      2 C19         1.7450   -0.6190    0.0110 ca        1 0N8      0.009400
      3 C18         2.4980   -0.7500    1.1810 ca        1 0N8     -0.127500
      4 C17         3.8670   -0.4940    1.1450 ca        1 0N8     -0.115000
      5 C20         2.3510   -0.2280   -1.1870 ca        1 0N8     -0.127500
      6 C21         3.7210    0.0230   -1.2110 ca        1 0N8     -0.115000
      7 C16         4.4910   -0.1090   -0.0480 ca        1 0N8     -0.064300
      8 C15         5.9630    0.1120   -0.0930 c3        1 0N8     -0.029100
      9 C11         6.3880    1.5870   -0.0780 c3        1 0N8     -0.139000
     10 C10         5.8540    2.2490    1.1910 c3        1 0N8     -0.061400
     11 C9          6.4420    3.6360    1.4330 c3        1 0N8      0.160300
     12 C14         5.8760    2.2970   -1.3420 c         1 0N8      0.591300
     13 O27         5.1170    3.2740   -1.2290 o         1 0N8     -0.579100
     14 C22         6.3390    1.7520   -2.5990 ce        1 0N8     -0.403200
     15 C23         6.0990    2.2440   -3.8420 cf        1 0N8      0.114900
     16 O28         5.3540    3.3620   -4.0320 oh        1 0N8     -0.497100
     17 C24         6.6460    1.5870   -5.1220 c         1 0N8      0.881800
     18 O26         6.3300    2.1840   -6.1910 o         1 0N8     -0.802300
     19 O25         7.3390    0.5460   -5.0260 o         1 0N8     -0.802300
     20 C12         7.9170    1.6390   -0.0430 c3        1 0N8     -0.061400
     21 C13         8.4320    3.0570    0.1810 c3        1 0N8      0.160300
     22 N8          7.9010    3.6720    1.3940 n3        1 0N8     -0.727600
     23 C7          8.4150    5.0270    1.5630 c3        1 0N8      0.208100
     24 C2          8.1740    5.6080    2.9260 ca        1 0N8     -0.071300
     25 C3          8.4850    4.8820    4.0810 ca        1 0N8     -0.118000
     26 C4          8.3050    5.4560    5.3390 ca        1 0N8     -0.138500
     27 C5          7.8170    6.7570    5.4540 ca        1 0N8     -0.140000
     28 C6          7.5050    7.4840    4.3050 ca        1 0N8     -0.138500
     29 C1          7.6800    6.9120    3.0460 ca        1 0N8     -0.118000
     30 H1          2.0170   -1.0500    2.1220 ha        1 0N8      0.140000
     31 H2          4.4620   -0.5900    2.0650 ha        1 0N8      0.151500
     32 H3          1.7550   -0.1150   -2.1040 ha        1 0N8      0.140000
     33 H4          4.2100    0.3470   -2.1480 ha        1 0N8      0.151500
     34 H5          6.4390   -0.3970    0.7900 hc        1 0N8      0.054200
     35 H6          6.3740   -0.3740   -1.0190 hc        1 0N8      0.054200
     36 H7          6.0770    1.5850    2.0670 hc        1 0N8      0.049450
     37 H8          4.7410    2.3580    1.1070 hc        1 0N8      0.049450
     38 H9          6.1310    3.9860    2.4580 h1        1 0N8      0.040450
     39 H10         5.9920    4.3410    0.6720 h1        1 0N8      0.040450
     40 H11         6.9660    0.8450   -2.5700 ha        1 0N8      0.153000
     41 H14         5.3210    3.5240   -5.0000 ho        1 0N8      0.448000
     42 H16         8.2850    0.9710    0.7790 hc        1 0N8      0.049450
     43 H17         8.3400    1.2620   -1.0100 hc        1 0N8      0.049450
     44 H18         9.5530    3.0180    0.2820 h1        1 0N8      0.040450
     45 H19         8.1890    3.6720   -0.7360 h1        1 0N8      0.040450
     46 H21         7.9920    5.7310    0.7840 h1        1 0N8      0.038700
     47 H22         9.5340    4.9910    1.4070 h1        1 0N8      0.038700
     48 H23         8.8630    3.8530    3.9910 ha        1 0N8      0.140500
     49 H24         8.5470    4.8780    6.2430 ha        1 0N8      0.123000
     50 H25         7.6760    7.2080    6.4460 ha        1 0N8      0.121000
     51 H26         7.1160    8.5080    4.3910 ha        1 0N8      0.123000
     52 H27         7.4240    7.4870    2.1430 ha        1 0N8      0.140500
@<TRIPOS>BOND
     1    1    2 1   
     2    2    3 ar  
     3    2    5 ar  
     4    3    4 ar  
     5    3   30 1   
     6    4    7 ar  
     7    4   31 1   
     8    5    6 ar  
     9    5   32 1   
    10    6    7 ar  
    11    6   33 1   
    12    7    8 1   
    13    8    9 1   
    14    8   34 1   
    15    8   35 1   
    16    9   10 1   
    17    9   12 1   
    18    9   20 1   
    19   10   11 1   
    20   10   36 1   
    21   10   37 1   
    22   11   22 1   
    23   11   38 1   
    24   11   39 1   
    25   12   13 2   
    26   12   14 1   
    27   14   15 2   
    28   14   40 1   
    29   15   16 1   
    30   15   17 1   
    31   16   41 1   
    32   17   18 1   
    33   17   19 1   
    34   20   21 1   
    35   20   42 1   
    36   20   43 1   
    37   21   22 1   
    38   21   44 1   
    39   21   45 1   
    40   22   23 1   
    41   23   24 1   
    42   23   46 1   
    43   23   47 1   
    44   24   25 ar  
    45   24   29 ar  
    46   25   26 ar  
    47   25   48 1   
    48   26   27 ar  
    49   26   49 1   
    50   27   28 ar  
    51   27   50 1   
    52   28   29 ar  
    53   28   51 1   
    54   29   52 1   
@<TRIPOS>SUBSTRUCTURE
     1 0N8         1 TEMP              0 ****  ****    0 ROOT
