@<TRIPOS>MOLECULE
0N8
   52    47     1     0     0
SMALL
bcc


@<TRIPOS>ATOM
      1 CL2        -2.6530   -5.1040    4.0540 cl        1 0N8     -0.044000
      2 C19        -2.2650   -4.1550    2.5890 c1        1 0N8     -0.071000
      3 C18        -1.0520   -4.3550    1.9270 c1        1 0N8     -0.130500
      4 C17        -0.7650   -3.6420    0.7420 c1        1 0N8     -0.130500
      5 C20        -3.1920   -3.2490    2.0800 c1        1 0N8     -0.128000
      6 C21        -2.9060   -2.5370    0.8990 c1        1 0N8     -0.123000
      7 C16        -1.6860   -2.7410    0.2350 c1        1 0N8     -0.045000
      8 C15        -1.4700   -2.1270   -1.1750 c2        1 0N8     -0.125000
      9 C11        -0.8500   -0.7260   -1.0280 c3        1 0N8     -0.088000
     10 C10        -1.3790   -0.0120    0.1950 c3        1 0N8     -0.143500
     11 C9         -0.6950    1.3590    0.4400 c3        1 0N8     -0.074500
     12 C14        -1.3210   -0.0370   -2.3550 c2        1 0N8      0.283000
     13 O27        -2.1410    0.8100   -2.3200 o         1 0N8     -0.345000
     14 C22        -0.7410   -0.4930   -3.7110 c2        1 0N8     -0.378000
     15 C23        -1.0260    0.2260   -4.8640 c1        1 0N8      0.093000
     16 O28        -1.8380    1.3630   -4.7990 o         1 0N8     -0.253000
     17 C24        -0.4720   -0.2180   -6.1760 c2        1 0N8      0.333000
     18 O26         0.6600    0.2130   -6.5710 o         1 0N8     -0.538000
     19 O25        -1.1710   -0.9590   -6.9390 o         1 0N8     -0.538000
     20 C12         0.6620   -0.7860   -0.9450 c3        1 0N8     -0.143500
     21 C13         1.3090    0.5960   -0.6810 c3        1 0N8     -0.074500
     22 N8          0.7500    1.2700    0.4660 n3        1 0N8     -0.253000
     23 C7          1.3130    2.5910    0.5640 c3        1 0N8     -0.035000
     24 C2          2.1510    2.7180    1.9090 c2        1 0N8     -0.064000
     25 C3          3.3350    1.9950    2.0670 c2        1 0N8     -0.108000
     26 C4          4.1140    2.1680    3.2210 c1        1 0N8     -0.140000
     27 C5          3.7020    3.0740    4.2240 c1        1 0N8     -0.130500
     28 C6          2.5140    3.8010    4.0670 c1        1 0N8     -0.130500
     29 C1          1.7360    3.6300    2.9180 c1        1 0N8     -0.129000
     30 H1         -0.4310   -5.0580    2.2410 ha        1 0N8      0.132500
     31 H2          0.0770   -3.7820    0.2850 ha        1 0N8      0.132500
     32 H3         -4.1140   -3.1450    2.5360 ha        1 0N8      0.137000
     33 H4         -3.5490   -1.9080    0.5450 ha        1 0N8      0.139000
     34 H5         -2.3990   -2.0550   -1.6680 ha        1 0N8      0.104500
     35 H6         -0.8560   -2.7080   -1.7050 ha        1 0N8      0.104500
     36 H7         -2.3450    0.1310    0.0810 hc        1 0N8      0.090250
     37 H8         -1.2390   -0.5620    0.9560 hc        1 0N8      0.090250
     38 H9         -0.9590    1.9720   -0.2610 h1        1 0N8      0.078750
     39 H10        -1.0080    1.7220    1.3230 h1        1 0N8      0.078750
     40 H11        -0.1590   -1.3020   -3.7590 ha        1 0N8      0.152000
     41 H14        -1.4310    2.0590   -5.2500 ho        1 0N8      0.247000
     42 H16         0.9970   -1.1270   -1.7490 hc        1 0N8      0.090250
     43 H17         0.8980   -1.3580   -0.2570 hc        1 0N8      0.090250
     44 H18         1.1720    1.1680   -1.4860 h1        1 0N8      0.078750
     45 H19         2.3150    0.4700   -0.5340 h1        1 0N8      0.078750
     46 H21         1.8960    2.7520   -0.2010 h1        1 0N8      0.078000
     47 H22         0.5940    3.2500    0.5680 h1        1 0N8      0.078000
     48 H23         3.6260    1.3600    1.3650 ha        1 0N8      0.150000
     49 H24         4.9600    1.6450    3.3350 ha        1 0N8      0.124000
     50 H25         4.2420    3.1930    5.0220 ha        1 0N8      0.132500
     51 H26         2.2230    4.4430    4.7780 ha        1 0N8      0.132500
     52 H27         0.8640    4.1640    2.8020 ha        1 0N8      0.132000
@<TRIPOS>BOND
     1    1    2 1   
     2    2    5 1   
     3    3    4 1   
     4    3   30 1   
     5    4   31 1   
     6    5   32 1   
     7    6    7 1   
     8    6   33 1   
     9    8    9 1   
    10    8   34 1   
    11    8   35 1   
    12    9   10 1   
    13    9   12 1   
    14    9   20 1   
    15   10   11 1   
    16   10   36 1   
    17   10   37 1   
    18   11   22 1   
    19   11   38 1   
    20   11   39 1   
    21   12   13 1   
    22   12   14 1   
    23   14   15 1   
    24   14   40 1   
    25   15   17 1   
    26   16   41 1   
    27   17   18 1   
    28   17   19 1   
    29   20   21 1   
    30   20   42 1   
    31   20   43 1   
    32   21   22 1   
    33   21   44 1   
    34   21   45 1   
    35   22   23 1   
    36   23   24 1   
    37   23   46 1   
    38   23   47 1   
    39   24   25 1   
    40   24   29 1   
    41   25   26 1   
    42   25   48 1   
    43   26   49 1   
    44   27   28 1   
    45   27   50 1   
    46   28   51 1   
    47   29   52 1   
@<TRIPOS>SUBSTRUCTURE
     1 0N8         1 TEMP              0 ****  ****    0 ROOT
