@<TRIPOS>MOLECULE
0N9
   24    25     1     0     0
SMALL
bcc


@<TRIPOS>ATOM
      1 O16         0.2400   -0.3520    0.1110 o         1 0N9     -0.810300
      2 C14         1.3740    0.1730    0.0260 c         1 0N9      0.936800
      3 O15         1.9740    0.7610    0.9750 o         1 0N9     -0.810300
      4 C3          2.1530    0.0880   -1.3040 cc        1 0N9      0.001400
      5 C2          3.5370    0.0240   -1.3080 cd        1 0N9      0.004900
      6 O13         4.3470    0.0520   -0.2110 oh        1 0N9     -0.509100
      7 N4          1.4330    0.0820   -2.4850 nc        1 0N9     -0.557300
      8 C5          2.0920   -0.0180   -3.6350 cd        1 0N9      0.377900
      9 N6          3.4860   -0.1220   -3.7330 n         1 0N9     -0.467400
     10 C1          4.2810   -0.1010   -2.5780 c         1 0N9      0.679700
     11 O12         5.5190   -0.1890   -2.7120 o         1 0N9     -0.665500
     12 C7          1.3090   -0.0290   -4.8820 cd        1 0N9      0.264000
     13 N11         1.8380   -0.0500   -6.1830 nd        1 0N9     -0.665000
     14 C10         0.7740   -0.0520   -7.0070 cc        1 0N9      0.373400
     15 N9         -0.4380   -0.0280   -6.2900 na        1 0N9     -0.219900
     16 C17        -1.7480   -0.0540   -6.8420 c3        1 0N9      0.029600
     17 C8         -0.1020   -0.0180   -4.9370 cc        1 0N9     -0.179600
     18 H3          3.7970    0.2870    0.5670 ho        1 0N9      0.476000
     19 H4          0.8110   -0.0630   -8.0990 h5        1 0N9      0.051100
     20 H5         -2.0050   -1.0910   -7.1940 h1        1 0N9      0.048700
     21 H6         -1.8100    0.6480   -7.7150 h1        1 0N9      0.048700
     22 H7         -2.4940    0.2580   -6.0630 h1        1 0N9      0.048700
     23 H8         -0.8350   -0.0010   -4.1280 h4        1 0N9      0.211000
     24 H2          3.9260   -0.1920   -4.6220 hn        1 0N9      0.332500
@<TRIPOS>BOND
     1    1    2 1   
     2    2    3 1   
     3    2    4 1   
     4    4    5 2   
     5    4    7 1   
     6    5    6 1   
     7    5   10 1   
     8    6   18 1   
     9    7    8 2   
    10    8    9 1   
    11    8   12 1   
    12    9   10 1   
    13    9   24 1   
    14   10   11 2   
    15   12   13 1   
    16   12   17 2   
    17   13   14 2   
    18   14   15 1   
    19   14   19 1   
    20   15   16 1   
    21   15   17 1   
    22   16   20 1   
    23   16   21 1   
    24   16   22 1   
    25   17   23 1   
@<TRIPOS>SUBSTRUCTURE
     1 0N9         1 TEMP              0 ****  ****    0 ROOT
