@<TRIPOS>MOLECULE
0N9
   24    25     1     0     0
SMALL
bcc


@<TRIPOS>ATOM
      1 O16         0.2550   -0.3710    0.1130 o         1 0N9     -0.810300
      2 C14         1.3850    0.1620    0.0260 c         1 0N9      0.936800
      3 O15         1.9830    0.7520    0.9760 o         1 0N9     -0.810300
      4 C3          2.1600    0.0870   -1.3060 cc        1 0N9      0.001400
      5 C2          3.5450    0.0320   -1.3150 cd        1 0N9      0.004900
      6 O13         4.3580    0.0640   -0.2200 oh        1 0N9     -0.509100
      7 N4          1.4360    0.0790   -2.4840 nc        1 0N9     -0.557300
      8 C5          2.0930   -0.0140   -3.6380 cd        1 0N9      0.377900
      9 N6          3.4870   -0.1070   -3.7400 n         1 0N9     -0.467400
     10 C1          4.2860   -0.0830   -2.5870 c         1 0N9      0.679700
     11 O12         5.5240   -0.1610   -2.7250 o         1 0N9     -0.665500
     12 C7          1.3060   -0.0260   -4.8820 cd        1 0N9      0.264000
     13 N11         1.8310   -0.0390   -6.1840 nd        1 0N9     -0.665000
     14 C10         0.7640   -0.0470   -7.0050 cc        1 0N9      0.373400
     15 N9         -0.4460   -0.0350   -6.2850 na        1 0N9     -0.219900
     16 C17        -1.7580   -0.0680   -6.8320 c3        1 0N9      0.029600
     17 C8         -0.1060   -0.0260   -4.9320 cc        1 0N9     -0.179600
     18 H3          3.8080    0.2920    0.5600 ho        1 0N9      0.476000
     19 H4          0.7970   -0.0550   -8.0970 h5        1 0N9      0.051100
     20 H5         -1.8340    0.6550   -7.6880 h1        1 0N9      0.048367
     21 H6         -1.9990   -1.1000   -7.2090 h1        1 0N9      0.048367
     22 H7         -2.5050    0.2140   -6.0440 h1        1 0N9      0.048367
     23 H8         -0.8360   -0.0170   -4.1210 h4        1 0N9      0.211000
     24 H2          3.9250   -0.1700   -4.6300 hn        1 0N9      0.332500
@<TRIPOS>BOND
     1    1    2 1   
     2    2    3 1   
     3    2    4 1   
     4    4    5 2   
     5    4    7 1   
     6    5    6 1   
     7    5   10 1   
     8    6   18 1   
     9    7    8 2   
    10    8    9 1   
    11    8   12 1   
    12    9   10 1   
    13    9   24 1   
    14   10   11 2   
    15   12   13 1   
    16   12   17 2   
    17   13   14 2   
    18   14   15 1   
    19   14   19 1   
    20   15   16 1   
    21   15   17 1   
    22   16   20 1   
    23   16   21 1   
    24   16   22 1   
    25   17   23 1   
@<TRIPOS>SUBSTRUCTURE
     1 0N9         1 TEMP              0 ****  ****    0 ROOT
