@<TRIPOS>MOLECULE
0N9
   24    25     1     0     0
SMALL
bcc


@<TRIPOS>ATOM
      1 O16         0.2510   -0.3890    0.1100 o         1 0N9     -0.810300
      2 C14         1.3810    0.1460    0.0270 c         1 0N9      0.936800
      3 O15         1.9770    0.7330    0.9800 o         1 0N9     -0.810300
      4 C3          2.1570    0.0780   -1.3050 cc        1 0N9      0.001400
      5 C2          3.5420    0.0250   -1.3130 cd        1 0N9      0.004900
      6 O13         4.3540    0.0530   -0.2170 oh        1 0N9     -0.509100
      7 N4          1.4350    0.0740   -2.4840 nc        1 0N9     -0.557300
      8 C5          2.0930   -0.0130   -3.6370 cd        1 0N9      0.377900
      9 N6          3.4870   -0.1040   -3.7380 ns        1 0N9     -0.467400
     10 C1          4.2840   -0.0840   -2.5850 c         1 0N9      0.679700
     11 O12         5.5230   -0.1600   -2.7210 o         1 0N9     -0.665500
     12 C7          1.3070   -0.0210   -4.8820 cd        1 0N9      0.264000
     13 N11         1.8330   -0.0290   -6.1840 nd        1 0N9     -0.665000
     14 C10         0.7680   -0.0340   -7.0060 cc        1 0N9      0.373400
     15 N9         -0.4430   -0.0270   -6.2870 na        1 0N9     -0.219900
     16 C17        -1.7540   -0.0600   -6.8360 c3        1 0N9      0.029600
     17 C8         -0.1050   -0.0230   -4.9340 cc        1 0N9     -0.179600
     18 H3          3.8030    0.2780    0.5640 ho        1 0N9      0.476000
     19 H4          0.8020   -0.0380   -8.0980 h5        1 0N9      0.051100
     20 H5         -1.8270    0.6570   -7.6970 h1        1 0N9      0.048700
     21 H6         -1.9980   -1.0940   -7.2050 h1        1 0N9      0.048700
     22 H7         -2.5020    0.2300   -6.0500 h1        1 0N9      0.048700
     23 H8         -0.8360   -0.0180   -4.1230 h4        1 0N9      0.211000
     24 H2          3.9260   -0.1630   -4.6280 hn        1 0N9      0.332500
@<TRIPOS>BOND
     1    1    2 1   
     2    2    3 1   
     3    2    4 1   
     4    4    5 2   
     5    4    7 1   
     6    5    6 1   
     7    5   10 1   
     8    6   18 1   
     9    7    8 2   
    10    8    9 1   
    11    8   12 1   
    12    9   10 1   
    13    9   24 1   
    14   10   11 2   
    15   12   13 1   
    16   12   17 2   
    17   13   14 2   
    18   14   15 1   
    19   14   19 1   
    20   15   16 1   
    21   15   17 1   
    22   16   20 1   
    23   16   21 1   
    24   16   22 1   
    25   17   23 1   
@<TRIPOS>SUBSTRUCTURE
     1 0N9         1 TEMP              0 ****  ****    0 ROOT
