@<TRIPOS>MOLECULE
0N9
   24    25     1     0     0
SMALL
bcc


@<TRIPOS>ATOM
      1 O16         2.0950   -2.7640    0.5080 o         1 0N9     -0.810300
      2 C14         2.5310   -1.7200   -0.0300 c         1 0N9      0.936800
      3 O15         3.6630   -1.6120   -0.5900 o         1 0N9     -0.810300
      4 C3          1.6760   -0.4360    0.0010 cc        1 0N9      0.001400
      5 C2          2.2770    0.8110    0.0520 cd        1 0N9      0.004900
      6 O13         3.6190    1.0580    0.0550 oh        1 0N9     -0.509100
      7 N4          0.2990   -0.5650   -0.0280 nc        1 0N9     -0.557300
      8 C5         -0.4480    0.5340    0.0260 cd        1 0N9      0.377900
      9 N6          0.0730    1.8310    0.1130 n         1 0N9     -0.467400
     10 C1          1.4600    2.0390    0.1250 c         1 0N9      0.679700
     11 O12         1.8810    3.2130    0.1960 o         1 0N9     -0.665500
     12 C7         -1.9110    0.3770   -0.0010 cd        1 0N9      0.264000
     13 N11        -2.8480    1.4230   -0.0280 nd        1 0N9     -0.665000
     14 C10        -4.0550    0.8280   -0.0450 cc        1 0N9      0.373400
     15 N9         -3.9430   -0.5760   -0.0250 na        1 0N9     -0.219900
     16 C17        -5.0130   -1.5120   -0.0650 c3        1 0N9      0.029600
     17 C8         -2.5790   -0.8680   -0.0000 cc        1 0N9     -0.179600
     18 H3          4.0830    0.2160   -0.1470 ho        1 0N9      0.476000
     19 H4         -5.0210    1.3400   -0.0660 h5        1 0N9      0.051100
     20 H5         -5.4310   -1.5840   -1.1070 h1        1 0N9      0.048367
     21 H6         -4.6430   -2.5240    0.2480 h1        1 0N9      0.048367
     22 H7         -5.8320   -1.1860    0.6300 h1        1 0N9      0.048367
     23 H8         -2.1740   -1.8810    0.0200 h4        1 0N9      0.211000
     24 H2         -0.5340    2.6180    0.1470 hn        1 0N9      0.332500
@<TRIPOS>BOND
     1    1    2 1   
     2    2    3 1   
     3    2    4 1   
     4    4    5 2   
     5    4    7 1   
     6    5    6 1   
     7    5   10 1   
     8    6   18 1   
     9    7    8 2   
    10    8    9 1   
    11    8   12 1   
    12    9   10 1   
    13    9   24 1   
    14   10   11 2   
    15   12   13 1   
    16   12   17 2   
    17   13   14 2   
    18   14   15 1   
    19   14   19 1   
    20   15   16 1   
    21   15   17 1   
    22   16   20 1   
    23   16   21 1   
    24   16   22 1   
    25   17   23 1   
@<TRIPOS>SUBSTRUCTURE
     1 0N9         1 TEMP              0 ****  ****    0 ROOT
