@<TRIPOS>MOLECULE
0N9
   24    18     1     0     0
SMALL
bcc


@<TRIPOS>ATOM
      1 O16        -2.9050   -1.8470    3.3200 o         1 0N9     -0.545000
      2 C14        -1.6530   -1.7130    3.3170 c1        1 0N9      0.387000
      3 O15        -1.0260   -1.6090    4.4090 o         1 0N9     -0.545000
      4 C3         -0.8900   -1.7240    1.9980 c1        1 0N9     -0.120000
      5 C2         -0.6920   -2.9860    1.2780 c1        1 0N9     -0.020000
      6 O13        -1.1970   -4.1850    1.8050 oh        1 0N9     -0.264000
      7 N4         -0.4910   -0.5060    1.4030 n1        1 0N9     -0.129000
      8 C5          0.1490   -0.5080    0.0760 c1        1 0N9      0.113000
      9 N6          0.3110   -1.7490   -0.6520 n3        1 0N9     -0.307000
     10 C1         -0.0500   -2.9780   -0.0480 c1        1 0N9      0.318000
     11 O12         0.1310   -3.9980   -0.6250 o         1 0N9     -0.390000
     12 C7          0.6750    0.7960   -0.5200 c1        1 0N9     -0.092000
     13 N11         1.9140    1.2720   -0.3900 n2        1 0N9     -0.157000
     14 C10         1.9650    2.4920   -1.0030 c1        1 0N9     -0.115000
     15 N9          0.7330    2.7580   -1.5120 n2        1 0N9     -0.157000
     16 C17         0.3570    3.9350   -2.2600 c2        1 0N9     -0.069000
     17 C8         -0.0670    1.7230   -1.2220 c1        1 0N9     -0.092000
     18 H3         -0.5250   -4.7530    1.9520 ho        1 0N9      0.275000
     19 H4          2.7640    3.1050   -1.0350 DU        1 0N9      0.199500
     20 H5          1.0880    4.5950   -2.2220 ha        1 0N9      0.088000
     21 H6         -0.4600    4.3270   -1.8690 ha        1 0N9      0.088000
     22 H7          0.1870    3.6880   -3.1970 ha        1 0N9      0.088000
     23 H8         -1.0240    1.6080   -1.5270 DU        1 0N9      0.199500
     24 H2          0.7080   -1.7460   -1.4740 hn        1 0N9      0.246000
@<TRIPOS>BOND
     1    1    2 1   
     2    2    3 1   
     3    4    5 1   
     4    5    6 1   
     5    6   18 1   
     6    7    8 1   
     7    8    9 1   
     8    9   10 1   
     9    9   24 1   
    10   10   11 1   
    11   12   13 1   
    12   12   17 1   
    13   13   14 1   
    14   14   15 1   
    15   15   17 1   
    16   16   20 1   
    17   16   21 1   
    18   16   22 1   
@<TRIPOS>SUBSTRUCTURE
     1 0N9         1 TEMP              0 ****  ****    0 ROOT
