@<TRIPOS>MOLECULE
0NC
   17    16     1     0     0
SMALL
bcc


@<TRIPOS>ATOM
      1 N          -2.0630    0.0890   -0.7390 n3        1 0NC     -0.911800
      2 CA         -0.6370    0.0670   -0.8850 c3        1 0NC      0.092500
      3 C           0.0120    0.1210    0.4710 c         1 0NC      0.654100
      4 O          -0.1270    1.0840    1.1580 o         1 0NC     -0.614100
      5 CB         -0.1970    1.2680   -1.7120 c3        1 0NC     -0.123100
      6 HN         -2.3460   -0.7010   -0.3930 hn        1 0NC      0.355800
      7 N1          0.8970   -0.9160    0.8700 n         1 0NC     -0.560900
      8 C1          1.5070   -0.8810    2.1740 c3        1 0NC      0.075300
      9 HN1         1.1370   -1.5490    0.2800 hn        1 0NC      0.322500
     10 HNA        -2.4580    0.2220   -1.5720 hn        1 0NC      0.355800
     11 HA         -0.3640   -0.7730   -1.3470 h1        1 0NC      0.074700
     12 HB          0.7930    1.3530   -1.6780 hc        1 0NC      0.049700
     13 HBA        -0.5990    2.0640   -1.3550 hc        1 0NC      0.049700
     14 HBB        -0.4940    1.1420   -2.6760 hc        1 0NC      0.049700
     15 H1          0.8160   -0.9250    2.8580 h1        1 0NC      0.043033
     16 H1A         2.0960   -1.6290    2.2690 h1        1 0NC      0.043033
     17 H1B         2.0260   -0.0360    2.2770 h1        1 0NC      0.043033
@<TRIPOS>BOND
     1    1    2 1   
     2    1    6 1   
     3    1   10 1   
     4    2    3 1   
     5    2    5 1   
     6    2   11 1   
     7    3    4 2   
     8    3    7 1   
     9    5   12 1   
    10    5   13 1   
    11    5   14 1   
    12    7    8 1   
    13    7    9 1   
    14    8   15 1   
    15    8   16 1   
    16    8   17 1   
@<TRIPOS>SUBSTRUCTURE
     1 0NC         1 TEMP              0 ****  ****    0 ROOT
