@<TRIPOS>MOLECULE
0NC
   17    16     1     0     0
SMALL
bcc


@<TRIPOS>ATOM
      1 N           1.9100    0.8320   -0.5780 n3        1 0NC     -0.901800
      2 CA          1.1210   -0.3600   -0.3330 c3        1 0NC      0.104500
      3 C          -0.2700    0.0370    0.2130 c         1 0NC      0.657100
      4 O          -0.3670    0.7070    1.2610 o         1 0NC     -0.613100
      5 CB          1.7110   -1.3650    0.6570 c3        1 0NC     -0.132100
      6 HN          1.7990    1.4910    0.1700 hn        1 0NC      0.360300
      7 N1         -1.3750   -0.4150   -0.4710 n         1 0NC     -0.564900
      8 C1         -2.7080   -0.0660   -0.0950 c3        1 0NC      0.075300
      9 HN1        -1.2480   -0.8310   -1.3630 hn        1 0NC      0.310500
     10 HNA         2.8780    0.5870   -0.6570 hn        1 0NC      0.360300
     11 HA          1.0240   -0.8770   -1.3350 h1        1 0NC      0.061700
     12 HB          1.7840   -0.9140    1.6770 hc        1 0NC      0.049033
     13 HBA         1.0560   -2.2670    0.7150 hc        1 0NC      0.049033
     14 HBB         2.7280   -1.6850    0.3280 hc        1 0NC      0.049033
     15 H1         -2.7160    0.3640    0.9430 h1        1 0NC      0.045367
     16 H1A        -3.1380    0.6940   -0.8030 h1        1 0NC      0.045367
     17 H1B        -3.3550   -0.9840   -0.1180 h1        1 0NC      0.045367
@<TRIPOS>BOND
     1    1    2 1   
     2    1    6 1   
     3    1   10 1   
     4    2    3 1   
     5    2    5 1   
     6    2   11 1   
     7    3    4 2   
     8    3    7 1   
     9    5   12 1   
    10    5   13 1   
    11    5   14 1   
    12    7    8 1   
    13    7    9 1   
    14    8   15 1   
    15    8   16 1   
    16    8   17 1   
@<TRIPOS>SUBSTRUCTURE
     1 0NC         1 TEMP              0 ****  ****    0 ROOT
