@<TRIPOS>MOLECULE
0NF
   69    71     1     0     0
SMALL
bcc


@<TRIPOS>ATOM
      1 C4          2.1750    2.3660   -0.8600 c2        1 0NF     -0.247000
      2 C5          3.3210    1.6420   -0.6630 c2        1 0NF      0.145000
      3 C6          4.6470    2.1150   -1.1230 c3        1 0NF     -0.239000
      4 C8         -0.0670    4.1210   -1.1210 c2        1 0NF      0.307000
      5 C10         0.8330    1.8590   -0.4820 c3        1 0NF     -0.115000
      6 C13         7.4050   -3.5910   -2.7700 c2        1 0NF     -0.187000
      7 C15         7.3210   -1.7510   -1.1110 c2        1 0NF     -0.034000
      8 C17         5.4330   -0.8160    0.1370 c1        1 0NF     -0.045000
      9 C20         7.7530    1.5160   -2.7690 c3        1 0NF     -0.170000
     10 C21         7.1810   -1.9460    1.3460 c2        1 0NF     -0.140000
     11 C22         8.2240    2.9380   -2.5230 c2        1 0NF      0.307000
     12 C26         8.7950    5.8310   -2.0950 c2        1 0NF     -0.061000
     13 C28         7.8870    8.1420   -2.3760 c2        1 0NF      0.038000
     14 N33         5.8130    9.9090   -2.8660 n3        1 0NF     -0.372000
     15 C38         4.3640    8.1720   -1.8220 c3        1 0NF     -0.242000
     16 C39         4.8440    8.0980   -4.2670 c3        1 0NF     -0.242000
     17 C29         6.6430    7.6130   -2.6270 c2        1 0NF     -0.125000
     18 C30         6.4660    6.2140   -2.6310 c2        1 0NF      0.092000
     19 C27         9.0580    7.2720   -2.1880 c3        1 0NF     -0.195000
     20 C34         9.9720    7.7730   -1.0050 c3        1 0NF      0.459000
     21 F37        11.1390    7.0680   -0.9100 f         1 0NF     -0.134667
     22 F35        10.3400    9.0830   -1.1530 f         1 0NF     -0.134667
     23 F36         9.3810    7.6890    0.2230 f         1 0NF     -0.134667
     24 C25         7.5430    5.2970   -2.3840 c2        1 0NF      0.044000
     25 N24         7.2560    3.9370   -2.4290 n         1 0NF     -0.370000
     26 O23         9.4410    3.1960   -2.4460 o         1 0NF     -0.362000
     27 C19         7.9490    0.6560   -1.5310 c3        1 0NF     -0.129000
     28 C18         7.8750   -0.7850   -1.8650 c2        1 0NF     -0.154000
     29 C16         6.6600   -1.5070    0.1880 c2        1 0NF      0.003000
     30 C14         7.3550   -3.1560   -1.5090 c2        1 0NF     -0.143000
     31 C12         4.3930   -0.2310    0.0640 c1        1 0NF     -0.116000
     32 O11         3.2200    0.4120   -0.0210 os        1 0NF     -0.010000
     33 C1          4.6080    3.4060   -1.8520 c1        1 0NF     -0.196000
     34 N2          3.5340    4.1170   -2.0400 n2        1 0NF     -0.270000
     35 C3          2.3080    3.6570   -1.5430 c2        1 0NF      0.286000
     36 C9         -0.1440    2.9670   -0.1600 c3        1 0NF     -0.177000
     37 O31        -1.0120    4.8570   -1.4150 o         1 0NF     -0.258000
     38 N7          1.1970    4.4310   -1.7020 n         1 0NF     -0.279000
     39 H6          5.1090    1.3340   -1.7970 hc        1 0NF      0.171500
     40 H10         0.4330    1.2370   -1.3320 hc        1 0NF      0.123500
     41 H10A        0.9170    1.1760    0.4080 hc        1 0NF      0.123500
     42 H13         7.4290   -4.6630   -3.0100 ha        1 0NF      0.120500
     43 H17         7.4190   -2.9210   -3.6390 ha        1 0NF      0.120500
     44 H20         8.1330   -2.4950    1.3760 ha        1 0NF      0.136500
     45 H21         8.3870    1.1200   -3.6100 hc        1 0NF      0.117000
     46 H21A        6.6890   -1.7870    2.3140 ha        1 0NF      0.136500
     47 H26         9.6600    5.1890   -1.8190 ha        1 0NF      0.227000
     48 H28         9.6970    7.4080   -3.1370 hc        1 0NF      0.240000
     49 HN33        8.0720    9.2350   -2.3340 ha        1 0NF      0.212000
     50 HN3A        5.5950   10.3700   -3.7250 hn        1 0NF      0.176000
     51 H38         3.4500    8.7930   -1.9870 hc        1 0NF      0.096500
     52 H38A        4.7590    8.3800   -0.7990 hc        1 0NF      0.096500
     53 H38B        4.0690    7.0970   -1.8810 hc        1 0NF      0.096500
     54 H39         4.5370    7.0260   -4.2620 hc        1 0NF      0.096500
     55 H39A        5.5980    8.2530   -5.0760 hc        1 0NF      0.096500
     56 H39B        3.9410    8.7150   -4.4960 hc        1 0NF      0.096500
     57 H30         5.4500    5.7960   -2.8110 ha        1 0NF      0.212000
     58 HN24        6.2270    3.6830   -2.3400 hn        1 0NF      0.333000
     59 H19         6.6860    1.4800   -3.1070 hc        1 0NF      0.117000
     60 H19A        8.9670    0.8680   -1.0940 hc        1 0NF      0.103000
     61 H18         7.1870    0.9290   -0.7530 hc        1 0NF      0.103000
     62 H18A        8.3700   -1.0630   -2.8140 ha        1 0NF      0.138000
     63 H14         7.3240   -3.8730   -0.6680 ha        1 0NF      0.135000
     64 H1          5.3390    2.2280   -0.2370 hc        1 0NF      0.171500
     65 H9          0.0490    3.3780    0.8690 hc        1 0NF      0.143500
     66 H9A        -1.1950    2.5690   -0.1740 hc        1 0NF      0.143500
     67 HN7         1.2530    5.2730   -2.2470 hn        1 0NF      0.270000
     68 H333        5.3910   10.3920   -2.0990 hn        1 0NF      0.176000
     69 C32         5.4190    8.5010   -2.8950 c3        1 0NF      0.071000
@<TRIPOS>BOND
     1    1    2 1   
     2    1    5 1   
     3    1   35 1   
     4    2    3 1   
     5    2   32 1   
     6    3   33 1   
     7    3   39 1   
     8    3   64 1   
     9    4   36 1   
    10    4   37 1   
    11    4   38 1   
    12    5   36 1   
    13    5   40 1   
    14    5   41 1   
    15    6   30 1   
    16    6   42 1   
    17    6   43 1   
    18    7   28 1   
    19    7   29 1   
    20    7   30 1   
    21    8   29 1   
    22    8   31 1   
    23    9   11 1   
    24    9   27 1   
    25    9   45 1   
    26    9   59 1   
    27   10   29 1   
    28   10   44 1   
    29   10   46 1   
    30   11   25 1   
    31   11   26 1   
    32   12   19 1   
    33   12   24 1   
    34   12   47 1   
    35   13   17 1   
    36   13   19 1   
    37   13   49 1   
    38   14   50 1   
    39   14   68 1   
    40   14   69 1   
    41   15   51 1   
    42   15   52 1   
    43   15   53 1   
    44   15   69 1   
    45   16   54 1   
    46   16   55 1   
    47   16   56 1   
    48   16   69 1   
    49   17   18 1   
    50   17   69 1   
    51   18   24 1   
    52   18   57 1   
    53   19   20 1   
    54   19   48 1   
    55   20   21 1   
    56   20   22 1   
    57   20   23 1   
    58   24   25 1   
    59   25   58 1   
    60   27   28 1   
    61   27   60 1   
    62   27   61 1   
    63   28   62 1   
    64   30   63 1   
    65   31   32 1   
    66   33   34 1   
    67   34   35 1   
    68   35   38 1   
    69   36   65 1   
    70   36   66 1   
    71   38   67 1   
@<TRIPOS>SUBSTRUCTURE
     1 0NF         1 TEMP              0 ****  ****    0 ROOT
