@<TRIPOS>MOLECULE
0NF
   68    72     1     0     0
SMALL
bcc


@<TRIPOS>ATOM
      1 C4          6.9790    0.5830   -0.5100 ca        1 0NF     -0.262600
      2 C5          5.8680   -0.2760   -0.5940 ca        1 0NF      0.183100
      3 C6          5.8740   -1.3590   -1.4800 ca        1 0NF     -0.339300
      4 C8          9.4080    2.0610   -0.2810 c         1 0NF      0.704500
      5 C10         6.9870    1.7710    0.3750 c3        1 0NF     -0.018100
      6 C13         4.1040   -2.1720    0.9210 ca        1 0NF     -0.147000
      7 C15         1.7270   -2.6780    0.9480 ca        1 0NF     -0.073300
      8 C17         2.4900   -0.5280    0.1180 ca        1 0NF     -0.127000
      9 C20        -0.9890   -1.8210    0.8210 c3        1 0NF     -0.132700
     10 C21         0.0540   -0.9870    0.0910 c3        1 0NF     -0.032100
     11 C22        -2.3810   -1.5130    0.2650 c         1 0NF      0.666100
     12 C26        -5.0560   -0.3960   -0.5970 ca        1 0NF     -0.116000
     13 C28        -6.5600    1.5130   -0.4880 ca        1 0NF     -0.114000
     14 N33        -6.0640    4.5020   -0.3360 n3        1 0NF     -0.897800
     15 C38        -5.0070    4.1210    1.8460 c3        1 0NF     -0.110100
     16 C39        -7.3720    3.4870    1.5590 c3        1 0NF     -0.110100
     17 C29        -5.6530    2.1970    0.3330 ca        1 0NF     -0.037300
     18 C30        -4.4450    1.5930    0.6690 ca        1 0NF     -0.148000
     19 C27        -6.2540    0.2320   -0.9360 ca        1 0NF     -0.137300
     20 C34        -7.2400   -0.5050   -1.8380 c3        1 0NF      0.687200
     21 F37        -7.3160   -1.8590   -1.6170 f         1 0NF     -0.235967
     22 F35        -8.5420   -0.0770   -1.7330 f         1 0NF     -0.235967
     23 F36        -6.9620   -0.3980   -3.1790 f         1 0NF     -0.235967
     24 C25        -4.1280    0.2860    0.2140 ca        1 0NF      0.070600
     25 N24        -2.8950   -0.2640    0.5960 n         1 0NF     -0.474100
     26 O23        -3.0010   -2.3370   -0.4280 o         1 0NF     -0.576100
     27 C19        -0.6850   -3.3010    0.6570 c3        1 0NF     -0.068400
     28 C18         0.6450   -3.6400    1.2940 c3        1 0NF     -0.038100
     29 C16         1.4450   -1.4140    0.4070 ca        1 0NF     -0.064300
     30 C14         3.0570   -3.0440    1.1980 ca        1 0NF     -0.114000
     31 C12         3.8070   -0.9130    0.3840 ca        1 0NF      0.086100
     32 O11         4.7920    0.0620    0.2110 os        1 0NF     -0.247200
     33 C1          7.0190   -1.5400   -2.2730 ca        1 0NF      0.456200
     34 N2          8.1080   -0.7600   -2.2340 nb        1 0NF     -0.722000
     35 C3          8.0950    0.2970   -1.3570 ca        1 0NF      0.563200
     36 C9          8.3810    2.1460    0.8240 c3        1 0NF     -0.147400
     37 O31        10.4280    2.7700   -0.3040 o         1 0NF     -0.615500
     38 N7          9.2230    1.1290   -1.3010 n         1 0NF     -0.548400
     39 H6          5.0170   -2.0380   -1.5600 ha        1 0NF      0.161000
     40 H10         6.5220    2.6340   -0.1800 hc        1 0NF      0.068200
     41 H10A        6.3450    1.5800    1.2780 hc        1 0NF      0.068200
     42 H13         5.1480   -2.4580    1.1160 ha        1 0NF      0.151000
     43 H17         2.2840    0.4660   -0.3040 ha        1 0NF      0.152000
     44 H20        -0.9670   -1.5700    1.9190 hc        1 0NF      0.071700
     45 H21        -0.1050   -1.0830   -1.0200 hc        1 0NF      0.061700
     46 H21A       -0.0740    0.0970    0.3550 hc        1 0NF      0.061700
     47 H26        -4.8570   -1.4170   -0.9680 ha        1 0NF      0.191000
     48 H28        -7.5160    1.9760   -0.7790 ha        1 0NF      0.148000
     49 HN33       -6.6950    4.1510   -1.0300 hn        1 0NF      0.352300
     50 HN3A       -6.3700    5.4070   -0.0380 hn        1 0NF      0.352300
     51 H38        -5.3510    5.1040    2.2510 hc        1 0NF      0.043033
     52 H38A       -4.9290    3.3990    2.6930 hc        1 0NF      0.043033
     53 H38B       -4.0010    4.2650    1.3850 hc        1 0NF      0.043033
     54 H39        -8.1910    3.1740    0.8700 hc        1 0NF      0.043033
     55 H39A       -7.2900    2.7350    2.3780 hc        1 0NF      0.043033
     56 H39B       -7.6420    4.4730    2.0060 hc        1 0NF      0.043033
     57 H30        -3.7160    2.1350    1.2920 ha        1 0NF      0.140000
     58 HN24       -2.3150    0.3280    1.1490 hn        1 0NF      0.317500
     59 H19        -1.5000   -3.9090    1.1300 hc        1 0NF      0.066700
     60 H19A       -0.6730   -3.5570   -0.4350 hc        1 0NF      0.066700
     61 H18         0.9470   -4.6760    0.9790 hc        1 0NF      0.057700
     62 H18A        0.5330   -3.6550    2.4130 hc        1 0NF      0.057700
     63 H14         3.2740   -4.0370    1.6210 ha        1 0NF      0.141000
     64 H1          7.0700   -2.3750   -2.9970 h4        1 0NF      0.029100
     65 H9          8.7250    1.4600    1.6450 hc        1 0NF      0.083200
     66 H9A         8.3890    3.1930    1.2270 hc        1 0NF      0.083200
     67 HN7         9.9480    1.0080   -1.9760 hn        1 0NF      0.346500
     68 C32        -6.0210    3.5940    0.8160 c3        1 0NF      0.223500
@<TRIPOS>BOND
     1    1    2 ar  
     2    1    5 1   
     3    1   35 ar  
     4    2    3 ar  
     5    2   32 1   
     6    3   33 ar  
     7    3   39 1   
     8    4   36 1   
     9    4   37 2   
    10    4   38 1   
    11    5   36 1   
    12    5   40 1   
    13    5   41 1   
    14    6   30 ar  
    15    6   31 ar  
    16    6   42 1   
    17    7   28 1   
    18    7   29 ar  
    19    7   30 ar  
    20    8   29 ar  
    21    8   31 ar  
    22    8   43 1   
    23    9   10 1   
    24    9   11 1   
    25    9   27 1   
    26    9   44 1   
    27   10   29 1   
    28   10   45 1   
    29   10   46 1   
    30   11   25 1   
    31   11   26 2   
    32   12   19 ar  
    33   12   24 ar  
    34   12   47 1   
    35   13   17 ar  
    36   13   19 ar  
    37   13   48 1   
    38   14   49 1   
    39   14   50 1   
    40   14   68 1   
    41   15   51 1   
    42   15   52 1   
    43   15   53 1   
    44   15   68 1   
    45   16   54 1   
    46   16   55 1   
    47   16   56 1   
    48   16   68 1   
    49   17   18 ar  
    50   17   68 1   
    51   18   24 ar  
    52   18   57 1   
    53   19   20 1   
    54   20   21 1   
    55   20   22 1   
    56   20   23 1   
    57   24   25 1   
    58   25   58 1   
    59   27   28 1   
    60   27   59 1   
    61   27   60 1   
    62   28   61 1   
    63   28   62 1   
    64   30   63 1   
    65   31   32 1   
    66   33   34 ar  
    67   33   64 1   
    68   34   35 ar  
    69   35   38 1   
    70   36   65 1   
    71   36   66 1   
    72   38   67 1   
@<TRIPOS>SUBSTRUCTURE
     1 0NF         1 TEMP              0 ****  ****    0 ROOT
