@<TRIPOS>MOLECULE
0NF
   68    66     1     0     0
SMALL
bcc


@<TRIPOS>ATOM
      1 C4          0.7190    0.7620   -0.2850 c2        1 0NF     -0.092000
      2 C5          1.8010   -0.0370   -0.3230 c2        1 0NF      0.038000
      3 C6          2.0080   -1.3360    0.3750 c3        1 0NF     -0.059000
      4 C8          3.0960    3.5620   -2.4260 c2        1 0NF      0.211000
      5 C10         0.7070    3.6470   -1.9070 c1        1 0NF     -0.056000
      6 C13         5.6600   -2.0060    1.1190 c2        1 0NF     -0.197500
      7 C15         7.0380    0.0560    1.2410 c2        1 0NF     -0.005000
      8 C17         5.1310    0.6430   -0.1450 c1        1 0NF     -0.109000
      9 C20         7.6790    1.9070   -1.5390 c3        1 0NF     -0.180000
     10 C21         7.0680    2.1300   -0.1680 c3        1 0NF     -0.120000
     11 C22         8.2340    3.2070   -2.0980 c2        1 0NF      0.305000
     12 C26         9.0090    5.6710   -3.4970 c2        1 0NF     -0.044000
     13 C28         8.0120    7.8930   -4.5570 c1        1 0NF      0.207000
     14 N33         6.2680    9.9470   -4.2880 n3        1 0NF     -0.345000
     15 C38         5.6440    8.8780   -2.1530 c3        1 0NF     -0.227000
     16 C39         4.4960    8.1880   -4.2550 c3        1 0NF     -0.227000
     17 C29         6.8910    7.6110   -3.8870 c2        1 0NF     -0.362000
     18 C30         6.6320    6.3010   -3.3250 c2        1 0NF     -0.146000
     19 C27         9.4030    5.9120   -4.7530 c2        1 0NF     -0.207000
     20 C34        10.8530    6.2240   -5.0970 c3        1 0NF      0.461000
     21 F37        11.5820    5.1140   -5.4550 f         1 0NF     -0.164333
     22 F35        10.9990    7.0710   -6.1680 f         1 0NF     -0.164333
     23 F36        11.5900    6.8030   -4.0950 f         1 0NF     -0.164333
     24 C25         7.6100    5.3670   -3.1470 c2        1 0NF      0.025000
     25 N24         7.3090    4.1030   -2.6140 n         1 0NF     -0.321000
     26 O23         9.4580    3.4320   -2.1000 o         1 0NF     -0.351000
     27 C19         8.7620    0.3430    2.9970 c2        1 0NF     -0.197500
     28 C18         8.3910    0.3490    1.7160 c2        1 0NF     -0.139000
     29 C16         6.4280    0.8760    0.3450 c2        1 0NF      0.000000
     30 C14         6.4240   -1.1450    1.7940 c2        1 0NF     -0.139000
     31 C12         4.0280    0.5040   -0.5880 c1        1 0NF     -0.081000
     32 O11         2.8420    0.3910   -1.1840 os        1 0NF     -0.065000
     33 C1          1.7080   -2.4660   -0.4780 c1        1 0NF     -0.145000
     34 N2          1.4710   -3.3820   -1.1530 n1        1 0NF     -0.019000
     35 C3         -0.4650    0.4220    0.4120 c1        1 0NF     -0.110000
     36 C9          1.7640    4.1940   -2.7290 c3        1 0NF     -0.323000
     37 O31         4.1500    4.1960   -2.5020 o         1 0NF     -0.320000
     38 N7         -1.4530    0.1790    0.9780 n1        1 0NF     -0.020000
     39 H6          1.3470   -1.3800    1.2880 hc        1 0NF      0.142500
     40 H10         0.7060    1.7420   -0.8270 ha        1 0NF      0.224000
     41 H10A       -0.2340    4.2170   -1.8850 ha        1 0NF      0.062000
     42 H13         5.2480   -2.9070    1.5930 ha        1 0NF      0.119500
     43 H17         5.4160   -1.8820    0.0550 ha        1 0NF      0.119500
     44 H20         6.2910    2.9400   -0.2220 hc        1 0NF      0.104500
     45 H21         6.9190    1.4710   -2.2380 hc        1 0NF      0.118000
     46 H21A        7.8620    2.4810    0.5440 hc        1 0NF      0.104500
     47 H26         9.7230    5.6870   -2.6500 ha        1 0NF      0.180000
     48 H28         8.7510    5.8470   -5.6390 ha        1 0NF      0.171000
     49 HN33        6.1890    9.8870   -5.2840 hn        1 0NF      0.151000
     50 HN3A        5.7110   10.7070   -3.9530 hn        1 0NF      0.151000
     51 H38         6.5830    9.2590   -1.6860 hc        1 0NF      0.081333
     52 H38A        5.3850    7.8990   -1.6850 hc        1 0NF      0.081333
     53 H38B        4.8180    9.6010   -1.9520 hc        1 0NF      0.081333
     54 H39         4.1160    7.3160   -3.6740 hc        1 0NF      0.081333
     55 H39A        4.6270    7.8780   -5.3180 hc        1 0NF      0.081333
     56 H39B        3.7270    8.9980   -4.2060 hc        1 0NF      0.081333
     57 H30         5.5890    6.0800   -3.0350 ha        1 0NF      0.152000
     58 HN24        6.3380    3.9010   -2.4920 hn        1 0NF      0.253000
     59 H19         8.5320    1.1820   -1.4630 hc        1 0NF      0.118000
     60 H19A        8.0720    0.1290    3.8230 ha        1 0NF      0.119500
     61 H18         9.7940    0.5650    3.3000 ha        1 0NF      0.119500
     62 H18A        9.1190    0.5810    0.9160 ha        1 0NF      0.135000
     63 H14         6.6690   -1.3300    2.8570 ha        1 0NF      0.135000
     64 H1          3.0830   -1.4160    0.7200 hc        1 0NF      0.142500
     65 H9          1.8480    5.3170   -2.6850 hc        1 0NF      0.154000
     66 H9A         1.5030    3.9380   -3.8050 hc        1 0NF      0.154000
     67 HN7         3.0590    2.4900   -2.1260 h4        1 0NF      0.136000
     68 C32         5.8310    8.6890   -3.6690 c3        1 0NF      0.101000
@<TRIPOS>BOND
     1    1    2 1   
     2    1   35 1   
     3    1   40 1   
     4    2    3 1   
     5    2   32 1   
     6    3   33 1   
     7    3   39 1   
     8    3   64 1   
     9    4   36 1   
    10    4   37 1   
    11    4   67 1   
    12    5   36 1   
    13    5   41 1   
    14    6   30 1   
    15    6   42 1   
    16    6   43 1   
    17    7   28 1   
    18    7   29 1   
    19    7   30 1   
    20    8   29 1   
    21    8   31 1   
    22    9   10 1   
    23    9   11 1   
    24    9   45 1   
    25    9   59 1   
    26   10   29 1   
    27   10   44 1   
    28   10   46 1   
    29   11   25 1   
    30   11   26 1   
    31   12   19 1   
    32   12   24 1   
    33   12   47 1   
    34   13   17 1   
    35   14   49 1   
    36   14   50 1   
    37   14   68 1   
    38   15   51 1   
    39   15   52 1   
    40   15   53 1   
    41   15   68 1   
    42   16   54 1   
    43   16   55 1   
    44   16   56 1   
    45   16   68 1   
    46   17   18 1   
    47   17   68 1   
    48   18   24 1   
    49   18   57 1   
    50   19   20 1   
    51   19   48 1   
    52   20   21 1   
    53   20   22 1   
    54   20   23 1   
    55   24   25 1   
    56   25   58 1   
    57   27   28 1   
    58   27   60 1   
    59   27   61 1   
    60   28   62 1   
    61   30   63 1   
    62   31   32 1   
    63   33   34 1   
    64   35   38 1   
    65   36   65 1   
    66   36   66 1   
@<TRIPOS>SUBSTRUCTURE
     1 0NF         1 TEMP              0 ****  ****    0 ROOT
