@<TRIPOS>MOLECULE
0NF
   69    70     1     0     0
SMALL
bcc


@<TRIPOS>ATOM
      1 C4          1.9740    2.5400   -1.4060 c2        1 0NF     -0.351000
      2 C5          3.2350    2.0330   -1.3150 c2        1 0NF      0.141000
      3 C6          4.4460    2.8500   -1.5670 c3        1 0NF     -0.245000
      4 C8         -0.6760    4.0180   -1.4820 c2        1 0NF      0.327000
      5 C10        -0.3920    1.8130   -0.4030 c1        1 0NF     -0.052000
      6 C13         5.6490   -3.0670   -1.1630 c2        1 0NF     -0.166500
      7 C15         7.6290   -1.6650   -0.6400 c2        1 0NF      0.050000
      8 C17         5.7830   -0.0890   -0.8890 c1        1 0NF     -0.053000
      9 C20         8.1780    1.2580   -2.3620 c3        1 0NF     -0.180000
     10 C21         8.0420    0.7970   -0.9210 c3        1 0NF     -0.112000
     11 C22         8.6310    2.7040   -2.4520 c2        1 0NF      0.315000
     12 C26         9.0240    5.6760   -2.4740 c2        1 0NF     -0.067000
     13 C28         7.8810    7.8860   -2.6440 c2        1 0NF      0.041000
     14 N33         5.6590    9.5000   -2.7240 n8        1 0NF     -0.376000
     15 C38         4.6440    7.8180   -1.1980 c3        1 0NF     -0.241000
     16 C39         4.4830    7.5320   -3.6780 c3        1 0NF     -0.241000
     17 C29         6.6610    7.2630   -2.5280 c2        1 0NF     -0.126000
     18 C30         6.5900    5.8600   -2.3800 c2        1 0NF      0.053000
     19 C27         9.1360    7.1210   -2.7190 c3        1 0NF     -0.190000
     20 C34        10.2680    7.7700   -1.8330 c3        1 0NF      0.457000
     21 F37        11.4780    7.1560   -1.9970 f         1 0NF     -0.136000
     22 F35        10.4760    9.0870   -2.1400 f         1 0NF     -0.136000
     23 F36        10.0090    7.7370   -0.4920 f         1 0NF     -0.136000
     24 C25         7.7910    5.0590   -2.3720 c2        1 0NF      0.016000
     25 N24         7.6490    3.6760   -2.2260 ns        1 0NF     -0.340000
     26 O23         9.8000    3.0170   -2.7250 o         1 0NF     -0.327000
     27 C19         9.6740   -2.6430    0.3560 c2        1 0NF     -0.166500
     28 C18         9.0700   -1.9150   -0.5830 c2        1 0NF     -0.165000
     29 C16         7.1510   -0.4060   -0.8200 c2        1 0NF     -0.056000
     30 C14         6.7810   -2.8420   -0.4940 c2        1 0NF     -0.165000
     31 C12         4.6490    0.2890   -0.9390 c1        1 0NF     -0.118000
     32 O11         3.3700    0.6820   -1.0030 os        1 0NF     -0.007000
     33 C1          4.1520    4.2650   -1.9370 c1        1 0NF     -0.203000
     34 N2          2.9510    4.7530   -2.0300 n2        1 0NF     -0.263000
     35 C3          1.8310    3.9490   -1.7490 c2        1 0NF      0.289000
     36 C9         -0.8650    3.1690   -0.2420 c3        1 0NF     -0.260000
     37 O31        -1.6250    4.3950   -2.1720 o         1 0NF     -0.251000
     38 N7          0.6070    4.5410   -1.8260 ns        1 0NF     -0.283000
     39 H6          5.0170    2.3690   -2.4150 hc        1 0NF      0.153500
     40 H10         1.0650    1.8720   -1.3110 ha        1 0NF      0.252000
     41 H10A       -0.4550    1.1550    0.4750 ha        1 0NF      0.091000
     42 H13         5.0690   -3.9890   -1.0220 ha        1 0NF      0.125500
     43 H17         5.2340   -2.3620   -1.8970 ha        1 0NF      0.125500
     44 H20         7.6100    1.6200   -0.2880 hc        1 0NF      0.105000
     45 H21         7.2070    1.1250   -2.9090 hc        1 0NF      0.126000
     46 H21A        9.0580    0.5650   -0.5030 hc        1 0NF      0.105000
     47 H26         9.9800    5.1150   -2.4140 ha        1 0NF      0.221000
     48 H28         9.5050    7.2320   -3.8020 hc        1 0NF      0.232000
     49 HN33        7.9780    8.9890   -2.7170 ha        1 0NF      0.211000
     50 HN3A        5.2130    9.8620   -3.5420 hn        1 0NF      0.172500
     51 H38         3.6550    8.3360   -1.1910 hc        1 0NF      0.098000
     52 H38A        4.4660    6.7250   -1.0620 hc        1 0NF      0.098000
     53 H38B        5.2540    8.1930   -0.3420 hc        1 0NF      0.098000
     54 H39         3.4910    8.0450   -3.6720 hc        1 0NF      0.098000
     55 H39A        4.9690    7.7010   -4.6690 hc        1 0NF      0.098000
     56 H39B        4.3090    6.4380   -3.5450 hc        1 0NF      0.098000
     57 H30         5.5500    5.3190   -2.2340 ha        1 0NF      0.299000
     58 HN24        6.7260    3.3610   -2.0180 hn        1 0NF      0.249000
     59 H19         8.9510    0.6340   -2.8880 hc        1 0NF      0.126000
     60 H19A       10.7600   -2.8080    0.3500 ha        1 0NF      0.125500
     61 H18         9.1370   -3.1120    1.1930 ha        1 0NF      0.125500
     62 H18A        9.6500   -1.4560   -1.4050 ha        1 0NF      0.138000
     63 H14         7.1720   -3.5960    0.2140 ha        1 0NF      0.138000
     64 H1          5.1020    2.8460   -0.6500 hc        1 0NF      0.153500
     65 H9         -0.4000    3.6950    0.6420 hc        1 0NF      0.171500
     66 H9A        -1.9840    3.1320   -0.0440 hc        1 0NF      0.171500
     67 HN7         0.5660    5.4440   -2.2760 hn        1 0NF      0.273000
     68 H333        5.3960   10.0370   -1.9230 hn        1 0NF      0.172500
     69 C32         5.3590    8.0780   -2.5360 c3        1 0NF      0.074000
@<TRIPOS>BOND
     1    1    2 1   
     2    1   35 1   
     3    1   40 1   
     4    2    3 1   
     5    2   32 1   
     6    3   33 1   
     7    3   39 1   
     8    3   64 1   
     9    4   36 1   
    10    4   37 1   
    11    4   38 1   
    12    5   36 1   
    13    5   41 1   
    14    6   30 1   
    15    6   42 1   
    16    6   43 1   
    17    7   28 1   
    18    7   29 1   
    19    7   30 1   
    20    8   29 1   
    21    8   31 1   
    22    9   10 1   
    23    9   11 1   
    24    9   45 1   
    25    9   59 1   
    26   10   29 1   
    27   10   44 1   
    28   10   46 1   
    29   11   25 1   
    30   11   26 1   
    31   12   19 1   
    32   12   24 1   
    33   12   47 1   
    34   13   17 1   
    35   13   19 1   
    36   13   49 1   
    37   14   50 1   
    38   14   68 1   
    39   14   69 1   
    40   15   51 1   
    41   15   52 1   
    42   15   53 1   
    43   15   69 1   
    44   16   54 1   
    45   16   55 1   
    46   16   56 1   
    47   16   69 1   
    48   17   18 1   
    49   17   69 1   
    50   18   24 1   
    51   18   57 1   
    52   19   20 1   
    53   19   48 1   
    54   20   21 1   
    55   20   22 1   
    56   20   23 1   
    57   24   25 1   
    58   25   58 1   
    59   27   28 1   
    60   27   60 1   
    61   27   61 1   
    62   28   62 1   
    63   30   63 1   
    64   31   32 1   
    65   33   34 1   
    66   34   35 1   
    67   35   38 1   
    68   36   65 1   
    69   36   66 1   
    70   38   67 1   
@<TRIPOS>SUBSTRUCTURE
     1 0NF         1 TEMP              0 ****  ****    0 ROOT
