@<TRIPOS>MOLECULE
0NF
   68    62     1     0     0
SMALL
bcc


@<TRIPOS>ATOM
      1 C4         -6.4710   -2.4680    3.0070 c1        1 0NF     -0.190000
      2 C5         -5.2610   -1.9090    2.7920 c1        1 0NF      0.090500
      3 C6         -4.6830   -1.0840    3.7830 c1        1 0NF     -0.212000
      4 C8         -9.0440   -3.5130    3.4170 c1        1 0NF      0.312000
      5 C10        -7.0540   -3.5240    2.0520 c3        1 0NF     -0.105000
      6 C13        -2.4130   -3.2220    2.6060 c1        1 0NF     -0.212000
      7 C15        -0.3060   -2.0690    2.3880 c1        1 0NF     -0.076000
      8 C17        -2.3500   -1.0530    1.4640 c1        1 0NF     -0.126000
      9 C20         1.3000   -0.4400    0.4800 c3        1 0NF     -0.120000
     10 C21        -0.1110   -0.0330    0.7450 c3        1 0NF     -0.119000
     11 C22         2.1390    0.8070   -0.1010 c2        1 0NF      0.311000
     12 C26         3.0130    3.0470   -1.7390 c1        1 0NF     -0.112000
     13 C28         4.4470    3.9290   -3.4530 c1        1 0NF     -0.112000
     14 N33         6.4280    0.9980   -4.7950 n3        1 0NF     -0.336000
     15 C32         6.1000    2.4610   -4.7100 c3        1 0NF      0.055000
     16 C38         7.3510    3.2440   -4.3650 c3        1 0NF     -0.227000
     17 C39         5.5480    2.9550   -6.0920 c3        1 0NF     -0.227000
     18 C29         5.0360    2.6790   -3.6130 c1        1 0NF     -0.045000
     19 C30         4.6150    1.6070   -2.8360 c1        1 0NF     -0.137000
     20 C27         3.4320    4.1090   -2.5100 c1        1 0NF     -0.138000
     21 C34         2.6940    5.3990   -2.4560 c3        1 0NF      0.466000
     22 F37         2.3320    5.6640   -1.1680 f         1 0NF     -0.165333
     23 F35         3.4680    6.3650   -2.9020 f         1 0NF     -0.165333
     24 F36         1.5980    5.3170   -3.2220 f         1 0NF     -0.165333
     25 C25         3.6060    1.7840   -1.8990 c1        1 0NF      0.071000
     26 N24         3.0020    0.6220   -1.2540 n         1 0NF     -0.326000
     27 O23         1.9260    1.9280    0.3210 o         1 0NF     -0.341000
     28 C19         1.9640   -1.0490    1.6770 c3        1 0NF     -0.154000
     29 C18         1.2910   -2.1450    2.3110 c2        1 0NF     -0.120000
     30 C16        -0.9820   -0.9850    1.6850 c2        1 0NF     -0.049000
     31 C14        -1.0280   -3.1570    2.8320 c1        1 0NF     -0.113000
     32 C12        -3.0780   -2.1590    1.9160 c1        1 0NF      0.090500
     33 O11        -4.5040   -2.2620    1.6230 os        1 0NF     -0.156000
     34 C1         -5.3750   -0.8440    5.0070 c1        1 0NF     -0.009000
     35 N2         -6.6270   -1.4220    5.2280 n1        1 0NF     -0.197000
     36 C3         -7.1860   -2.2140    4.2820 c1        1 0NF      0.154000
     37 C9         -8.1530   -4.2930    2.5380 c2        1 0NF     -0.176000
     38 O31       -10.2760   -3.6960    3.3740 o         1 0NF     -0.341000
     39 N7         -8.4860   -2.8500    4.4810 n3        1 0NF     -0.315000
     40 H6         -3.8530   -0.6990    3.6390 ha        1 0NF      0.155500
     41 H10        -7.3580   -3.0420    1.1950 hc        1 0NF      0.108000
     42 H10A       -6.3090   -4.1670    1.8050 hc        1 0NF      0.108000
     43 H13        -2.9270   -4.0000    2.9250 ha        1 0NF      0.155500
     44 H17        -2.8110   -0.3180    0.9890 ha        1 0NF      0.155000
     45 H20         1.3440   -1.0550   -0.2700 hc        1 0NF      0.110000
     46 H21        -0.0930    0.8790    1.1670 hc        1 0NF      0.116000
     47 H21A       -0.5640    0.0400   -0.1040 hc        1 0NF      0.116000
     48 H26         2.2940    3.1750   -1.0690 ha        1 0NF      0.191000
     49 H28         4.7460    4.6830   -4.0010 ha        1 0NF      0.154000
     50 HN33        7.2810    0.8920   -5.0830 hn        1 0NF      0.147500
     51 HN3A        5.8720    0.6040   -5.3660 hn        1 0NF      0.147500
     52 H38         7.2590    4.1790   -4.7030 hc        1 0NF      0.083000
     53 H38A        7.4730    3.2610   -3.3730 hc        1 0NF      0.083000
     54 H38B        8.1640    2.8030   -4.8050 hc        1 0NF      0.083000
     55 H39         5.3100    3.8850   -6.0280 hc        1 0NF      0.083000
     56 H39A        4.7860    2.4510   -6.3270 hc        1 0NF      0.083000
     57 H39B        6.2190    2.8460   -6.7570 hc        1 0NF      0.083000
     58 H30         5.0320    0.7220   -2.9510 ha        1 0NF      0.152000
     59 HN24        3.2290   -0.2390   -1.5330 hn        1 0NF      0.233000
     60 H19         2.8380   -1.3680    1.3950 hc        1 0NF      0.095000
     61 H19A        2.0560   -0.3510    2.3360 hc        1 0NF      0.095000
     62 H18         1.6320   -2.2040    3.2450 ha        1 0NF      0.095000
     63 H18A        1.5170   -2.9430    1.8170 ha        1 0NF      0.095000
     64 H14        -0.5550   -3.9150    3.3240 ha        1 0NF      0.138000
     65 H1         -4.9630   -0.2610    5.7060 ha        1 0NF      0.165000
     66 H9         -7.8910   -5.1100    2.9760 ha        1 0NF      0.122000
     67 H9A        -8.6430   -4.6470    1.7790 ha        1 0NF      0.122000
     68 HN7        -8.9870   -2.6260    5.1760 hn        1 0NF      0.260000
@<TRIPOS>BOND
     1    1    5 1   
     2    1   36 1   
     3    2    3 1   
     4    2   33 1   
     5    3   40 1   
     6    4   38 1   
     7    4   39 1   
     8    5   37 1   
     9    5   41 1   
    10    5   42 1   
    11    6   32 1   
    12    6   43 1   
    13    7   30 1   
    14    7   31 1   
    15    8   30 1   
    16    8   44 1   
    17    9   10 1   
    18    9   11 1   
    19    9   28 1   
    20    9   45 1   
    21   10   30 1   
    22   10   46 1   
    23   10   47 1   
    24   11   26 1   
    25   11   27 1   
    26   12   25 1   
    27   12   48 1   
    28   13   20 1   
    29   13   49 1   
    30   14   15 1   
    31   14   50 1   
    32   14   51 1   
    33   15   16 1   
    34   15   17 1   
    35   15   18 1   
    36   16   52 1   
    37   16   53 1   
    38   16   54 1   
    39   17   55 1   
    40   17   56 1   
    41   17   57 1   
    42   18   19 1   
    43   19   58 1   
    44   20   21 1   
    45   21   22 1   
    46   21   23 1   
    47   21   24 1   
    48   25   26 1   
    49   26   59 1   
    50   28   29 1   
    51   28   60 1   
    52   28   61 1   
    53   29   62 1   
    54   29   63 1   
    55   31   64 1   
    56   32   33 1   
    57   34   35 1   
    58   34   65 1   
    59   36   39 1   
    60   37   66 1   
    61   37   67 1   
    62   39   68 1   
@<TRIPOS>SUBSTRUCTURE
     1 0NF         1 TEMP              0 ****  ****    0 ROOT
