@<TRIPOS>MOLECULE
0NH
   42    45     1     0     0
SMALL
bcc


@<TRIPOS>ATOM
      1 C1          1.3590    0.0770    0.1000 c3        1 0NH     -0.117100
      2 C2         -0.1730   -0.0770   -0.0060 c3        1 0NH      0.084700
      3 C3         -0.7710   -0.0250    1.4210 c3        1 0NH     -0.108900
      4 C4         -2.2830    0.1870    1.4190 c3        1 0NH      0.219800
      5 N5         -2.7010    1.3400    0.6630 n3        1 0NH     -0.819500
      6 C6         -2.1930    1.3730   -0.6830 c3        1 0NH      0.219800
      7 C7         -0.6800    1.1710   -0.7710 c3        1 0NH     -0.108900
      8 S8         -3.6140    2.5270    1.2940 s6        1 0NH      1.461900
      9 O9         -4.2480    3.2500    0.2620 o         1 0NH     -0.647800
     10 O10        -4.4300    2.0220    2.3260 o         1 0NH     -0.647800
     11 C11        -2.4650    3.5640    2.0130 c3        1 0NH     -0.363300
     12 N12        -0.5140   -1.3240   -0.6810 na        1 0NH     -0.151300
     13 C13        -1.1610   -1.4520   -1.9360 cc        1 0NH      0.391700
     14 N14        -1.3140   -2.7230   -2.3310 nd        1 0NH     -0.539100
     15 C15        -0.7350   -3.4980   -1.3150 ca        1 0NH     -0.088900
     16 C16        -0.2110   -2.6290   -0.2730 ca        1 0NH     -0.001200
     17 C17         0.4370   -3.2230    0.8210 ca        1 0NH     -0.191100
     18 C18         1.1140   -2.8090    2.0190 cc        1 0NH     -0.189200
     19 C19         1.5400   -3.9630    2.6780 cd        1 0NH     -0.115100
     20 N20         1.1690   -5.0940    1.9560 na        1 0NH     -0.270100
     21 C22         0.4910   -4.6810    0.8010 ca        1 0NH      0.420800
     22 N23        -0.0200   -5.5090   -0.1750 nb        1 0NH     -0.683000
     23 C24        -0.6120   -4.9110   -1.2000 ca        1 0NH      0.485200
     24 H1          1.8040    0.2190   -0.9140 hc        1 0NH      0.053367
     25 H1A         1.6000    0.9680    0.7260 hc        1 0NH      0.053367
     26 H1B         1.8210   -0.8260    0.5670 hc        1 0NH      0.053367
     27 H3         -0.2660    0.8100    1.9730 hc        1 0NH      0.063950
     28 H3A        -0.5610   -0.9800    1.9700 hc        1 0NH      0.063950
     29 H4         -2.7800   -0.7330    0.9910 h1        1 0NH      0.065700
     30 H4A        -2.6400    0.3020    2.4840 h1        1 0NH      0.065700
     31 H6         -2.4560    2.3670   -1.1500 h1        1 0NH      0.065700
     32 H6A        -2.7120    0.5690   -1.2830 h1        1 0NH      0.065700
     33 H7         -0.3810    1.1270   -1.8490 hc        1 0NH      0.063950
     34 H7A        -0.1630    2.0600   -0.3200 hc        1 0NH      0.063950
     35 H11        -1.7760    4.0400    1.2750 h1        1 0NH      0.111033
     36 H11A       -2.9840    4.4030    2.5430 h1        1 0NH      0.111033
     37 H11B       -1.8270    3.0610    2.7780 h1        1 0NH      0.111033
     38 H13        -1.4950   -0.5840   -2.5150 h5        1 0NH      0.070800
     39 H18         1.2820   -1.7920    2.3600 ha        1 0NH      0.153000
     40 H19         2.0860   -4.0600    3.6180 h4        1 0NH      0.170000
     41 HN20        1.3500   -6.0320    2.2020 hn        1 0NH      0.311700
     42 H24        -1.0190   -5.5700   -1.9880 h4        1 0NH      0.040100
@<TRIPOS>BOND
     1    1    2 1   
     2    1   24 1   
     3    1   25 1   
     4    1   26 1   
     5    2    3 1   
     6    2    7 1   
     7    2   12 1   
     8    3    4 1   
     9    3   27 1   
    10    3   28 1   
    11    4    5 1   
    12    4   29 1   
    13    4   30 1   
    14    5    6 1   
    15    5    8 1   
    16    6    7 1   
    17    6   31 1   
    18    6   32 1   
    19    7   33 1   
    20    7   34 1   
    21    8    9 2   
    22    8   10 2   
    23    8   11 1   
    24   11   35 1   
    25   11   36 1   
    26   11   37 1   
    27   12   13 1   
    28   12   16 1   
    29   13   14 2   
    30   13   38 1   
    31   14   15 1   
    32   15   16 ar  
    33   15   23 ar  
    34   16   17 ar  
    35   17   18 1   
    36   17   21 ar  
    37   18   19 2   
    38   18   39 1   
    39   19   20 1   
    40   19   40 1   
    41   20   21 1   
    42   20   41 1   
    43   21   22 ar  
    44   22   23 ar  
    45   23   42 1   
@<TRIPOS>SUBSTRUCTURE
     1 0NH         1 TEMP              0 ****  ****    0 ROOT
