@<TRIPOS>MOLECULE
0NH
   42    45     1     0     0
SMALL
bcc


@<TRIPOS>ATOM
      1 C1          0.4800    0.5030   -2.6510 c3        1 0NH     -0.117100
      2 C2         -0.1330   -0.0650   -1.3540 c3        1 0NH      0.084700
      3 C3         -0.5790    1.1210   -0.4640 c3        1 0NH     -0.108900
      4 C4         -1.5070    0.6890    0.6700 c3        1 0NH      0.219800
      5 N5         -2.6550   -0.0550    0.2210 n3        1 0NH     -0.819500
      6 C6         -2.3330   -1.1820   -0.6130 c3        1 0NH      0.219800
      7 C7         -1.4080   -0.8350   -1.7790 c3        1 0NH     -0.108900
      8 S8         -4.1810    0.3770    0.5750 s6        1 0NH      1.461900
      9 O9         -5.0430   -0.7300    0.4320 o         1 0NH     -0.647800
     10 O10        -4.2230    1.0760    1.7980 o         1 0NH     -0.647800
     11 C11        -4.5700    1.4890   -0.6600 c3        1 0NH     -0.363300
     12 N12         0.8310   -0.9140   -0.6650 na        1 0NH     -0.151300
     13 C13         0.7190   -2.3110   -0.4470 cc        1 0NH      0.391700
     14 N14         1.7750   -2.8410    0.1830 nd        1 0NH     -0.539100
     15 C15         2.6560   -1.7690    0.3930 ca        1 0NH     -0.088900
     16 C16         2.0820   -0.5490   -0.1510 ca        1 0NH     -0.001200
     17 C17         2.8340    0.6320   -0.0630 ca        1 0NH     -0.191100
     18 C18         2.7190    2.0090   -0.4630 cc        1 0NH     -0.189200
     19 C19         3.8800    2.6620   -0.0480 cd        1 0NH     -0.115100
     20 N20         4.7330    1.7690    0.5950 na        1 0NH     -0.270100
     21 C22         4.1270    0.5040    0.6020 ca        1 0NH      0.420800
     22 N23         4.6660   -0.6460    1.1340 nb        1 0NH     -0.683000
     23 C24         3.9330   -1.7450    1.0190 ca        1 0NH      0.485200
     24 H1          1.4560    1.0070   -2.4480 hc        1 0NH      0.053367
     25 H1A         0.6520   -0.3180   -3.3880 hc        1 0NH      0.053367
     26 H1B        -0.2210    1.2460   -3.0990 hc        1 0NH      0.053367
     27 H3          0.3110    1.6230   -0.0030 hc        1 0NH      0.063950
     28 H3A        -1.0960    1.8660   -1.1210 hc        1 0NH      0.063950
     29 H4         -0.9210    0.0560    1.4000 h1        1 0NH      0.065700
     30 H4A        -1.8620    1.6070    1.2240 h1        1 0NH      0.065700
     31 H6         -1.8470   -1.9750    0.0270 h1        1 0NH      0.065700
     32 H6A        -3.2900   -1.6190   -1.0250 h1        1 0NH      0.065700
     33 H7         -1.9570   -0.1770   -2.5040 hc        1 0NH      0.063950
     34 H7A        -1.1410   -1.7760   -2.3250 hc        1 0NH      0.063950
     35 H11        -4.5870    1.0310   -1.6780 h1        1 0NH      0.111033
     36 H11A       -5.5930    1.9110   -0.4890 h1        1 0NH      0.111033
     37 H11B       -3.8780    2.3640   -0.7070 h1        1 0NH      0.111033
     38 H13        -0.1550   -2.8860   -0.7720 h5        1 0NH      0.070800
     39 H18         1.8940    2.4700   -0.9970 ha        1 0NH      0.153000
     40 H19         4.1630    3.7100   -0.1670 h4        1 0NH      0.170000
     41 HN20        5.6170    1.9760    0.9800 hn        1 0NH      0.311700
     42 H24         4.3640   -2.6720    1.4400 h4        1 0NH      0.040100
@<TRIPOS>BOND
     1    1    2 1   
     2    1   24 1   
     3    1   25 1   
     4    1   26 1   
     5    2    3 1   
     6    2    7 1   
     7    2   12 1   
     8    3    4 1   
     9    3   27 1   
    10    3   28 1   
    11    4    5 1   
    12    4   29 1   
    13    4   30 1   
    14    5    6 1   
    15    5    8 1   
    16    6    7 1   
    17    6   31 1   
    18    6   32 1   
    19    7   33 1   
    20    7   34 1   
    21    8    9 2   
    22    8   10 2   
    23    8   11 1   
    24   11   35 1   
    25   11   36 1   
    26   11   37 1   
    27   12   13 1   
    28   12   16 1   
    29   13   14 2   
    30   13   38 1   
    31   14   15 1   
    32   15   16 ar  
    33   15   23 ar  
    34   16   17 ar  
    35   17   18 1   
    36   17   21 ar  
    37   18   19 2   
    38   18   39 1   
    39   19   20 1   
    40   19   40 1   
    41   20   21 1   
    42   20   41 1   
    43   21   22 ar  
    44   22   23 ar  
    45   23   42 1   
@<TRIPOS>SUBSTRUCTURE
     1 0NH         1 TEMP              0 ****  ****    0 ROOT
