@<TRIPOS>MOLECULE
0NH
   42    45     1     0     0
SMALL
bcc


@<TRIPOS>ATOM
      1 C1          1.3600    0.0780    0.1070 c3        1 0NH     -0.117100
      2 C2         -0.1720   -0.0760   -0.0040 c3        1 0NH      0.084700
      3 C3         -0.7740   -0.0250    1.4220 c3        1 0NH     -0.108900
      4 C4         -2.2870    0.1860    1.4150 c3        1 0NH      0.219800
      5 N5         -2.7030    1.3390    0.6580 n3        1 0NH     -0.819500
      6 C6         -2.1910    1.3720   -0.6870 c3        1 0NH      0.219800
      7 C7         -0.6780    1.1720   -0.7700 c3        1 0NH     -0.108900
      8 S8         -3.6180    2.5250    1.2860 s6        1 0NH      1.461900
      9 O9         -4.2500    3.2470    0.2530 o         1 0NH     -0.647800
     10 O10        -4.4360    2.0200    2.3170 o         1 0NH     -0.647800
     11 C11        -2.4720    3.5630    2.0080 c3        1 0NH     -0.363300
     12 N12        -0.5100   -1.3230   -0.6800 na        1 0NH     -0.151300
     13 C13        -1.1530   -1.4520   -1.9370 cc        1 0NH      0.391700
     14 N14        -1.3040   -2.7230   -2.3330 nd        1 0NH     -0.539100
     15 C15        -0.7280   -3.4980   -1.3150 ca        1 0NH     -0.088900
     16 C16        -0.2080   -2.6280   -0.2710 ca        1 0NH     -0.001200
     17 C17         0.4380   -3.2230    0.8240 ca        1 0NH     -0.191100
     18 C18         1.1110   -2.8080    2.0250 cc        1 0NH     -0.189200
     19 C19         1.5350   -3.9620    2.6840 cd        1 0NH     -0.115100
     20 N20         1.1670   -5.0940    1.9610 na        1 0NH     -0.270100
     21 C22         0.4920   -4.6810    0.8040 ca        1 0NH      0.420800
     22 N23        -0.0150   -5.5080   -0.1740 nb        1 0NH     -0.683000
     23 C24        -0.6040   -4.9110   -1.2000 ca        1 0NH      0.485200
     24 H1          1.8070    0.2210   -0.9060 hc        1 0NH      0.053367
     25 H1A         1.8210   -0.8250    0.5750 hc        1 0NH      0.053367
     26 H1B         1.5990    0.9700    0.7330 hc        1 0NH      0.053367
     27 H3         -0.2710    0.8100    1.9750 hc        1 0NH      0.063950
     28 H3A        -0.5660   -0.9800    1.9710 hc        1 0NH      0.063950
     29 H4         -2.6470    0.3000    2.4790 h1        1 0NH      0.065700
     30 H4A        -2.7810   -0.7340    0.9850 h1        1 0NH      0.065700
     31 H6         -2.7080    0.5680   -1.2880 h1        1 0NH      0.065700
     32 H6A        -2.4530    2.3660   -1.1550 h1        1 0NH      0.065700
     33 H7         -0.1620    2.0600   -0.3170 hc        1 0NH      0.063950
     34 H7A        -0.3750    1.1270   -1.8470 hc        1 0NH      0.063950
     35 H11        -1.7810    4.0380    1.2710 h1        1 0NH      0.111033
     36 H11A       -2.9930    4.4030    2.5350 h1        1 0NH      0.111033
     37 H11B       -1.8360    3.0610    2.7760 h1        1 0NH      0.111033
     38 H13        -1.4860   -0.5840   -2.5170 h5        1 0NH      0.070800
     39 H18         1.2780   -1.7910    2.3660 ha        1 0NH      0.153000
     40 H19         2.0790   -4.0590    3.6260 h4        1 0NH      0.170000
     41 HN20        1.3480   -6.0320    2.2070 hn        1 0NH      0.311700
     42 H24        -1.0090   -5.5700   -1.9900 h4        1 0NH      0.040100
@<TRIPOS>BOND
     1    1    2 1   
     2    1   24 1   
     3    1   25 1   
     4    1   26 1   
     5    2    3 1   
     6    2    7 1   
     7    2   12 1   
     8    3    4 1   
     9    3   27 1   
    10    3   28 1   
    11    4    5 1   
    12    4   29 1   
    13    4   30 1   
    14    5    6 1   
    15    5    8 1   
    16    6    7 1   
    17    6   31 1   
    18    6   32 1   
    19    7   33 1   
    20    7   34 1   
    21    8    9 2   
    22    8   10 2   
    23    8   11 1   
    24   11   35 1   
    25   11   36 1   
    26   11   37 1   
    27   12   13 1   
    28   12   16 1   
    29   13   14 2   
    30   13   38 1   
    31   14   15 1   
    32   15   16 ar  
    33   15   23 ar  
    34   16   17 ar  
    35   17   18 1   
    36   17   21 ar  
    37   18   19 2   
    38   18   39 1   
    39   19   20 1   
    40   19   40 1   
    41   20   21 1   
    42   20   41 1   
    43   21   22 ar  
    44   22   23 ar  
    45   23   42 1   
@<TRIPOS>SUBSTRUCTURE
     1 0NH         1 TEMP              0 ****  ****    0 ROOT
