@<TRIPOS>MOLECULE
0NH
   42    45     1     0     0
SMALL
bcc


@<TRIPOS>ATOM
      1 C1          1.3600    0.0770    0.1070 c3        1 0NH     -0.117100
      2 C2         -0.1720   -0.0760   -0.0040 c3        1 0NH      0.084700
      3 C3         -0.7730   -0.0270    1.4220 c3        1 0NH     -0.108900
      4 C4         -2.2860    0.1850    1.4170 c3        1 0NH      0.219800
      5 N5         -2.7010    1.3390    0.6620 n3        1 0NH     -0.819500
      6 C6         -2.1900    1.3750   -0.6830 c3        1 0NH      0.219800
      7 C7         -0.6770    1.1740   -0.7670 c3        1 0NH     -0.108900
      8 S8         -3.6150    2.5250    1.2930 s6        1 0NH      1.461900
      9 O9         -4.2470    3.2510    0.2610 o         1 0NH     -0.647800
     10 O10        -4.4340    2.0190    2.3220 o         1 0NH     -0.647800
     11 C11        -2.4690    3.5600    2.0180 c3        1 0NH     -0.363300
     12 N12        -0.5110   -1.3210   -0.6810 na        1 0NH     -0.151300
     13 C13        -1.1550   -1.4480   -1.9380 cc        1 0NH      0.391700
     14 N14        -1.3070   -2.7180   -2.3370 nd        1 0NH     -0.539100
     15 C15        -0.7300   -3.4940   -1.3200 ca        1 0NH     -0.088900
     16 C16        -0.2090   -2.6270   -0.2760 ca        1 0NH     -0.001200
     17 C17         0.4360   -3.2240    0.8190 ca        1 0NH     -0.191100
     18 C18         1.1110   -2.8120    2.0190 cc        1 0NH     -0.189200
     19 C19         1.5340   -3.9670    2.6770 cd        1 0NH     -0.115100
     20 N20         1.1650   -5.0970    1.9520 na        1 0NH     -0.270100
     21 C22         0.4900   -4.6820    0.7960 ca        1 0NH      0.420800
     22 N23        -0.0180   -5.5070   -0.1830 nb        1 0NH     -0.683000
     23 C24        -0.6070   -4.9070   -1.2080 ca        1 0NH      0.485200
     24 H1          1.6000    0.9680    0.7350 hc        1 0NH      0.053367
     25 H1A         1.8210   -0.8260    0.5730 hc        1 0NH      0.053367
     26 H1B         1.8070    0.2220   -0.9050 hc        1 0NH      0.053367
     27 H3         -0.5650   -0.9820    1.9700 hc        1 0NH      0.063950
     28 H3A        -0.2700    0.8070    1.9770 hc        1 0NH      0.063950
     29 H4         -2.7810   -0.7340    0.9850 h1        1 0NH      0.065700
     30 H4A        -2.6450    0.2980    2.4810 h1        1 0NH      0.065700
     31 H6         -2.7080    0.5720   -1.2850 h1        1 0NH      0.065700
     32 H6A        -2.4520    2.3700   -1.1490 h1        1 0NH      0.065700
     33 H7         -0.3750    1.1310   -1.8440 hc        1 0NH      0.063950
     34 H7A        -0.1610    2.0620   -0.3130 hc        1 0NH      0.063950
     35 H11        -2.9880    4.3980    2.5480 h1        1 0NH      0.111033
     36 H11A       -1.8320    3.0550    2.7830 h1        1 0NH      0.111033
     37 H11B       -1.7780    4.0380    1.2820 h1        1 0NH      0.111033
     38 H13        -1.4880   -0.5780   -2.5170 h5        1 0NH      0.070800
     39 H18         1.2780   -1.7950    2.3630 ha        1 0NH      0.153000
     40 H19         2.0780   -4.0660    3.6190 h4        1 0NH      0.170000
     41 HN20        1.3460   -6.0360    2.1970 hn        1 0NH      0.311700
     42 H24        -1.0130   -5.5650   -1.9990 h4        1 0NH      0.040100
@<TRIPOS>BOND
     1    1    2 1   
     2    1   24 1   
     3    1   25 1   
     4    1   26 1   
     5    2    3 1   
     6    2    7 1   
     7    2   12 1   
     8    3    4 1   
     9    3   27 1   
    10    3   28 1   
    11    4    5 1   
    12    4   29 1   
    13    4   30 1   
    14    5    6 1   
    15    5    8 1   
    16    6    7 1   
    17    6   31 1   
    18    6   32 1   
    19    7   33 1   
    20    7   34 1   
    21    8    9 2   
    22    8   10 2   
    23    8   11 1   
    24   11   35 1   
    25   11   36 1   
    26   11   37 1   
    27   12   13 1   
    28   12   16 1   
    29   13   14 2   
    30   13   38 1   
    31   14   15 1   
    32   15   16 ar  
    33   15   23 ar  
    34   16   17 ar  
    35   17   18 1   
    36   17   21 ar  
    37   18   19 2   
    38   18   39 1   
    39   19   20 1   
    40   19   40 1   
    41   20   21 1   
    42   20   41 1   
    43   21   22 ar  
    44   22   23 ar  
    45   23   42 1   
@<TRIPOS>SUBSTRUCTURE
     1 0NH         1 TEMP              0 ****  ****    0 ROOT
