@<TRIPOS>MOLECULE
0NH
   42    36     1     0     0
SMALL
bcc


@<TRIPOS>ATOM
      1 C1          2.6980    0.9300   -0.3740 c3        1 0NH     -0.235000
      2 C2          1.1970    0.7820   -0.4050 c3        1 0NH      0.104000
      3 C3          0.6910    0.7050    0.9890 c3        1 0NH     -0.187500
      4 C4         -0.8190    0.7370    1.0560 c3        1 0NH     -0.017000
      5 N5         -1.3890    1.8620    0.3130 n3        1 0NH     -0.839000
      6 C6         -0.8920    1.9440   -1.0700 c3        1 0NH     -0.017000
      7 C7          0.6200    1.9160   -1.1460 c3        1 0NH     -0.187500
      8 S8         -2.8930    2.4080    0.6770 s4        1 0NH      2.033800
      9 O9         -3.6890    2.5700   -0.5060 o         1 0NH     -0.535400
     10 O10        -3.6500    1.4160    1.3890 o         1 0NH     -0.535400
     11 C11        -2.7910    3.9240    1.5990 c2        1 0NH     -0.942000
     12 N12         0.8540   -0.4700   -1.1070 n3        1 0NH     -0.177000
     13 C13         0.3870   -0.1540   -2.3370 c1        1 0NH     -0.064000
     14 N14        -0.1450   -1.2720   -2.8820 n2        1 0NH     -0.112000
     15 C15        -0.0070   -2.2850   -1.9840 c1        1 0NH     -0.163000
     16 C16         0.6080   -1.7910   -0.8900 c1        1 0NH      0.044000
     17 C17         0.8910   -2.6370    0.1990 c1        1 0NH     -0.114000
     18 C18         1.5110   -2.4100    1.4090 c1        1 0NH     -0.201000
     19 C19         1.5410   -3.6040    2.1030 c1        1 0NH     -0.088000
     20 N20         0.9450   -4.5590    1.3270 n2        1 0NH     -0.184000
     21 C22         0.5410   -3.9620    0.1460 c1        1 0NH      0.029000
     22 N23        -0.0910   -4.4670   -0.9780 n1        1 0NH     -0.157000
     23 C24        -0.3660   -3.6470   -2.0350 c1        1 0NH      0.020000
     24 H1          2.9300    1.8400   -0.0980 hc        1 0NH      0.092667
     25 H1A         3.0620    0.7560   -1.2670 hc        1 0NH      0.092667
     26 H1B         3.0760    0.2890    0.2630 hc        1 0NH      0.092667
     27 H3          1.0070   -0.1240    1.3940 hc        1 0NH      0.103250
     28 H3A         1.0450    1.4600    1.4970 hc        1 0NH      0.103250
     29 H4         -1.1700   -0.0970    0.6840 h1        1 0NH      0.105000
     30 H4A        -1.0930    0.8050    1.9910 h1        1 0NH      0.105000
     31 H6         -1.2130    2.7750   -1.4730 h1        1 0NH      0.105000
     32 H6A        -1.2480    1.1890   -1.5780 h1        1 0NH      0.105000
     33 H7          0.8890    1.8510   -2.0830 hc        1 0NH      0.103250
     34 H7A         0.9710    2.7480   -0.7720 hc        1 0NH      0.103250
     35 H11        -2.3930    3.7460    2.4760 ha        1 0NH      0.150333
     36 H11A       -2.2340    4.5650    1.1110 ha        1 0NH      0.150333
     37 H11B       -3.6900    4.2950    1.7170 ha        1 0NH      0.150333
     38 H13         0.4700    0.7130   -2.7760 DU        1 0NH      0.196250
     39 H18         1.8660   -1.5580    1.7200 DU        1 0NH      0.196250
     40 H19         1.9380   -3.7450    2.9830 DU        1 0NH      0.196250
     41 HN20        0.8330   -5.4370    1.5500 DU        1 0NH      0.196250
     42 H24        -0.7980   -4.0070   -2.8310 ha        1 0NH      0.177000
@<TRIPOS>BOND
     1    1    2 1   
     2    1   24 1   
     3    1   25 1   
     4    1   26 1   
     5    2    3 1   
     6    2    7 1   
     7    2   12 1   
     8    3    4 1   
     9    3   27 1   
    10    3   28 1   
    11    4    5 1   
    12    4   29 1   
    13    4   30 1   
    14    5    6 1   
    15    5    8 1   
    16    6    7 1   
    17    6   31 1   
    18    6   32 1   
    19    7   33 1   
    20    7   34 1   
    21    8    9 1   
    22    8   10 1   
    23   11   35 1   
    24   11   36 1   
    25   11   37 1   
    26   12   13 1   
    27   12   16 1   
    28   13   14 1   
    29   14   15 1   
    30   15   23 1   
    31   16   17 1   
    32   18   19 1   
    33   19   20 1   
    34   20   21 1   
    35   21   22 1   
    36   23   42 1   
@<TRIPOS>SUBSTRUCTURE
     1 0NH         1 TEMP              0 ****  ****    0 ROOT
