@<TRIPOS>MOLECULE
0NJ
   28    24     1     0     0
SMALL
bcc


@<TRIPOS>ATOM
      1 F16         3.2510    1.7470    0.4260 f         1 0NJ     -0.088100
      2 C11         2.5320    2.0160    1.5230 c1        1 0NJ      0.139100
      3 C12         3.1730    2.2780    2.7250 c1        1 0NJ     -0.068250
      4 C13         2.4290    2.5340    3.8670 c1        1 0NJ     -0.068250
      5 C14         1.0450    2.5280    3.8080 c1        1 0NJ     -0.068250
      6 C15         0.4020    2.2660    2.6060 c1        1 0NJ     -0.068250
      7 C10         1.1470    2.0100    1.4630 cg        1 0NJ     -0.099200
      8 C8          0.4420    1.5890    0.1730 ce        1 0NJ      0.356100
      9 S7         -0.3330    1.5110   -1.1590 ss        1 0NJ     -0.037300
     10 C2         -0.5470    0.0180   -1.4850 c1        1 0NJ     -0.053900
     11 N9          0.6790    0.2590    0.6180 nf        1 0NJ     -0.405700
     12 C3          0.0480   -0.7460   -0.4400 ch        1 0NJ     -0.041000
     13 C4         -0.0140   -2.1320   -0.4740 c1        1 0NJ      0.022500
     14 C5         -0.6610   -2.7780   -1.5350 c1        1 0NJ     -0.143500
     15 C6         -1.2510   -2.0210   -2.5690 c1        1 0NJ      0.120600
     16 C1         -1.1890   -0.6270   -2.5370 c1        1 0NJ     -0.071500
     17 O17        -1.9250   -2.7660   -3.5630 os        1 0NJ     -0.309400
     18 C18        -3.3310   -2.7830   -3.4110 c3        1 0NJ      0.112700
     19 H1          4.1510    2.2830    2.7670 ha        1 0NJ      0.087250
     20 H2          2.8830    2.7190    4.7170 ha        1 0NJ      0.087250
     21 H3          0.5200    2.7080    4.6130 ha        1 0NJ      0.087250
     22 H4         -0.5730    2.2620    2.5650 ha        1 0NJ      0.087250
     23 H5          0.3930   -2.6570    0.2410 ha        1 0NJ      0.096500
     24 H6         -0.7050   -3.7550   -1.5580 ha        1 0NJ      0.084500
     25 H7         -1.5980   -0.1030   -3.2550 ha        1 0NJ      0.100500
     26 H8         -3.7090   -3.5200   -3.9410 h1        1 0NJ      0.046367
     27 H9         -3.5560   -2.9120   -2.4640 h1        1 0NJ      0.046367
     28 H10        -3.7040   -1.9300   -3.7220 h1        1 0NJ      0.046367
@<TRIPOS>BOND
     1    1    2 1   
     2    2    7 3   
     3    3    4 3   
     4    3   19 1   
     5    4   20 1   
     6    5    6 3   
     7    5   21 1   
     8    6   22 1   
     9    7    8 1   
    10    8    9 1   
    11    8   11 2   
    12    9   10 1   
    13   10   16 3   
    14   11   12 1   
    15   12   13 3   
    16   13   23 1   
    17   14   15 3   
    18   14   24 1   
    19   15   17 1   
    20   16   25 1   
    21   17   18 1   
    22   18   26 1   
    23   18   27 1   
    24   18   28 1   
@<TRIPOS>SUBSTRUCTURE
     1 0NJ         1 TEMP              0 ****  ****    0 ROOT
