@<TRIPOS>MOLECULE
0NJ
   28    30     1     0     0
SMALL
bcc


@<TRIPOS>ATOM
      1 F16         2.5330   -0.2950    2.2510 f         1 0NJ     -0.120900
      2 C11         3.1430    0.0900    1.1090 ca        1 0NJ      0.171900
      3 C12         4.5520    0.1300    1.0700 ca        1 0NJ     -0.175000
      4 C13         5.2020    0.5090   -0.0980 ca        1 0NJ     -0.091000
      5 C14         4.4680    0.8510   -1.2350 ca        1 0NJ     -0.148000
      6 C15         3.0780    0.8150   -1.2050 ca        1 0NJ     -0.089000
      7 C10         2.3950    0.4360   -0.0400 ca        1 0NJ     -0.152900
      8 C8          0.9400    0.4080   -0.0430 cc        1 0NJ      0.409800
      9 S7          0.1110   -0.3250   -1.3990 ss        1 0NJ     -0.039100
     10 C2         -1.3870    0.0210   -0.7010 ca        1 0NJ     -0.052100
     11 N9          0.1560    0.8960    0.9040 nd        1 0NJ     -0.493100
     12 C3         -1.1870    0.6870    0.5570 ca        1 0NJ      0.046400
     13 C4         -2.3020    1.0730    1.3250 ca        1 0NJ     -0.035000
     14 C5         -3.5770    0.8060    0.8570 ca        1 0NJ     -0.201000
     15 C6         -3.7590    0.1510   -0.3790 ca        1 0NJ      0.137100
     16 C1         -2.6700   -0.2450   -1.1650 ca        1 0NJ     -0.129000
     17 O17        -4.9950   -0.1510   -0.9170 os        1 0NJ     -0.325900
     18 C18        -6.1300    0.2220   -0.1460 c3        1 0NJ      0.112700
     19 H1          5.1200   -0.1420    1.9720 ha        1 0NJ      0.152000
     20 H2          6.3020    0.5420   -0.1230 ha        1 0NJ      0.140000
     21 H3          4.9890    1.1510   -2.1560 ha        1 0NJ      0.141000
     22 H4          2.5000    1.0900   -2.1010 ha        1 0NJ      0.146000
     23 H5         -2.1540    1.5830    2.2900 ha        1 0NJ      0.154000
     24 H6         -4.4470    1.1070    1.4580 ha        1 0NJ      0.142000
     25 H7         -2.8420   -0.7540   -2.1240 ha        1 0NJ      0.158000
     26 H8         -6.1260   -0.2990    0.8420 h1        1 0NJ      0.046367
     27 H9         -6.1660    1.3300   -0.0060 h1        1 0NJ      0.046367
     28 H10        -6.9920   -0.1250   -0.7710 h1        1 0NJ      0.046367
@<TRIPOS>BOND
     1    1    2 1   
     2    2    3 ar  
     3    2    7 ar  
     4    3    4 ar  
     5    3   19 1   
     6    4    5 ar  
     7    4   20 1   
     8    5    6 ar  
     9    5   21 1   
    10    6    7 ar  
    11    6   22 1   
    12    7    8 1   
    13    8    9 1   
    14    8   11 2   
    15    9   10 1   
    16   10   12 ar  
    17   10   16 ar  
    18   11   12 1   
    19   12   13 ar  
    20   13   14 ar  
    21   13   23 1   
    22   14   15 ar  
    23   14   24 1   
    24   15   16 ar  
    25   15   17 1   
    26   16   25 1   
    27   17   18 1   
    28   18   26 1   
    29   18   27 1   
    30   18   28 1   
@<TRIPOS>SUBSTRUCTURE
     1 0NJ         1 TEMP              0 ****  ****    0 ROOT
