@<TRIPOS>MOLECULE
0NJ
   28    30     1     0     0
SMALL
bcc


@<TRIPOS>ATOM
      1 F16         1.6000    2.2960   -0.9290 f         1 0NJ     -0.120900
      2 C11         2.1400    1.1380   -0.4880 ca        1 0NJ      0.171900
      3 C12         2.7300    1.1060    0.7930 ca        1 0NJ     -0.175000
      4 C13         3.2800   -0.0750    1.2730 ca        1 0NJ     -0.091000
      5 C14         3.2500   -1.2350    0.4950 ca        1 0NJ     -0.148000
      6 C15         2.6710   -1.2120   -0.7690 ca        1 0NJ     -0.089000
      7 C10         2.1080   -0.0330   -1.2800 ca        1 0NJ     -0.152900
      8 C8          1.5090   -0.0440   -2.6060 cc        1 0NJ      0.409800
      9 S7          0.4440   -1.3620   -3.0410 ss        1 0NJ     -0.039100
     10 C2          0.2040   -0.6940   -4.5730 ca        1 0NJ     -0.052100
     11 N9          1.6940    0.8700   -3.5450 nd        1 0NJ     -0.493100
     12 C3          0.9560    0.5260   -4.6870 ca        1 0NJ      0.046400
     13 C4          0.9080    1.2640   -5.8850 ca        1 0NJ     -0.035000
     14 C5          0.1370    0.8030   -6.9380 ca        1 0NJ     -0.201000
     15 C6         -0.5950   -0.3960   -6.8140 ca        1 0NJ      0.137100
     16 C1         -0.5680   -1.1510   -5.6350 ca        1 0NJ     -0.129000
     17 O17        -1.3860   -0.9240   -7.8160 os        1 0NJ     -0.325900
     18 C18        -1.4530   -0.1820   -9.0280 c3        1 0NJ      0.112700
     19 H1          2.7480    2.0250    1.3970 ha        1 0NJ      0.152000
     20 H2          3.7430   -0.0950    2.2720 ha        1 0NJ      0.140000
     21 H3          3.6880   -2.1670    0.8800 ha        1 0NJ      0.141000
     22 H4          2.6520   -2.1260   -1.3840 ha        1 0NJ      0.146000
     23 H5          1.4810    2.2000   -5.9760 ha        1 0NJ      0.154000
     24 H6          0.1000    1.3810   -7.8730 ha        1 0NJ      0.142000
     25 H7         -1.1490   -2.0820   -5.5660 ha        1 0NJ      0.158000
     26 H8         -1.8810    0.8330   -8.8470 h1        1 0NJ      0.046367
     27 H9         -0.4430   -0.1050   -9.5000 h1        1 0NJ      0.046367
     28 H10        -2.1410   -0.7930   -9.6660 h1        1 0NJ      0.046367
@<TRIPOS>BOND
     1    1    2 1   
     2    2    3 ar  
     3    2    7 ar  
     4    3    4 ar  
     5    3   19 1   
     6    4    5 ar  
     7    4   20 1   
     8    5    6 ar  
     9    5   21 1   
    10    6    7 ar  
    11    6   22 1   
    12    7    8 1   
    13    8    9 1   
    14    8   11 2   
    15    9   10 1   
    16   10   12 ar  
    17   10   16 ar  
    18   11   12 1   
    19   12   13 ar  
    20   13   14 ar  
    21   13   23 1   
    22   14   15 ar  
    23   14   24 1   
    24   15   16 ar  
    25   15   17 1   
    26   16   25 1   
    27   17   18 1   
    28   18   26 1   
    29   18   27 1   
    30   18   28 1   
@<TRIPOS>SUBSTRUCTURE
     1 0NJ         1 TEMP              0 ****  ****    0 ROOT
