@<TRIPOS>MOLECULE
0NJ
   28    30     1     0     0
SMALL
bcc


@<TRIPOS>ATOM
      1 F16         1.5110    2.2400   -0.8680 f         1 0NJ     -0.120900
      2 C11         2.0940    1.0930   -0.4570 ca        1 0NJ      0.171900
      3 C12         2.6840    1.0490    0.8230 ca        1 0NJ     -0.175000
      4 C13         3.2790   -0.1230    1.2730 ca        1 0NJ     -0.091000
      5 C14         3.2930   -1.2620    0.4650 ca        1 0NJ     -0.148000
      6 C15         2.7140   -1.2270   -0.7990 ca        1 0NJ     -0.089000
      7 C10         2.1080   -0.0570   -1.2800 ca        1 0NJ     -0.152900
      8 C8          1.5090   -0.0560   -2.6060 cc        1 0NJ      0.409800
      9 S7          0.4970   -1.4030   -3.0790 ss        1 0NJ     -0.039100
     10 C2          0.2330   -0.7030   -4.5930 ca        1 0NJ     -0.052100
     11 N9          1.6590    0.8890   -3.5200 nd        1 0NJ     -0.493100
     12 C3          0.9350    0.5480   -4.6730 ca        1 0NJ      0.046400
     13 C4          0.8590    1.3160   -5.8500 ca        1 0NJ     -0.035000
     14 C5          0.1070    0.8540   -6.9170 ca        1 0NJ     -0.201000
     15 C6         -0.5770   -0.3770   -6.8260 ca        1 0NJ      0.137100
     16 C1         -0.5210   -1.1620   -5.6680 ca        1 0NJ     -0.129000
     17 O17        -1.3460   -0.9080   -7.8420 os        1 0NJ     -0.325900
     18 C18        -1.4420   -0.1370   -9.0340 c3        1 0NJ      0.112700
     19 H1          2.6670    1.9520    1.4510 ha        1 0NJ      0.152000
     20 H2          3.7410   -0.1520    2.2710 ha        1 0NJ      0.140000
     21 H3          3.7660   -2.1870    0.8250 ha        1 0NJ      0.141000
     22 H4          2.7310   -2.1240   -1.4390 ha        1 0NJ      0.146000
     23 H5          1.3950    2.2760   -5.9150 ha        1 0NJ      0.154000
     24 H6          0.0480    1.4550   -7.8350 ha        1 0NJ      0.142000
     25 H7         -1.0650   -2.1160   -5.6250 ha        1 0NJ      0.158000
     26 H8         -0.4360   -0.0070   -9.5020 h1        1 0NJ      0.046367
     27 H9         -1.9100    0.8560   -8.8260 h1        1 0NJ      0.046367
     28 H10        -2.1060   -0.7560   -9.6900 h1        1 0NJ      0.046367
@<TRIPOS>BOND
     1    1    2 1   
     2    2    3 ar  
     3    2    7 ar  
     4    3    4 ar  
     5    3   19 1   
     6    4    5 ar  
     7    4   20 1   
     8    5    6 ar  
     9    5   21 1   
    10    6    7 ar  
    11    6   22 1   
    12    7    8 1   
    13    8    9 1   
    14    8   11 2   
    15    9   10 1   
    16   10   12 ar  
    17   10   16 ar  
    18   11   12 1   
    19   12   13 ar  
    20   13   14 ar  
    21   13   23 1   
    22   14   15 ar  
    23   14   24 1   
    24   15   16 ar  
    25   15   17 1   
    26   16   25 1   
    27   17   18 1   
    28   18   26 1   
    29   18   27 1   
    30   18   28 1   
@<TRIPOS>SUBSTRUCTURE
     1 0NJ         1 TEMP              0 ****  ****    0 ROOT
