@<TRIPOS>MOLECULE
0NJ
   28    30     1     0     0
SMALL
bcc


@<TRIPOS>ATOM
      1 F16         1.5960    2.2980   -0.9300 f         1 0NJ     -0.120900
      2 C11         2.1340    1.1410   -0.4870 ca        1 0NJ      0.171900
      3 C12         2.7210    1.1100    0.7950 ca        1 0NJ     -0.175000
      4 C13         3.2690   -0.0720    1.2780 ca        1 0NJ     -0.091000
      5 C14         3.2400   -1.2320    0.5010 ca        1 0NJ     -0.148000
      6 C15         2.6630   -1.2100   -0.7640 ca        1 0NJ     -0.089000
      7 C10         2.1030   -0.0310   -1.2770 ca        1 0NJ     -0.152900
      8 C8          1.5060   -0.0430   -2.6050 cc        1 0NJ      0.409800
      9 S7          0.4420   -1.3610   -3.0410 ss        1 0NJ     -0.039100
     10 C2          0.2060   -0.6940   -4.5740 ca        1 0NJ     -0.052100
     11 N9          1.6940    0.8700   -3.5440 nd        1 0NJ     -0.493100
     12 C3          0.9580    0.5250   -4.6880 ca        1 0NJ      0.046400
     13 C4          0.9130    1.2620   -5.8870 ca        1 0NJ     -0.035000
     14 C5          0.1440    0.8010   -6.9410 ca        1 0NJ     -0.201000
     15 C6         -0.5890   -0.3980   -6.8170 ca        1 0NJ      0.137100
     16 C1         -0.5640   -1.1530   -5.6380 ca        1 0NJ     -0.129000
     17 O17        -1.3780   -0.9270   -7.8200 os        1 0NJ     -0.325900
     18 C18        -1.4420   -0.1860   -9.0330 c3        1 0NJ      0.112700
     19 H1          2.7380    2.0290    1.3980 ha        1 0NJ      0.152000
     20 H2          3.7290   -0.0910    2.2780 ha        1 0NJ      0.140000
     21 H3          3.6760   -2.1650    0.8880 ha        1 0NJ      0.141000
     22 H4          2.6460   -2.1240   -1.3780 ha        1 0NJ      0.146000
     23 H5          1.4870    2.1980   -5.9780 ha        1 0NJ      0.154000
     24 H6          0.1100    1.3780   -7.8760 ha        1 0NJ      0.142000
     25 H7         -1.1460   -2.0820   -5.5690 ha        1 0NJ      0.158000
     26 H8         -0.4320   -0.1090   -9.5030 h1        1 0NJ      0.046367
     27 H9         -1.8710    0.8300   -8.8530 h1        1 0NJ      0.046367
     28 H10        -2.1300   -0.7960   -9.6720 h1        1 0NJ      0.046367
@<TRIPOS>BOND
     1    1    2 1   
     2    2    3 ar  
     3    2    7 ar  
     4    3    4 ar  
     5    3   19 1   
     6    4    5 ar  
     7    4   20 1   
     8    5    6 ar  
     9    5   21 1   
    10    6    7 ar  
    11    6   22 1   
    12    7    8 1   
    13    8    9 1   
    14    8   11 2   
    15    9   10 1   
    16   10   12 ar  
    17   10   16 ar  
    18   11   12 1   
    19   12   13 ar  
    20   13   14 ar  
    21   13   23 1   
    22   14   15 ar  
    23   14   24 1   
    24   15   16 ar  
    25   15   17 1   
    26   16   25 1   
    27   17   18 1   
    28   18   26 1   
    29   18   27 1   
    30   18   28 1   
@<TRIPOS>SUBSTRUCTURE
     1 0NJ         1 TEMP              0 ****  ****    0 ROOT
