@<TRIPOS>MOLECULE
0NK
   45    46     1     0     0
SMALL
bcc


@<TRIPOS>ATOM
      1 N1          0.0270   -0.0640   -0.1100 nh        1 0NK     -0.842900
      2 C1          3.7600   -0.1800   -0.0480 ca        1 0NK      0.413600
      3 C2          2.4270   -0.0570    0.4520 ca        1 0NK     -0.263600
      4 C3          4.8490   -0.0830    0.8880 ca        1 0NK      0.053800
      5 N2          4.0190   -0.3860   -1.3900 nb        1 0NK     -0.707000
      6 C4          2.2010    0.1090    1.8370 ca        1 0NK     -0.179000
      7 C5          1.3460   -0.1220   -0.5430 ca        1 0NK      0.703200
      8 C6          4.6060    0.0420    2.2480 ca        1 0NK      0.093100
      9 C7          2.9540   -0.4400   -2.1890 ca        1 0NK      0.665900
     10 C8          3.2610    0.1550    2.7210 ca        1 0NK      0.102100
     11 N3          1.6300   -0.3050   -1.8560 nb        1 0NK     -0.781000
     12 O2          5.6640   -0.0510    3.1330 os        1 0NK     -0.321900
     13 C9          6.7590   -1.2920    0.2160 c3        1 0NK      0.120700
     14 O3          3.1430    0.3330    4.0850 os        1 0NK     -0.317900
     15 C10         5.9830    1.1780    3.7910 c3        1 0NK      0.117700
     16 C11         1.8300    0.2200    4.6240 c3        1 0NK      0.110700
     17 C12        -1.1070    0.0470   -1.0080 c3        1 0NK      0.209500
     18 C13        -2.3290   -0.7030   -0.4380 c3        1 0NK     -0.094900
     19 C14        -1.5350    1.5000   -1.2870 c3        1 0NK     -0.094900
     20 C15        -2.1000   -2.1860   -0.3320 c3        1 0NK     -0.093600
     21 C16        -0.4850    2.2880   -2.0230 c3        1 0NK     -0.093600
     22 H1         -0.1140    0.3680    0.7760 hn        1 0NK      0.416800
     23 H2          1.1800    0.1840    2.2350 ha        1 0NK      0.136000
     24 H3          3.1440   -0.6050   -3.2710 h5        1 0NK      0.051100
     25 H4          7.7820   -1.0320   -0.1550 h1        1 0NK      0.045700
     26 H5          6.8140   -1.8580    1.1780 h1        1 0NK      0.045700
     27 H6          6.1930   -1.8690   -0.5520 h1        1 0NK      0.045700
     28 H7          6.8360    0.9000    4.4580 h1        1 0NK      0.046367
     29 H8          6.2950    1.9450    3.0420 h1        1 0NK      0.046367
     30 H9          5.1090    1.5380    4.3860 h1        1 0NK      0.046367
     31 H10         2.0000    0.2770    5.7300 h1        1 0NK      0.046033
     32 H11         1.1930    1.0700    4.2800 h1        1 0NK      0.046033
     33 H12         1.3660   -0.7570    4.3460 h1        1 0NK      0.046033
     34 H13        -0.8430   -0.4380   -1.9950 h1        1 0NK      0.095700
     35 H14        -2.6030   -0.2830    0.5650 hc        1 0NK      0.042700
     36 H15        -3.1920   -0.5080   -1.1280 hc        1 0NK      0.042700
     37 H16        -2.4710    1.4660   -1.9050 hc        1 0NK      0.042700
     38 H17        -1.7930    2.0120   -0.3230 hc        1 0NK      0.042700
     39 H18        -3.0440   -2.6980   -0.0240 hc        1 0NK      0.038867
     40 H19        -1.7740   -2.6070   -1.3150 hc        1 0NK      0.038867
     41 H20        -1.3130   -2.4210    0.4250 hc        1 0NK      0.038867
     42 H21        -0.8790    3.3000   -2.2850 hc        1 0NK      0.038867
     43 H22         0.4300    2.4220   -1.3980 hc        1 0NK      0.038867
     44 H23        -0.1890    1.7670   -2.9660 hc        1 0NK      0.038867
     45 O1          6.1560   -0.0150    0.4400 os        1 0NK     -0.319900
@<TRIPOS>BOND
     1    1    7 1   
     2    1   17 1   
     3    1   22 1   
     4    2    3 ar  
     5    2    4 ar  
     6    2    5 ar  
     7    3    6 ar  
     8    3    7 ar  
     9    4    8 ar  
    10    4   45 1   
    11    5    9 ar  
    12    6   10 ar  
    13    6   23 1   
    14    7   11 ar  
    15    8   10 ar  
    16    8   12 1   
    17    9   11 ar  
    18    9   24 1   
    19   10   14 1   
    20   12   15 1   
    21   13   25 1   
    22   13   26 1   
    23   13   27 1   
    24   13   45 1   
    25   14   16 1   
    26   15   28 1   
    27   15   29 1   
    28   15   30 1   
    29   16   31 1   
    30   16   32 1   
    31   16   33 1   
    32   17   18 1   
    33   17   19 1   
    34   17   34 1   
    35   18   20 1   
    36   18   35 1   
    37   18   36 1   
    38   19   21 1   
    39   19   37 1   
    40   19   38 1   
    41   20   39 1   
    42   20   40 1   
    43   20   41 1   
    44   21   42 1   
    45   21   43 1   
    46   21   44 1   
@<TRIPOS>SUBSTRUCTURE
     1 0NK         1 TEMP              0 ****  ****    0 ROOT
