@<TRIPOS>MOLECULE
0NL
   49    52     1     0     0
SMALL
bcc


@<TRIPOS>ATOM
      1 C1          0.0540    0.5830    1.1130 c3        1 0NL     -0.129767
      2 C2          1.0650    0.2600    0.0350 c3        1 0NL      0.200800
      3 C3          2.1960   -0.6140    0.5330 c3        1 0NL     -0.129767
      4 C4          0.4090   -0.3110   -1.2120 c3        1 0NL     -0.129767
      5 O5          1.6340    1.5390   -0.4990 os        1 0NL     -0.424900
      6 C6          2.3200    2.3400    0.3200 c         1 0NL      0.631100
      7 O7          2.5510    2.2120    1.5140 o         1 0NL     -0.431000
      8 N8          2.8380    3.5300   -0.4400 ny        1 0NL     -0.651800
      9 C9          2.0980    4.7910   -0.0540 c3        1 0NL      0.132500
     10 C11         0.6630    4.8100   -0.6090 c3        1 0NL     -0.107400
     11 C12         0.6590    5.6920   -1.8460 c3        1 0NL     -0.112400
     12 C13         2.0690    6.3150   -1.9860 c3        1 0NL      0.071000
     13 C15         2.7770    6.0350   -0.6350 c3        1 0NL     -0.139400
     14 N16         2.0800    7.6900   -2.3690 na        1 0NL     -0.178300
     15 C17         1.4230    8.7680   -1.7080 cc        1 0NL      0.385700
     16 N18         1.6980    9.9580   -2.2500 nd        1 0NL     -0.503100
     17 C19         2.5830    9.6950   -3.3130 ca        1 0NL     -0.079900
     18 C20         2.8360    8.2710   -3.3960 ca        1 0NL     -0.002200
     19 C21         3.6890    7.7850   -4.3900 ca        1 0NL     -0.204100
     20 C22         4.1990    6.5210   -4.8390 cc        1 0NL     -0.203200
     21 C23         5.0310    6.7780   -5.9310 cd        1 0NL     -0.093100
     22 N24         5.0760    8.1440   -6.1940 na        1 0NL     -0.260100
     23 C26         4.2570    8.8040   -5.2680 ca        1 0NL      0.435800
     24 N27         4.0270   10.1600   -5.1980 nb        1 0NL     -0.664000
     25 C28         3.2080   10.5760   -4.2410 ca        1 0NL      0.494200
     26 H1          0.5560    1.0030    2.0190 hc        1 0NL      0.073144
     27 H1A        -0.7000    1.3150    0.7380 hc        1 0NL      0.073144
     28 H1B        -0.4760   -0.3570    1.4070 hc        1 0NL      0.073144
     29 H3          2.9690   -0.7500   -0.2610 hc        1 0NL      0.073144
     30 H3A         2.6740   -0.1710    1.4410 hc        1 0NL      0.073144
     31 H3B         1.7850   -1.6180    0.8050 hc        1 0NL      0.073144
     32 H4         -0.3800    0.3800   -1.5940 hc        1 0NL      0.073144
     33 H4A        -0.0600   -1.2900   -0.9460 hc        1 0NL      0.073144
     34 H4B         1.1660   -0.4760   -2.0160 hc        1 0NL      0.073144
     35 HN8         2.7330    3.3670   -1.4490 hn        1 0NL      0.468800
     36 H9          2.1020    4.8130    1.0760 hx        1 0NL      0.124700
     37 H11         0.2770    3.7830   -0.8370 hc        1 0NL      0.086700
     38 H11A       -0.0040    5.2430    0.1830 hc        1 0NL      0.086700
     39 H12         0.4210    5.0990   -2.7650 hc        1 0NL      0.085700
     40 H12A       -0.1330    6.4800   -1.7540 hc        1 0NL      0.085700
     41 H13         2.6270    5.7510   -2.7960 h1        1 0NL      0.074700
     42 H15         2.6140    6.8810    0.0860 hc        1 0NL      0.097200
     43 H15A        3.8810    5.9300   -0.7740 hc        1 0NL      0.097200
     44 H17         0.7540    8.5970   -0.8580 h5        1 0NL      0.068800
     45 H22         3.9780    5.5430   -4.4290 ha        1 0NL      0.133000
     46 H23         5.6000    6.0780   -6.5480 h4        1 0NL      0.177000
     47 HN24        5.5830    8.5860   -6.9190 hn        1 0NL      0.323700
     48 H28         3.0210   11.6660   -4.1900 h4        1 0NL      0.053100
     49 H82         3.8340    3.6470   -0.2140 hn        1 0NL      0.468800
@<TRIPOS>BOND
     1    1    2 1   
     2    1   26 1   
     3    1   27 1   
     4    1   28 1   
     5    2    3 1   
     6    2    4 1   
     7    2    5 1   
     8    3   29 1   
     9    3   30 1   
    10    3   31 1   
    11    4   32 1   
    12    4   33 1   
    13    4   34 1   
    14    5    6 1   
    15    6    7 2   
    16    6    8 1   
    17    8    9 1   
    18    8   35 1   
    19    8   49 1   
    20    9   10 1   
    21    9   13 1   
    22    9   36 1   
    23   10   11 1   
    24   10   37 1   
    25   10   38 1   
    26   11   12 1   
    27   11   39 1   
    28   11   40 1   
    29   12   13 1   
    30   12   14 1   
    31   12   41 1   
    32   13   42 1   
    33   13   43 1   
    34   14   15 1   
    35   14   18 1   
    36   15   16 2   
    37   15   44 1   
    38   16   17 1   
    39   17   18 ar  
    40   17   25 ar  
    41   18   19 ar  
    42   19   20 1   
    43   19   23 ar  
    44   20   21 2   
    45   20   45 1   
    46   21   22 1   
    47   21   46 1   
    48   22   23 1   
    49   22   47 1   
    50   23   24 ar  
    51   24   25 ar  
    52   25   48 1   
@<TRIPOS>SUBSTRUCTURE
     1 0NL         1 TEMP              0 ****  ****    0 ROOT
