@<TRIPOS>MOLECULE
0NL
   49    52     1     0     0
SMALL
bcc


@<TRIPOS>ATOM
      1 C1          0.0720    0.5630    1.0980 c3        1 0NL     -0.129767
      2 C2          1.1000    0.2490    0.0330 c3        1 0NL      0.200800
      3 C3          2.2350   -0.6080    0.5470 c3        1 0NL     -0.129767
      4 C4          0.4660   -0.3330   -1.2210 c3        1 0NL     -0.129767
      5 O5          1.6590    1.5340   -0.4980 os        1 0NL     -0.424900
      6 C6          2.3250    2.3460    0.3270 c         1 0NL      0.631100
      7 O7          2.5430    2.2240    1.5240 o         1 0NL     -0.431000
      8 N8          2.8370    3.5410   -0.4300 n4        1 0NL     -0.651800
      9 C9          2.0750    4.7930   -0.0570 c3        1 0NL      0.132500
     10 C11         0.6480    4.7930   -0.6290 c3        1 0NL     -0.107400
     11 C12         0.6490    5.6710   -1.8690 c3        1 0NL     -0.112400
     12 C13         2.0520    6.3120   -1.9930 c3        1 0NL      0.071000
     13 C15         2.7460    6.0450   -0.6320 c3        1 0NL     -0.139400
     14 N16         2.0490    7.6860   -2.3780 na        1 0NL     -0.178300
     15 C17         1.3690    8.7570   -1.7290 cc        1 0NL      0.385700
     16 N18         1.6350    9.9490   -2.2690 nd        1 0NL     -0.503100
     17 C19         2.5380    9.6960   -3.3190 ca        1 0NL     -0.079900
     18 C20         2.8110    8.2750   -3.3960 ca        1 0NL     -0.002200
     19 C21         3.6840    7.8000   -4.3780 ca        1 0NL     -0.204100
     20 C22         4.2170    6.5420   -4.8170 cc        1 0NL     -0.203200
     21 C23         5.0600    6.8080   -5.8980 cd        1 0NL     -0.093100
     22 N24         5.0900    8.1740   -6.1640 na        1 0NL     -0.260100
     23 C26         4.2500    8.8240   -5.2500 ca        1 0NL      0.435800
     24 N27         4.0000   10.1770   -5.1860 nb        1 0NL     -0.664000
     25 C28         3.1630   10.5840   -4.2410 ca        1 0NL      0.494200
     26 H1         -0.6870    1.2840    0.7110 hc        1 0NL      0.073144
     27 H1A         0.5580    0.9920    2.0090 hc        1 0NL      0.073144
     28 H1B        -0.4500   -0.3830    1.3870 hc        1 0NL      0.073144
     29 H3          3.0190   -0.7370   -0.2380 hc        1 0NL      0.073144
     30 H3A         2.6970   -0.1570    1.4590 hc        1 0NL      0.073144
     31 H3B         1.8340   -1.6170    0.8160 hc        1 0NL      0.073144
     32 H4          0.0060   -1.3170   -0.9570 hc        1 0NL      0.073144
     33 H4A        -0.3270    0.3480   -1.6140 hc        1 0NL      0.073144
     34 H4B         1.2350   -0.4900   -2.0150 hc        1 0NL      0.073144
     35 HN8         3.8280    3.6710   -0.1920 hn        1 0NL      0.468800
     36 H9          2.0650    4.8180    1.0730 hx        1 0NL      0.124700
     37 H11        -0.0350    5.2200    0.1520 hc        1 0NL      0.086700
     38 H11A        0.2770    3.7610   -0.8590 hc        1 0NL      0.086700
     39 H12         0.4310    5.0720   -2.7900 hc        1 0NL      0.085700
     40 H12A       -0.1550    6.4480   -1.7910 hc        1 0NL      0.085700
     41 H13         2.6270    5.7540   -2.7940 h1        1 0NL      0.074700
     42 H15         3.8530    5.9530   -0.7570 hc        1 0NL      0.097200
     43 H15A        2.5630    6.8900    0.0850 hc        1 0NL      0.097200
     44 H17         0.6920    8.5780   -0.8870 h5        1 0NL      0.068800
     45 H22         4.0040    5.5610   -4.4070 ha        1 0NL      0.133000
     46 H23         5.6470    6.1140   -6.5060 h4        1 0NL      0.177000
     47 HN24        5.6010    8.6210   -6.8830 hn        1 0NL      0.323700
     48 H28         2.9610   11.6710   -4.1950 h4        1 0NL      0.053100
     49 H82         2.7460    3.3740   -1.4390 hn        1 0NL      0.468800
@<TRIPOS>BOND
     1    1    2 1   
     2    1   26 1   
     3    1   27 1   
     4    1   28 1   
     5    2    3 1   
     6    2    4 1   
     7    2    5 1   
     8    3   29 1   
     9    3   30 1   
    10    3   31 1   
    11    4   32 1   
    12    4   33 1   
    13    4   34 1   
    14    5    6 1   
    15    6    7 2   
    16    6    8 1   
    17    8    9 1   
    18    8   35 1   
    19    8   49 1   
    20    9   10 1   
    21    9   13 1   
    22    9   36 1   
    23   10   11 1   
    24   10   37 1   
    25   10   38 1   
    26   11   12 1   
    27   11   39 1   
    28   11   40 1   
    29   12   13 1   
    30   12   14 1   
    31   12   41 1   
    32   13   42 1   
    33   13   43 1   
    34   14   15 1   
    35   14   18 1   
    36   15   16 2   
    37   15   44 1   
    38   16   17 1   
    39   17   18 ar  
    40   17   25 ar  
    41   18   19 ar  
    42   19   20 1   
    43   19   23 ar  
    44   20   21 2   
    45   20   45 1   
    46   21   22 1   
    47   21   46 1   
    48   22   23 1   
    49   22   47 1   
    50   23   24 ar  
    51   24   25 ar  
    52   25   48 1   
@<TRIPOS>SUBSTRUCTURE
     1 0NL         1 TEMP              0 ****  ****    0 ROOT
