@<TRIPOS>MOLECULE
0NL
   49    52     1     0     0
SMALL
bcc


@<TRIPOS>ATOM
      1 C1          0.0140    0.5830    1.0820 c3        1 0NL     -0.129767
      2 C2          1.0360    0.2590    0.0150 c3        1 0NL      0.200800
      3 C3          2.1580   -0.6180    0.5250 c3        1 0NL     -0.129767
      4 C4          0.3930   -0.3080   -1.2400 c3        1 0NL     -0.129767
      5 O5          1.6140    1.5370   -0.5100 os        1 0NL     -0.424900
      6 C6          2.2920    2.3360    0.3170 c         1 0NL      0.631100
      7 O7          2.5090    2.2060    1.5130 o         1 0NL     -0.431000
      8 N8          2.8210    3.5270   -0.4350 n4        1 0NL     -0.651800
      9 C9          2.0780    4.7880   -0.0560 c3        1 0NL      0.132500
     10 C11         0.6510    4.8110   -0.6270 c3        1 0NL     -0.107400
     11 C12         0.6630    5.6950   -1.8630 c3        1 0NL     -0.112400
     12 C13         2.0760    6.3160   -1.9850 c3        1 0NL      0.071000
     13 C15         2.7670    6.0320   -0.6270 c3        1 0NL     -0.139400
     14 N16         2.0930    7.6910   -2.3650 na        1 0NL     -0.178300
     15 C17         1.4300    8.7690   -1.7110 cc        1 0NL      0.385700
     16 N18         1.7130    9.9590   -2.2470 nd        1 0NL     -0.503100
     17 C19         2.6110    9.6970   -3.3000 ca        1 0NL     -0.079900
     18 C20         2.8630    8.2720   -3.3820 ca        1 0NL     -0.002200
     19 C21         3.7270    7.7870   -4.3670 ca        1 0NL     -0.204100
     20 C22         4.2410    6.5230   -4.8110 cc        1 0NL     -0.203200
     21 C23         5.0860    6.7800   -5.8930 cd        1 0NL     -0.093100
     22 N24         5.1370    8.1470   -6.1530 na        1 0NL     -0.260100
     23 C26         4.3070    8.8060   -5.2360 ca        1 0NL      0.435800
     24 N27         4.0780   10.1620   -5.1670 nb        1 0NL     -0.664000
     25 C28         3.2480   10.5790   -4.2190 ca        1 0NL      0.494200
     26 H1         -0.5220   -0.3560    1.3690 hc        1 0NL      0.073144
     27 H1A         0.5060    1.0020    1.9940 hc        1 0NL      0.073144
     28 H1B        -0.7360    1.3170    0.6990 hc        1 0NL      0.073144
     29 H3          1.7420   -1.6210    0.7910 hc        1 0NL      0.073144
     30 H3A         2.6270   -0.1770    1.4390 hc        1 0NL      0.073144
     31 H3B         2.9400   -0.7540   -0.2600 hc        1 0NL      0.073144
     32 H4         -0.3890    0.3860   -1.6310 hc        1 0NL      0.073144
     33 H4A         1.1590   -0.4760   -2.0350 hc        1 0NL      0.073144
     34 H4B        -0.0830   -1.2860   -0.9800 hc        1 0NL      0.073144
     35 HN8         2.7270    3.3650   -1.4450 hn        1 0NL      0.468800
     36 H9          2.0700    4.8080    1.0740 hx        1 0NL      0.124700
     37 H11        -0.0250    5.2440    0.1580 hc        1 0NL      0.086700
     38 H11A        0.2650    3.7850   -0.8610 hc        1 0NL      0.086700
     39 H12         0.4350    5.1040   -2.7850 hc        1 0NL      0.085700
     40 H12A       -0.1290    6.4840   -1.7790 hc        1 0NL      0.085700
     41 H13         2.6410    5.7520   -2.7890 h1        1 0NL      0.074700
     42 H15         2.5980    6.8770    0.0940 hc        1 0NL      0.097200
     43 H15A        3.8720    5.9250   -0.7530 hc        1 0NL      0.097200
     44 H17         0.7510    8.5980   -0.8690 h5        1 0NL      0.068800
     45 H22         4.0130    5.5440   -4.4050 ha        1 0NL      0.133000
     46 H23         5.6620    6.0800   -6.5030 h4        1 0NL      0.177000
     47 HN24        5.6530    8.5890   -6.8710 hn        1 0NL      0.323700
     48 H28         3.0630   11.6680   -4.1680 h4        1 0NL      0.053100
     49 H82         3.8140    3.6410   -0.1980 hn        1 0NL      0.468800
@<TRIPOS>BOND
     1    1    2 1   
     2    1   26 1   
     3    1   27 1   
     4    1   28 1   
     5    2    3 1   
     6    2    4 1   
     7    2    5 1   
     8    3   29 1   
     9    3   30 1   
    10    3   31 1   
    11    4   32 1   
    12    4   33 1   
    13    4   34 1   
    14    5    6 1   
    15    6    7 2   
    16    6    8 1   
    17    8    9 1   
    18    8   35 1   
    19    8   49 1   
    20    9   10 1   
    21    9   13 1   
    22    9   36 1   
    23   10   11 1   
    24   10   37 1   
    25   10   38 1   
    26   11   12 1   
    27   11   39 1   
    28   11   40 1   
    29   12   13 1   
    30   12   14 1   
    31   12   41 1   
    32   13   42 1   
    33   13   43 1   
    34   14   15 1   
    35   14   18 1   
    36   15   16 2   
    37   15   44 1   
    38   16   17 1   
    39   17   18 ar  
    40   17   25 ar  
    41   18   19 ar  
    42   19   20 1   
    43   19   23 ar  
    44   20   21 2   
    45   20   45 1   
    46   21   22 1   
    47   21   46 1   
    48   22   23 1   
    49   22   47 1   
    50   23   24 ar  
    51   24   25 ar  
    52   25   48 1   
@<TRIPOS>SUBSTRUCTURE
     1 0NL         1 TEMP              0 ****  ****    0 ROOT
