@<TRIPOS>MOLECULE
0NL
   48    43     1     0     0
SMALL
bcc


@<TRIPOS>ATOM
      1 C1         -0.9020   -5.2500    2.0160 c3        1 0NL     -0.232000
      2 C2          0.2960   -4.3840    2.3380 c3        1 0NL      0.115000
      3 C3          0.1760   -3.8620    3.7530 c3        1 0NL     -0.232000
      4 C4          1.5620   -5.2060    2.2090 c3        1 0NL     -0.232000
      5 O5          0.3470   -3.2920    1.4340 os        1 0NL     -0.290000
      6 C6         -0.5980   -2.2760    1.7090 c2        1 0NL      0.398000
      7 O7         -1.2880   -2.3430    2.7050 o         1 0NL     -0.401000
      8 N8         -0.7680   -1.1930    0.7920 n         1 0NL     -0.343000
      9 C9         -1.1500    0.0820    1.2680 c3        1 0NL      0.023000
     10 C11        -2.3420    0.4340    0.7450 c3        1 0NL     -0.189000
     11 C12        -1.9850    1.2640   -0.5910 c3        1 0NL     -0.173000
     12 C13        -0.4040    1.5620   -0.5100 c3        1 0NL      0.034000
     13 C15        -0.0520    1.2440    0.7550 c3        1 0NL     -0.183000
     14 N16        -0.1440    2.9530   -0.7650 n3        1 0NL     -0.177000
     15 C17        -0.5840    3.9260    0.0660 c1        1 0NL     -0.061000
     16 N18        -0.2850    5.1210   -0.4930 n2        1 0NL     -0.111000
     17 C19         0.3420    4.8860   -1.6770 c1        1 0NL     -0.163000
     18 C20         0.4290    3.5480   -1.8440 c1        1 0NL      0.044000
     19 C21         1.0610    3.0240   -2.9840 c1        1 0NL     -0.116000
     20 C22         1.3110    1.7300   -3.3880 c1        1 0NL     -0.190000
     21 C23         1.9960    1.7830   -4.5860 c1        1 0NL     -0.090000
     22 N24         2.1680    3.0990   -4.9180 n2        1 0NL     -0.186000
     23 C26         1.5890    3.8710   -3.9260 c1        1 0NL      0.031000
     24 N27         1.4990    5.2420   -3.7530 n1        1 0NL     -0.158000
     25 C28         0.8850    5.7540   -2.6460 c1        1 0NL      0.019000
     26 H1         -0.7250   -6.1720    2.3010 hc        1 0NL      0.091556
     27 H1A        -1.0680   -5.2320    1.0510 hc        1 0NL      0.091556
     28 H1B        -1.6880   -4.9080    2.4890 hc        1 0NL      0.091556
     29 H3          0.6870   -3.0300    3.8390 hc        1 0NL      0.091556
     30 H3A         0.5310   -4.5290    4.3790 hc        1 0NL      0.091556
     31 H3B        -0.7650   -3.6900    3.9580 hc        1 0NL      0.091556
     32 H4          1.5320   -5.9550    2.8410 hc        1 0NL      0.091556
     33 H4A         2.3400   -4.6430    2.4070 hc        1 0NL      0.091556
     34 H4B         1.6350   -5.5530    1.2950 hc        1 0NL      0.091556
     35 HN8        -0.6630   -1.3330   -0.1040 hn        1 0NL      0.229000
     36 H9         -1.2000    0.0750    2.2460 h1        1 0NL      0.133000
     37 H11        -2.8370    1.0000    1.3760 hc        1 0NL      0.096000
     38 H11A       -2.8640   -0.3630    0.5210 hc        1 0NL      0.096000
     39 H12        -2.4870    2.1040   -0.6110 hc        1 0NL      0.100000
     40 H12A       -2.1880    0.7300   -1.3850 hc        1 0NL      0.100000
     41 H13         0.0800    1.0030   -1.1480 h1        1 0NL      0.115000
     42 H15        -0.1060    2.0370    1.3300 hc        1 0NL      0.107500
     43 H15A        0.8560    0.8780    0.7700 hc        1 0NL      0.107500
     44 H17        -1.0350    3.7900    0.9200 DU        1 0NL      0.195250
     45 H22         1.0490    0.9190   -2.9120 DU        1 0NL      0.195250
     46 H23         2.3260    1.0170   -5.0920 DU        1 0NL      0.195250
     47 HN24        2.5910    3.4130   -5.6630 DU        1 0NL      0.195250
     48 H28         0.8400    6.7190   -2.5160 ha        1 0NL      0.175000
@<TRIPOS>BOND
     1    1    2 1   
     2    1   26 1   
     3    1   27 1   
     4    1   28 1   
     5    2    3 1   
     6    2    4 1   
     7    2    5 1   
     8    3   29 1   
     9    3   30 1   
    10    3   31 1   
    11    4   32 1   
    12    4   33 1   
    13    4   34 1   
    14    5    6 1   
    15    6    7 1   
    16    6    8 1   
    17    8    9 1   
    18    8   35 1   
    19    9   10 1   
    20    9   13 1   
    21    9   36 1   
    22   10   11 1   
    23   10   37 1   
    24   10   38 1   
    25   11   12 1   
    26   11   39 1   
    27   11   40 1   
    28   12   13 1   
    29   12   14 1   
    30   12   41 1   
    31   13   42 1   
    32   13   43 1   
    33   14   15 1   
    34   14   18 1   
    35   15   16 1   
    36   16   17 1   
    37   17   25 1   
    38   18   19 1   
    39   20   21 1   
    40   21   22 1   
    41   22   23 1   
    42   23   24 1   
    43   25   48 1   
@<TRIPOS>SUBSTRUCTURE
     1 0NL         1 TEMP              0 ****  ****    0 ROOT
