@<TRIPOS>MOLECULE
0NL
   48    51     1     0     0
SMALL
bcc


@<TRIPOS>ATOM
      1 C1          6.8730    0.5170    0.7920 c3        1 0NL     -0.114100
      2 C2          6.2870   -0.4050   -0.2640 c3        1 0NL      0.186800
      3 C3          6.4400    0.1730   -1.6600 c3        1 0NL     -0.114100
      4 C4          6.9350   -1.7870   -0.1840 c3        1 0NL     -0.114100
      5 O5          4.8930   -0.6910    0.0280 os        1 0NL     -0.451900
      6 C6          3.9700    0.3260   -0.0340 c         1 0NL      0.744100
      7 O7          4.3190    1.5100   -0.1690 o         1 0NL     -0.590000
      8 N8          2.6750   -0.1610    0.0350 n         1 0NL     -0.533900
      9 C9          1.5830    0.7370    0.3280 c3        1 0NL      0.099700
     10 C11         1.1400    0.7500    1.8090 c3        1 0NL     -0.110400
     11 C12        -0.3540    0.9990    1.8010 c3        1 0NL     -0.094400
     12 C13        -0.8710    0.3640    0.4910 c3        1 0NL      0.054000
     13 C15         0.3160    0.4170   -0.4970 c3        1 0NL     -0.104400
     14 N16        -2.0820    0.9540   -0.0110 na        1 0NL     -0.151300
     15 C17        -2.2580    2.2980   -0.4250 cc        1 0NL      0.394700
     16 N18        -3.5050    2.5660   -0.8390 nd        1 0NL     -0.538100
     17 C19        -4.2100    1.3580   -0.7010 ca        1 0NL     -0.088900
     18 C20        -3.3210    0.3350   -0.1780 ca        1 0NL     -0.001200
     19 C21        -3.8240   -0.9530    0.0360 ca        1 0NL     -0.193100
     20 C22        -3.3410   -2.2180    0.5140 cc        1 0NL     -0.178200
     21 C23        -4.4120   -3.1110    0.4650 cd        1 0NL     -0.117100
     22 N24        -5.5520   -2.4730   -0.0210 na        1 0NL     -0.272100
     23 C26        -5.2300   -1.1370   -0.2980 ca        1 0NL      0.422800
     24 N27        -6.0830   -0.1750   -0.7940 nb        1 0NL     -0.684000
     25 C28        -5.5660    1.0330   -0.9830 ca        1 0NL      0.484200
     26 H1          6.4310    1.5390    0.7080 hc        1 0NL      0.052256
     27 H1A         6.6610    0.1150    1.8120 hc        1 0NL      0.052256
     28 H1B         7.9780    0.5860    0.6510 hc        1 0NL      0.052256
     29 H3          7.5230    0.2240   -1.9230 hc        1 0NL      0.052256
     30 H3A         5.9150   -0.4740   -2.4030 hc        1 0NL      0.052256
     31 H3B         6.0060    1.2020   -1.7070 hc        1 0NL      0.052256
     32 H4          6.7840   -2.2250    0.8300 hc        1 0NL      0.052256
     33 H4A         6.4810   -2.4690   -0.9410 hc        1 0NL      0.052256
     34 H4B         8.0270   -1.6860   -0.3850 hc        1 0NL      0.052256
     35 HN8         2.5610   -1.1170    0.2830 hn        1 0NL      0.315500
     36 H9          1.9290    1.7810    0.0550 h1        1 0NL      0.093700
     37 H11         1.3650   -0.2260    2.3100 hc        1 0NL      0.056700
     38 H11A        1.6820    1.5500    2.3700 hc        1 0NL      0.056700
     39 H12        -0.8540    0.5350    2.6860 hc        1 0NL      0.060700
     40 H12A       -0.5660    2.0980    1.8270 hc        1 0NL      0.060700
     41 H13        -1.1080   -0.7230    0.6990 h1        1 0NL      0.075700
     42 H15         0.1780    1.2120   -1.2720 hc        1 0NL      0.068200
     43 H15A        0.3920   -0.5600   -1.0370 hc        1 0NL      0.068200
     44 H17        -1.4300    3.0160   -0.3960 h5        1 0NL      0.070800
     45 H22        -2.3350   -2.4460    0.8520 ha        1 0NL      0.151000
     46 H23        -4.4460   -4.1660    0.7440 h4        1 0NL      0.169000
     47 HN24       -6.4400   -2.8820   -0.1530 hn        1 0NL      0.310700
     48 H28        -6.2510    1.8040   -1.3810 h4        1 0NL      0.038100
@<TRIPOS>BOND
     1    1    2 1   
     2    1   26 1   
     3    1   27 1   
     4    1   28 1   
     5    2    3 1   
     6    2    4 1   
     7    2    5 1   
     8    3   29 1   
     9    3   30 1   
    10    3   31 1   
    11    4   32 1   
    12    4   33 1   
    13    4   34 1   
    14    5    6 1   
    15    6    7 2   
    16    6    8 1   
    17    8    9 1   
    18    8   35 1   
    19    9   10 1   
    20    9   13 1   
    21    9   36 1   
    22   10   11 1   
    23   10   37 1   
    24   10   38 1   
    25   11   12 1   
    26   11   39 1   
    27   11   40 1   
    28   12   13 1   
    29   12   14 1   
    30   12   41 1   
    31   13   42 1   
    32   13   43 1   
    33   14   15 1   
    34   14   18 1   
    35   15   16 2   
    36   15   44 1   
    37   16   17 1   
    38   17   18 ar  
    39   17   25 ar  
    40   18   19 ar  
    41   19   20 1   
    42   19   23 ar  
    43   20   21 2   
    44   20   45 1   
    45   21   22 1   
    46   21   46 1   
    47   22   23 1   
    48   22   47 1   
    49   23   24 ar  
    50   24   25 ar  
    51   25   48 1   
@<TRIPOS>SUBSTRUCTURE
     1 0NL         1 TEMP              0 ****  ****    0 ROOT
