@<TRIPOS>MOLECULE
0NM
    4     3     1     0     0
SMALL
bcc


@<TRIPOS>ATOM
      1 N          -1.3020    0.0180   -0.0000 n1        1 0NM     -0.375800
      2 C          -0.1380    0.0170   -0.0000 c1        1 0NM      0.316400
      3 O           1.1920   -0.0930    0.0000 oh        1 0NM     -0.388600
      4 H           1.5380    0.8210    0.0000 ho        1 0NM      0.448000
@<TRIPOS>BOND
     1    1    2 3   
     2    2    3 1   
     3    3    4 1   
@<TRIPOS>SUBSTRUCTURE
     1 0NM         1 TEMP              0 ****  ****    0 ROOT
