@<TRIPOS>MOLECULE
0NM
    4     2     1     0     0
SMALL
bcc


@<TRIPOS>ATOM
      1 N           1.6330    0.0030    0.2240 n1        1 0NM     -0.375800
      2 C           0.4920    0.0030    0.2040 c1        1 0NM      0.287800
      3 O          -0.9150    0.0030    0.2040 o         1 0NM     -0.159000
      4 H          -1.2100   -0.0080   -0.6330 ho        1 0NM      0.247000
@<TRIPOS>BOND
     1    1    2 3   
     2    3    4 1   
@<TRIPOS>SUBSTRUCTURE
     1 0NM         1 TEMP              0 ****  ****    0 ROOT
