@<TRIPOS>MOLECULE
0NM
    4     3     1     0     0
SMALL
bcc


@<TRIPOS>ATOM
      1 N           2.4990    0.0060    0.0250 n1        1 0NM     -0.375800
      2 C           1.3360   -0.0010   -0.0240 c1        1 0NM      0.316400
      3 O           0.0030   -0.0120    0.0290 oh        1 0NM     -0.388600
      4 H          -0.3050    0.0130   -0.8980 ho        1 0NM      0.448000
@<TRIPOS>BOND
     1    1    2 3   
     2    2    3 1   
     3    3    4 1   
@<TRIPOS>SUBSTRUCTURE
     1 0NM         1 TEMP              0 ****  ****    0 ROOT
