@<TRIPOS>MOLECULE
0NN
   67    71     1     0     0
SMALL
bcc


@<TRIPOS>ATOM
      1 C4         -9.6950    0.8750   -0.7580 ca        1 0NN     -0.126000
      2 C3         -8.7690    1.9050   -0.8930 ca        1 0NN     -0.129000
      3 C2         -7.4130    1.6970   -0.5960 ca        1 0NN     -0.102000
      4 C1         -7.0190    0.4430   -0.1660 ca        1 0NN     -0.110300
      5 O1         -5.8610   -1.4680    0.5880 os        1 0NN     -0.425600
      6 N1         -2.7630    0.2470    0.6370 n3        1 0NN     -0.728600
      7 C10        -3.6810    0.1860    1.7710 c3        1 0NN      0.169800
      8 C11        -4.6720   -0.0190   -0.9440 c3        1 0NN     -0.073400
      9 C12        -3.2770   -0.4720   -0.5230 c3        1 0NN      0.169800
     10 C14        -0.3470    0.1950    0.0040 c3        1 0NN     -0.104400
     11 C15         1.0240   -0.1250    0.6050 c3        1 0NN      0.084000
     12 C16         3.1250    1.0360    0.0090 c         1 0NN      0.650100
     13 C17         4.1720    1.2950   -1.0890 c3        1 0NN      0.103500
     14 C18         4.5150    2.8010   -1.1350 c3        1 0NN     -0.096400
     15 C19         6.0220    2.8700   -1.3340 c3        1 0NN     -0.096400
     16 N2          2.1250    0.1340   -0.2820 n         1 0NN     -0.565900
     17 C20         6.5320    1.4250   -1.2280 c3        1 0NN      0.149800
     18 C22         6.7960   -1.0230    0.4030 ca        1 0NN     -0.085300
     19 C23         7.7080   -0.7630    1.4310 ca        1 0NN     -0.117000
     20 C24         8.8580   -1.5410    1.5600 ca        1 0NN     -0.134000
     21 C25         9.1060   -2.5780    0.6620 ca        1 0NN     -0.128000
     22 C26         8.2010   -2.8380   -0.3680 ca        1 0NN     -0.134000
     23 C27         7.0490   -2.0640   -0.4970 ca        1 0NN     -0.117000
     24 N3          5.4120    0.5120   -0.9600 n3        1 0NN     -0.702600
     25 C5         -9.2970   -0.3980   -0.3220 ca        1 0NN     -0.108000
     26 C6         -7.9620   -0.6040   -0.0290 ca        1 0NN     -0.115300
     27 C7         -7.2500   -1.8270    0.4490 c3        1 0NN      0.172700
     28 C8         -5.6560   -0.0720    0.2220 c3        1 0NN      0.200100
     29 C9         -5.0880    0.6660    1.4310 c3        1 0NN     -0.073400
     30 H1        -10.7540    1.0560   -0.9960 ha        1 0NN      0.134000
     31 H2         -9.0980    2.8960   -1.2370 ha        1 0NN      0.134000
     32 H3         -6.6850    2.5130   -0.7040 ha        1 0NN      0.140000
     33 H5         -3.7590   -0.8640    2.1820 h1        1 0NN      0.037450
     34 H6         -3.2660    0.8490    2.5820 h1        1 0NN      0.037450
     35 H7         -4.6410    1.0330   -1.3300 hc        1 0NN      0.056700
     36 H8         -5.0260   -0.6890   -1.7680 hc        1 0NN      0.056700
     37 H9         -2.5710   -0.2860   -1.3800 h1        1 0NN      0.037450
     38 H10        -3.3140   -1.5860   -0.3350 h1        1 0NN      0.037450
     39 H11        -1.1720    0.3030    2.0000 h1        1 0NN      0.033700
     40 H12        -1.3810   -1.3070    1.1790 h1        1 0NN      0.033700
     41 H13        -0.4900   -0.3760   -0.9500 hc        1 0NN      0.051700
     42 H14        -0.4170    1.2870   -0.2390 hc        1 0NN      0.051700
     43 H15         1.1680    0.4790    1.5470 h1        1 0NN      0.061700
     44 H16         1.0490   -1.2190    0.8850 h1        1 0NN      0.061700
     45 H17         3.7490    0.9990   -2.0950 h1        1 0NN      0.064700
     46 H18         3.9670    3.2930   -1.9740 hc        1 0NN      0.063700
     47 H19         4.2160    3.3030   -0.1800 hc        1 0NN      0.063700
     48 H20         6.2770    3.2990   -2.3330 hc        1 0NN      0.049700
     49 H21         6.4990    3.5130   -0.5550 hc        1 0NN      0.049700
     50 H22         2.0780   -0.2600   -1.1910 hn        1 0NN      0.311500
     51 H23         6.9810    1.1000   -2.2060 h1        1 0NN      0.054200
     52 H24         7.3290    1.3450   -0.4390 h1        1 0NN      0.054200
     53 H25         4.6630   -0.9380    0.3420 h1        1 0NN      0.054700
     54 H26         5.4530    0.4670    1.1920 h1        1 0NN      0.054700
     55 H27         7.5170    0.0550    2.1420 ha        1 0NN      0.137000
     56 H28         9.5700   -1.3350    2.3730 ha        1 0NN      0.130500
     57 H29        10.0140   -3.1910    0.7650 ha        1 0NN      0.130000
     58 H30         8.3960   -3.6540   -1.0780 ha        1 0NN      0.130500
     59 H31         6.3350   -2.2650   -1.3100 ha        1 0NN      0.137000
     60 H33       -10.0340   -1.2060   -0.2170 ha        1 0NN      0.138000
     61 H34        -7.3000   -2.6710   -0.2860 h1        1 0NN      0.058700
     62 H35        -7.6050   -2.1670    1.4560 h1        1 0NN      0.058700
     63 H36        -5.7440    0.4920    2.3220 hc        1 0NN      0.056700
     64 H37        -5.0830    1.7630    1.2020 hc        1 0NN      0.056700
     65 C13        -1.4250   -0.1890    1.0160 c3        1 0NN      0.172800
     66 C21         5.5340   -0.2190    0.2970 c3        1 0NN      0.191100
     67 O2          3.1890    1.6050    1.1170 o         1 0NN     -0.611100
@<TRIPOS>BOND
     1    1    2 ar  
     2    1   25 ar  
     3    1   30 1   
     4    2    3 ar  
     5    2   31 1   
     6    3    4 ar  
     7    3   32 1   
     8    4   26 ar  
     9    4   28 1   
    10    5   27 1   
    11    5   28 1   
    12    6    7 1   
    13    6    9 1   
    14    6   65 1   
    15    7   29 1   
    16    7   33 1   
    17    7   34 1   
    18    8    9 1   
    19    8   28 1   
    20    8   35 1   
    21    8   36 1   
    22    9   37 1   
    23    9   38 1   
    24   10   11 1   
    25   10   41 1   
    26   10   42 1   
    27   10   65 1   
    28   11   16 1   
    29   11   43 1   
    30   11   44 1   
    31   12   13 1   
    32   12   16 1   
    33   12   67 2   
    34   13   14 1   
    35   13   24 1   
    36   13   45 1   
    37   14   15 1   
    38   14   46 1   
    39   14   47 1   
    40   15   17 1   
    41   15   48 1   
    42   15   49 1   
    43   16   50 1   
    44   17   24 1   
    45   17   51 1   
    46   17   52 1   
    47   18   19 ar  
    48   18   23 ar  
    49   18   66 1   
    50   19   20 ar  
    51   19   55 1   
    52   20   21 ar  
    53   20   56 1   
    54   21   22 ar  
    55   21   57 1   
    56   22   23 ar  
    57   22   58 1   
    58   23   59 1   
    59   24   66 1   
    60   25   26 ar  
    61   25   60 1   
    62   26   27 1   
    63   27   61 1   
    64   27   62 1   
    65   28   29 1   
    66   29   63 1   
    67   29   64 1   
    68   39   65 1   
    69   40   65 1   
    70   53   66 1   
    71   54   66 1   
@<TRIPOS>SUBSTRUCTURE
     1 0NN         1 TEMP              0 ****  ****    0 ROOT
