@<TRIPOS>MOLECULE
0NN
   68    65     1     0     0
SMALL
bcc


@<TRIPOS>ATOM
      1 C4         -0.1510    0.9760    0.2780 c2        1 0NN     -0.546000
      2 C3         -0.9670    1.6450   -0.5320 c1        1 0NN      0.406000
      3 C2          2.3450   -0.9300    1.0900 c2        1 0NN     -0.209000
      4 C1          1.7310   -0.3410    2.1210 c2        1 0NN     -0.132000
      5 O1          2.5300   -0.1870    4.3980 oh        1 0NN     -0.383000
      6 N1          3.7710    1.3340    6.5910 n3        1 0NN     -0.159000
      7 C10         4.3550    2.4430    6.9580 c1        1 0NN     -0.142000
      8 C11         3.9190    0.7570    2.7560 c3        1 0NN     -0.226000
      9 C12         3.3980    0.2150    7.3680 c2        1 0NN     -0.072000
     10 C14         3.1230   -1.1150    9.4380 c3        1 0NN     -0.139000
     11 C15         4.1640   -1.5590   10.4600 c3        1 0NN     -0.144000
     12 C16         6.6400   -2.0760   10.8580 c1        1 0NN     -0.037000
     13 C17        11.4130   -3.0220    9.7170 c3        1 0NN     -0.089000
     14 C18        11.3520   -1.5980    9.1300 c3        1 0NN     -0.184000
     15 C19         9.9010   -1.1430    9.3360 c3        1 0NN     -0.205000
     16 N2          5.4990   -1.8060    9.8720 n4        1 0NN     -0.130000
     17 C20         9.2140   -2.2970   10.0140 c2        1 0NN      0.009000
     18 C22         8.6330   -5.3670   10.2790 c2        1 0NN      0.179000
     19 C23        10.9000   -3.4780   14.7360 c2        1 0NN     -0.192500
     20 C24         9.6710   -3.7170   14.3920 c1        1 0NN     -0.173000
     21 C25         8.4310   -3.9530   14.0840 c2        1 0NN     -0.192500
     22 C26         6.6840   -4.3540    8.9060 c1        1 0NN      0.181000
     23 C27         7.6700   -4.8540    9.5390 c1        1 0NN     -0.550000
     24 N3         10.0470   -3.3020   10.2150 n3        1 0NN     -0.119000
     25 C5         -0.6370    0.2470    1.3830 c1        1 0NN     -0.044000
     26 C6          0.2450   -0.5010    2.2910 c3        1 0NN     -0.198000
     27 C7         -0.1950   -0.3820    3.6810 c1        1 0NN     -0.045000
     28 C8          2.4640    0.4980    3.1450 c3        1 0NN      0.132000
     29 C9          1.7540    1.8400    3.3370 c3        1 0NN     -0.226000
     30 H1          0.9430    1.0030    0.0530 ha        1 0NN      0.185000
     31 H2          1.7980   -1.5420    0.3590 ha        1 0NN      0.121000
     32 H3          3.4230   -0.8520    0.9010 ha        1 0NN      0.121000
     33 H5          4.6030    2.5620    8.0340 ha        1 0NN      0.036000
     34 H6          2.3500    2.4900    4.0220 hc        1 0NN      0.086833
     35 H7          4.4870   -0.2030    2.7190 hc        1 0NN      0.086833
     36 H8          3.9610    1.2580    1.7610 hc        1 0NN      0.086833
     37 H9          2.9370   -0.5960    6.7640 h4        1 0NN      0.163000
     38 H10         4.3980    1.4200    3.5160 hc        1 0NN      0.086833
     39 H11         3.5300    1.2340    5.6140 hn        1 0NN      0.276000
     40 H12         3.9810    0.9000    9.3190 ha        1 0NN      0.136000
     41 H13         2.1780   -0.8800   10.0030 hc        1 0NN      0.115000
     42 H14         3.8250   -2.5060   10.9660 hx        1 0NN      0.133000
     43 H15         4.2830   -0.7690   11.2550 hx        1 0NN      0.133000
     44 H16         2.8860   -1.9600    8.7360 hc        1 0NN      0.115000
     45 H17        11.6870   -3.7840    8.9380 h1        1 0NN      0.131500
     46 H18        11.6250   -1.6080    8.0470 hc        1 0NN      0.128500
     47 H19         8.0150   -2.2430   10.3370 h4        1 0NN      0.336000
     48 H20        12.1380   -3.0920   10.5720 h1        1 0NN      0.131500
     49 H21        12.0670   -0.9240    9.6630 hc        1 0NN      0.128500
     50 H22         5.7670   -0.9920    9.3160 hn        1 0NN      0.233500
     51 H23         9.8340   -0.2310    9.9830 hc        1 0NN      0.151500
     52 H24         9.3920   -0.9140    8.3640 hc        1 0NN      0.151500
     53 H25         9.5200   -4.3880   11.9480 h1        1 0NN      0.168500
     54 H26        10.7090   -5.1970   10.8040 h1        1 0NN      0.168500
     55 H27        11.7590   -3.7170   14.0940 ha        1 0NN      0.141500
     56 H28        11.1540   -3.0250   15.7080 ha        1 0NN      0.141500
     57 H29         7.9350   -4.8990   14.3500 ha        1 0NN      0.141500
     58 H30         7.7880   -3.2090   13.5840 ha        1 0NN      0.141500
     59 H31         8.6390   -6.4360   10.5810 ha        1 0NN      0.172000
     60 H33        -0.0250   -1.5980    2.0530 hc        1 0NN      0.204000
     61 H34        -1.2700   -0.1920    3.8300 ha        1 0NN      0.079000
     62 H35         1.6180   -0.4460    4.6290 ho        1 0NN      0.249000
     63 H36         1.6380    2.3550    2.3550 hc        1 0NN      0.086833
     64 H37         0.7430    1.6940    3.7930 hc        1 0NN      0.086833
     65 C21         9.7660   -4.5730   10.8450 c3        1 0NN     -0.088000
     66 O2          6.3380   -2.1590   12.0350 o         1 0NN     -0.290000
     67 H221        5.4520   -2.6140    9.2340 hn        1 0NN      0.233500
     68 C13         3.5630    0.0900    8.6990 c2        1 0NN     -0.277000
@<TRIPOS>BOND
     1    1    2 1   
     2    1   25 1   
     3    1   30 1   
     4    3    4 1   
     5    3   31 1   
     6    3   32 1   
     7    4   26 1   
     8    4   28 1   
     9    5   28 1   
    10    5   62 1   
    11    6    7 1   
    12    6    9 1   
    13    6   39 1   
    14    7   33 1   
    15    8   28 1   
    16    8   35 1   
    17    8   36 1   
    18    8   38 1   
    19    9   37 1   
    20    9   68 1   
    21   10   11 1   
    22   10   41 1   
    23   10   44 1   
    24   10   68 1   
    25   11   16 1   
    26   11   42 1   
    27   11   43 1   
    28   12   16 1   
    29   12   66 1   
    30   13   14 1   
    31   13   24 1   
    32   13   45 1   
    33   13   48 1   
    34   14   15 1   
    35   14   46 1   
    36   14   49 1   
    37   15   17 1   
    38   15   51 1   
    39   15   52 1   
    40   16   50 1   
    41   16   67 1   
    42   17   24 1   
    43   17   47 1   
    44   18   23 1   
    45   18   59 1   
    46   18   65 1   
    47   19   20 1   
    48   19   55 1   
    49   19   56 1   
    50   20   21 1   
    51   21   57 1   
    52   21   58 1   
    53   22   23 1   
    54   24   65 1   
    55   25   26 1   
    56   26   27 1   
    57   26   60 1   
    58   27   61 1   
    59   28   29 1   
    60   29   34 1   
    61   29   63 1   
    62   29   64 1   
    63   40   68 1   
    64   53   65 1   
    65   54   65 1   
@<TRIPOS>SUBSTRUCTURE
     1 0NN         1 TEMP              0 ****  ****    0 ROOT
