@<TRIPOS>MOLECULE
0NN
   67    64     1     0     0
SMALL
bcc


@<TRIPOS>ATOM
      1 C4         -6.8100    1.0240   -6.7780 c1        1 0NN     -0.123375
      2 C3         -5.5670    0.4260   -6.9350 c1        1 0NN     -0.123375
      3 C2         -4.7200    0.2830   -5.8400 c1        1 0NN     -0.123375
      4 O2          2.2710   -0.3040    3.0040 o         1 0NN     -0.372000
      5 C1         -5.1240    0.7450   -4.5730 c1        1 0NN     -0.103000
      6 O1         -5.3850    1.1770   -2.2350 os        1 0NN     -0.282000
      7 N1         -2.7300   -0.0700   -1.2980 n3        1 0NN     -0.255000
      8 C10        -3.2250    1.4510   -1.3540 c3        1 0NN     -0.067500
      9 C11        -4.9660   -0.3860   -2.5940 c3        1 0NN     -0.152000
     10 C12        -4.1920   -0.7180   -1.3240 c3        1 0NN     -0.067500
     11 C13        -2.1080   -0.3290   -0.0120 c3        1 0NN     -0.064000
     12 C14        -0.6380   -0.7380   -0.2250 c3        1 0NN     -0.184000
     13 C15         0.1390   -0.5820    1.1040 c3        1 0NN     -0.032000
     14 C16         2.5270   -0.3250    1.8120 c1        1 0NN      0.293000
     15 C17         3.8480    0.2050    1.3160 c3        1 0NN     -0.043000
     16 C18         3.8920    1.4640    1.4750 c3        1 0NN     -0.174000
     17 C19         5.3880    1.8360    1.8810 c3        1 0NN     -0.174000
     18 N2          1.5450   -0.8160    0.8700 n2        1 0NN     -0.375000
     19 C20         5.7880    0.9390    2.6540 c3        1 0NN     -0.087000
     20 C21         4.4530   -0.8720    3.4790 c3        1 0NN     -0.052000
     21 C22         5.5590   -1.6030    4.2700 c1        1 0NN     -0.078000
     22 C23         5.6840   -1.3990    5.6410 c1        1 0NN     -0.123375
     23 C24         6.6380   -2.1070    6.3660 c1        1 0NN     -0.123375
     24 C25         7.4670   -3.0190    5.7200 c1        1 0NN     -0.123375
     25 C26         7.3430   -3.2230    4.3500 c1        1 0NN     -0.123375
     26 C27         6.3890   -2.5150    3.6240 c1        1 0NN     -0.109000
     27 N3          5.0230   -0.2800    2.2860 n3        1 0NN     -0.228000
     28 C5         -7.2090    1.4810   -5.5270 c1        1 0NN     -0.123375
     29 C6         -6.3530    1.3370   -4.4190 c1        1 0NN     -0.108000
     30 C7         -6.5190    1.7010   -2.9400 c3        1 0NN      0.015000
     31 C8         -4.4600    0.6740   -3.1980 c3        1 0NN      0.121000
     32 C9         -4.0030    1.7740   -2.6240 c3        1 0NN     -0.152000
     33 H1         -7.4080    1.1250   -7.5530 ha        1 0NN      0.133875
     34 H2         -5.2840    0.1020   -7.8210 ha        1 0NN      0.133875
     35 H3         -3.8410   -0.1410   -5.9510 ha        1 0NN      0.133875
     36 H5         -3.8010    1.6250   -0.5770 h1        1 0NN      0.077750
     37 H6         -2.4400    2.0400   -1.3050 h1        1 0NN      0.077750
     38 H7         -5.9030   -0.2070   -2.3620 hc        1 0NN      0.095750
     39 H8         -4.9260   -1.1560   -3.2060 hc        1 0NN      0.095750
     40 H9         -4.1060   -1.6950   -1.2520 h1        1 0NN      0.077750
     41 H10        -4.6990   -0.3880   -0.5490 h1        1 0NN      0.077750
     42 H11        -2.1450    0.4830    0.5400 h1        1 0NN      0.073000
     43 H12        -2.5880   -1.0570    0.4440 h1        1 0NN      0.073000
     44 H13        -0.5980   -1.6770   -0.5200 hc        1 0NN      0.091000
     45 H14        -0.2340   -0.1620   -0.9110 hc        1 0NN      0.091000
     46 H15        -0.1980   -1.2350    1.7590 h1        1 0NN      0.101500
     47 H16         0.0110    0.3280    1.4530 h1        1 0NN      0.101500
     48 H17         3.8540   -0.1360    0.3920 h1        1 0NN      0.104000
     49 H18         3.6490    1.9180    0.6340 hc        1 0NN      0.102500
     50 H19         3.2740    1.7330    2.1920 hc        1 0NN      0.102500
     51 H20         5.9580    1.8660    1.0770 hc        1 0NN      0.089000
     52 H21         5.4060    2.7080    2.3380 hc        1 0NN      0.089000
     53 H22         1.8140   -1.2880    0.1300 hn        1 0NN      0.225000
     54 H23         6.7530    0.7860    2.5280 h1        1 0NN      0.093500
     55 H24         5.6020    1.1880    3.5870 h1        1 0NN      0.093500
     56 H25         3.7550   -1.5130    3.2240 h1        1 0NN      0.094000
     57 H26         4.0600   -0.1660    4.0400 h1        1 0NN      0.094000
     58 H27         5.1000   -0.7560    6.0960 ha        1 0NN      0.133875
     59 H28         6.7260   -1.9630    7.3330 ha        1 0NN      0.133875
     60 H29         8.1400   -3.5190    6.2320 ha        1 0NN      0.133875
     61 H30         7.9270   -3.8670    3.8940 ha        1 0NN      0.133875
     62 H31         6.3010   -2.6590    2.6590 ha        1 0NN      0.140000
     63 H33        -8.0890    1.9050   -5.4160 ha        1 0NN      0.133875
     64 H34        -6.5150    2.6810   -2.8550 h1        1 0NN      0.098000
     65 H35        -7.3300    1.2610   -2.5980 h1        1 0NN      0.098000
     66 H36        -3.4100    2.2440   -3.2550 hc        1 0NN      0.095750
     67 H37        -4.7600    2.3580   -2.3980 hc        1 0NN      0.095750
@<TRIPOS>BOND
     1    1   28 1   
     2    1   33 1   
     3    2    3 1   
     4    2   34 1   
     5    3   35 1   
     6    4   14 1   
     7    5   29 1   
     8    5   31 1   
     9    6   30 1   
    10    6   31 1   
    11    7    8 1   
    12    7   10 1   
    13    7   11 1   
    14    8   32 1   
    15    8   36 1   
    16    8   37 1   
    17    9   10 1   
    18    9   31 1   
    19    9   38 1   
    20    9   39 1   
    21   10   40 1   
    22   10   41 1   
    23   11   12 1   
    24   11   42 1   
    25   11   43 1   
    26   12   13 1   
    27   12   44 1   
    28   12   45 1   
    29   13   18 1   
    30   13   46 1   
    31   13   47 1   
    32   14   15 1   
    33   15   16 1   
    34   15   27 1   
    35   15   48 1   
    36   16   17 1   
    37   16   49 1   
    38   16   50 1   
    39   17   19 1   
    40   17   51 1   
    41   17   52 1   
    42   18   53 1   
    43   19   27 1   
    44   19   54 1   
    45   19   55 1   
    46   20   21 1   
    47   20   27 1   
    48   20   56 1   
    49   20   57 1   
    50   21   26 1   
    51   22   23 1   
    52   22   58 1   
    53   23   59 1   
    54   24   25 1   
    55   24   60 1   
    56   25   61 1   
    57   26   62 1   
    58   28   63 1   
    59   29   30 1   
    60   30   64 1   
    61   30   65 1   
    62   31   32 1   
    63   32   66 1   
    64   32   67 1   
@<TRIPOS>SUBSTRUCTURE
     1 0NN         1 TEMP              0 ****  ****    0 ROOT
