@<TRIPOS>MOLECULE
0NP
   30    27     1     0     0
SMALL
bcc


@<TRIPOS>ATOM
      1 C2          0.1960   -2.9120    1.0400 c2        1 0NP      0.351000
      2 O2          0.2610   -2.1660    0.0500 o         1 0NP     -0.377000
      3 C6          1.0730    1.7090    0.6810 c1        1 0NP     -0.180000
      4 N19         1.1050   -3.6060   -3.5530 n2        1 0NP     -0.358000
      5 N18         1.1490   -4.2570   -2.4940 n2        1 0NP      0.233000
      6 C3'         1.9170   -0.1990   -3.5930 c3        1 0NP     -0.228000
      7 C4'         1.7820    1.3130   -3.4950 c3        1 0NP     -0.023000
      8 C5'         2.1590    3.7440   -6.7040 c2        1 0NP      0.168000
      9 O5'         2.0330    2.9710   -5.7540 o         1 0NP     -0.343000
     10 O4'         1.5180    1.6530   -2.0850 os        1 0NP     -0.150000
     11 C2'         1.5400   -0.7620   -2.2080 c3        1 0NP      0.098000
     12 F2'         2.4780   -1.6160   -1.6850 f         1 0NP     -0.113000
     13 C1'         1.4050    0.5270   -1.3550 c2        1 0NP      0.223000
     14 N1          1.1930    0.5690   -0.0450 n3        1 0NP     -0.038000
     15 N3          0.6530   -2.4320    2.2560 n2        1 0NP     -0.410000
     16 C5          0.9690    2.7020    1.3430 c1        1 0NP     -0.023000
     17 C4          0.7450   -2.9220    3.4000 c1        1 0NP      0.400000
     18 O4          0.9340   -3.1540    4.5510 o         1 0NP     -0.110000
     19 H1          1.0790   -0.3170    0.4530 hn        1 0NP      0.335000
     20 H2          1.1490   -4.1760   -4.3860 hn        1 0NP      0.196000
     21 H3          2.9630   -0.4950   -3.8620 hc        1 0NP      0.152000
     22 H4          0.9100    1.7300   -4.0640 h1        1 0NP      0.163500
     23 H5          2.7170    1.8750   -3.7550 h1        1 0NP      0.163500
     24 H6          1.2950    4.0500   -7.3300 h4        1 0NP      0.088000
     25 H7          3.1440    4.1740   -6.9840 h4        1 0NP      0.088000
     26 H8          1.2310   -0.6170   -4.3720 hc        1 0NP      0.152000
     27 H9          0.5320   -1.2770   -2.2170 h1        1 0NP      0.181000
     28 H10        -0.2140   -3.9490    0.9910 h5        1 0NP      0.161000
     29 H11         0.8750    3.5810    1.9380 ha        1 0NP      0.270000
     30 N3'         1.1720   -4.6620   -1.4330 n1        1 0NP     -0.071000
@<TRIPOS>BOND
     1    1    2 1   
     2    1   15 1   
     3    1   28 1   
     4    3   14 1   
     5    3   16 1   
     6    4    5 1   
     7    4   20 1   
     8    5   30 1   
     9    6    7 1   
    10    6   11 1   
    11    6   21 1   
    12    6   26 1   
    13    7   10 1   
    14    7   22 1   
    15    7   23 1   
    16    8    9 1   
    17    8   24 1   
    18    8   25 1   
    19   10   13 1   
    20   11   12 1   
    21   11   13 1   
    22   11   27 1   
    23   13   14 1   
    24   14   19 1   
    25   15   17 1   
    26   16   29 1   
    27   17   18 1   
@<TRIPOS>SUBSTRUCTURE
     1 0NP         1 TEMP              0 ****  ****    0 ROOT
