@<TRIPOS>MOLECULE
0NP
   30    26     1     0     0
SMALL
bcc


@<TRIPOS>ATOM
      1 C2         -1.9690    1.2850    0.4490 c1        1 0NP      0.380000
      2 O2         -2.5840    1.3640   -0.5940 o         1 0NP     -0.351000
      3 C6          0.2210    1.1580    1.6550 c1        1 0NP     -0.108500
      4 N19         3.2480   -2.1760    0.1150 n1        1 0NP      0.087000
      5 N18         3.3130   -1.9850   -1.1210 n2        1 0NP      0.203000
      6 N3'         2.4600   -1.2720   -1.6880 n1        1 0NP      0.087000
      7 C3'         1.3890   -0.6620   -0.9120 c2        1 0NP     -0.132000
      8 C4'         0.0400   -0.5860   -1.8090 c3        1 0NP      0.030000
      9 C5'        -0.9230   -1.4520   -1.3020 c3        1 0NP     -0.039000
     10 O5'        -0.8280   -2.6970   -1.9580 oh        1 0NP     -0.358000
     11 O4'        -0.4420    0.8160   -1.7360 os        1 0NP     -0.252000
     12 C2'         1.6350    0.5510   -0.7360 c3        1 0NP      0.040000
     13 F2'         2.5080    1.0160   -1.7480 f         1 0NP     -0.150000
     14 C1'         0.2100    1.3440   -0.8240 c3        1 0NP      0.147000
     15 N1         -0.5040    1.2190    0.4320 n1        1 0NP     -0.289000
     16 N3         -2.6880    1.3060    1.7250 n3        1 0NP     -0.351000
     17 C5         -0.4990    1.1810    2.9360 c1        1 0NP     -0.108500
     18 C4         -1.9690    1.2460    2.9500 c1        1 0NP      0.380000
     19 O4         -2.5640    1.3120    4.0080 o         1 0NP     -0.351000
     20 H1          1.1860    1.1150    1.6440 ha        1 0NP      0.188500
     21 H2          2.5760   -1.7940    0.6020 DU        1 0NP      0.281000
     22 H3          1.3750   -1.2370   -0.1240 ha        1 0NP      0.257000
     23 H4          0.2430   -0.8190   -2.7350 h1        1 0NP      0.124000
     24 H5         -1.8140   -1.0710   -1.4500 h1        1 0NP      0.114000
     25 H6         -0.7760   -1.5770   -0.3400 h1        1 0NP      0.114000
     26 H7         -1.6440   -3.0370   -2.0700 ho        1 0NP      0.241000
     27 H8          2.0390    0.6850    0.1420 h1        1 0NP      0.182000
     28 H9          0.3630    2.2800   -1.0260 h2        1 0NP      0.167000
     29 H10        -3.6060    1.3470    1.7340 hn        1 0NP      0.280000
     30 H11         0.0000    1.1390    3.7820 ha        1 0NP      0.188500
@<TRIPOS>BOND
     1    1    2 1   
     2    1   16 1   
     3    3   17 1   
     4    3   20 1   
     5    4    5 1   
     6    5    6 1   
     7    7    8 1   
     8    7   12 1   
     9    7   22 1   
    10    8    9 1   
    11    8   11 1   
    12    8   23 1   
    13    9   10 1   
    14    9   24 1   
    15    9   25 1   
    16   10   26 1   
    17   11   14 1   
    18   12   13 1   
    19   12   14 1   
    20   12   27 1   
    21   14   15 1   
    22   14   28 1   
    23   16   18 1   
    24   16   29 1   
    25   17   30 1   
    26   18   19 1   
@<TRIPOS>SUBSTRUCTURE
     1 0NP         1 TEMP              0 ****  ****    0 ROOT
