@<TRIPOS>MOLECULE
0NP
   30    28     1     0     0
SMALL
bcc


@<TRIPOS>ATOM
      1 C2          0.1740   -0.0040    1.0100 c2        1 0NP      0.401000
      2 O2         -0.1390   -1.1800    0.7880 o         1 0NP     -0.250000
      3 C6          2.4120    0.9890    1.4750 c2        1 0NP     -0.478000
      4 N19         4.8010   -2.4000   -6.6920 n2        1 0NP     -0.287000
      5 N18         3.8870   -1.7080   -6.2310 n2        1 0NP      0.252000
      6 C3'         0.3230   -1.2110   -3.6330 c3        1 0NP     -0.197000
      7 C4'         1.4770   -0.5150   -2.9360 c3        1 0NP     -0.039000
      8 C5'         1.6970    0.9120   -3.4070 c2        1 0NP      0.186000
      9 O5'         1.9010    1.7890   -2.5650 o         1 0NP     -0.296000
     10 O4'         1.0900   -0.4790   -1.5170 os        1 0NP     -0.160000
     11 C2'         0.4670   -2.7330   -3.5880 c3        1 0NP      0.003000
     12 F2'         1.6310   -3.1570   -4.1980 f         1 0NP     -0.170000
     13 C1'         1.9540    0.1160   -0.6880 c2        1 0NP      0.291000
     14 N1          1.5200    0.4130    0.5440 n         1 0NP     -0.144000
     15 N3         -0.6380    0.9060    1.6550 n         1 0NP     -0.369000
     16 C5          2.9380    0.5480    2.6220 c1        1 0NP      0.427000
     17 C4         -0.4490    2.2950    1.7970 c2        1 0NP      0.268000
     18 O4         -1.3020    2.9430    2.3970 o         1 0NP     -0.231000
     19 H1          2.7580    2.0300    1.2160 h4        1 0NP      0.225000
     20 H2          4.5310   -3.0210   -7.4420 hn        1 0NP      0.205000
     21 H3         -0.4110   -3.1960   -4.1200 h1        1 0NP      0.112000
     22 H4          0.3080   -0.8680   -4.7030 hc        1 0NP      0.139000
     23 H5          2.4300   -1.1100   -3.0270 h1        1 0NP      0.170000
     24 H6          1.6790    1.0830   -4.5030 h4        1 0NP      0.182000
     25 H7          2.9930    0.3710   -1.0040 h5        1 0NP      0.235000
     26 H8         -0.6500   -0.9290   -3.1520 hc        1 0NP      0.139000
     27 H9          0.4720   -3.0840   -2.5180 h1        1 0NP      0.112000
     28 H10        -1.4890    0.5100    2.0240 hn        1 0NP      0.289000
     29 H11         0.4720    2.7180    1.3440 h5        1 0NP      0.154000
     30 N3'         3.2120   -0.9860   -5.6630 n1        1 0NP     -0.169000
@<TRIPOS>BOND
     1    1    2 1   
     2    1   14 1   
     3    1   15 1   
     4    3   14 1   
     5    3   16 1   
     6    3   19 1   
     7    4    5 1   
     8    4   20 1   
     9    5   30 1   
    10    6    7 1   
    11    6   11 1   
    12    6   22 1   
    13    6   26 1   
    14    7    8 1   
    15    7   10 1   
    16    7   23 1   
    17    8    9 1   
    18    8   24 1   
    19   10   13 1   
    20   11   12 1   
    21   11   21 1   
    22   11   27 1   
    23   13   14 1   
    24   13   25 1   
    25   15   17 1   
    26   15   28 1   
    27   17   18 1   
    28   17   29 1   
@<TRIPOS>SUBSTRUCTURE
     1 0NP         1 TEMP              0 ****  ****    0 ROOT
