@<TRIPOS>MOLECULE
0NP
   30    29     1     0     0
SMALL
bcc


@<TRIPOS>ATOM
      1 C2          0.2820    0.3790   -0.5490 c2        1 0NP      0.423000
      2 O2         -0.1810    0.7470   -1.7800 os        1 0NP     -0.277000
      3 C6          2.1740   -0.3040    0.8220 c2        1 0NP     -0.446000
      4 N19         2.2520   -4.1810   -3.1710 n2        1 0NP     -0.391000
      5 N18         3.0490   -4.3010   -4.1240 n2        1 0NP      0.216000
      6 C3'         1.4010    0.3240   -4.2730 c3        1 0NP     -0.264000
      7 C4'         1.7220    1.3650   -3.2280 c3        1 0NP     -0.030000
      8 C5'         0.4880    1.8700   -2.4710 c3        1 0NP      0.152000
      9 O5'        -0.5640    2.3160   -3.2410 oh        1 0NP     -0.252000
     10 O4'         2.6980    0.9260   -2.2700 os        1 0NP     -0.169000
     11 C2'         2.9840   -1.4290   -1.9210 c2        1 0NP      0.131000
     12 F2'         3.7630   -1.5410   -2.9990 f         1 0NP     -0.049000
     13 C1'         2.3940   -0.2390   -1.5940 c2        1 0NP     -0.045000
     14 N1          1.5580   -0.0970   -0.4300 n3        1 0NP     -0.117000
     15 N3         -0.6840    0.4770    0.4060 ns        1 0NP     -0.318000
     16 C5          2.5400   -1.4060    1.4780 c1        1 0NP      0.373000
     17 C4         -0.6880   -0.0330    1.7400 c2        1 0NP      0.264000
     18 O4         -1.6960    0.1590    2.4060 o         1 0NP     -0.196000
     19 H1          2.5280    0.6370    1.3350 h4        1 0NP      0.225000
     20 H2          1.6770   -4.9990   -3.0280 hn        1 0NP      0.187000
     21 H3          2.3420   -0.1890   -4.5950 hc        1 0NP      0.113333
     22 H4          0.9430    0.8120   -5.1680 hc        1 0NP      0.113333
     23 H5          2.2400    2.2580   -3.6940 h1        1 0NP      0.176000
     24 H6          0.7310    2.6790   -1.7260 h2        1 0NP      0.161000
     25 H7         -0.7470    1.6720   -3.9460 ho        1 0NP      0.246000
     26 H8          0.6940   -0.4420   -3.8730 hc        1 0NP      0.113333
     27 H9          2.8710   -2.3580   -1.3300 h4        1 0NP      0.194000
     28 H10        -1.5510    0.8940    0.0880 hn        1 0NP      0.294000
     29 H11         0.2290   -0.5670    2.0670 h5        1 0NP      0.185000
     30 N3'         3.8290   -4.2230   -4.9440 n1        1 0NP     -0.012000
@<TRIPOS>BOND
     1    1    2 1   
     2    1   14 1   
     3    1   15 1   
     4    2    8 1   
     5    3   14 1   
     6    3   16 1   
     7    3   19 1   
     8    4    5 1   
     9    4   20 1   
    10    5   30 1   
    11    6    7 1   
    12    6   21 1   
    13    6   22 1   
    14    6   26 1   
    15    7    8 1   
    16    7   10 1   
    17    7   23 1   
    18    8    9 1   
    19    8   24 1   
    20    9   25 1   
    21   10   13 1   
    22   11   12 1   
    23   11   13 1   
    24   11   27 1   
    25   13   14 1   
    26   15   17 1   
    27   15   28 1   
    28   17   18 1   
    29   17   29 1   
@<TRIPOS>SUBSTRUCTURE
     1 0NP         1 TEMP              0 ****  ****    0 ROOT
