@<TRIPOS>MOLECULE
0NP
   30    31     1     0     0
SMALL
bcc


@<TRIPOS>ATOM
      1 C2         -1.5680   -0.2100    0.8040 c         1 0NP      0.822500
      2 O2         -0.6580   -0.2010    1.6710 o         1 0NP     -0.711500
      3 C6         -2.2970    0.1440   -1.4920 cc        1 0NP      0.027600
      4 N19         4.7750    2.3380    0.0490 n2        1 0NP     -0.183400
      5 N18         4.0000    1.4900    0.3850 n1        1 0NP      0.202000
      6 C3'         1.8860    0.3820    0.6980 c3        1 0NP      0.033500
      7 C4'         1.8470   -0.8460   -0.2500 c3        1 0NP      0.099100
      8 C5'         1.5330   -2.1390    0.5190 c3        1 0NP      0.121400
      9 O5'         1.8200   -3.2470   -0.2940 oh        1 0NP     -0.569800
     10 O4'         0.8430   -0.6000   -1.2330 os        1 0NP     -0.404600
     11 C2'         0.8790    1.4170    0.0910 c3        1 0NP      0.141600
     12 F2'         1.5010    2.4620   -0.5590 f         1 0NP     -0.219300
     13 C1'         0.0540    0.5640   -0.9430 c3        1 0NP      0.295500
     14 N1         -1.2890    0.2350   -0.5210 n         1 0NP     -0.400000
     15 N3         -2.8560   -0.6210    1.1250 n         1 0NP     -0.570500
     16 C5         -3.5510   -0.2650   -1.1910 cd        1 0NP     -0.261200
     17 C4         -3.9060   -0.6740    0.1760 c         1 0NP      0.706700
     18 O4         -5.0220   -1.0540    0.5470 o         1 0NP     -0.543500
     19 H1         -2.0060    0.4440   -2.5170 h4        1 0NP      0.178000
     20 H2          5.6020    2.0670   -0.4940 hn        1 0NP      0.530400
     21 H3          1.4950    0.0760    1.7320 h1        1 0NP      0.209700
     22 H4          2.7980   -0.9880   -0.8390 h1        1 0NP      0.094700
     23 H5          2.2230   -2.2340    1.4010 h1        1 0NP      0.078700
     24 H6          0.4650   -2.1300    0.8650 h1        1 0NP      0.078700
     25 H7          1.1190   -3.3170   -0.9560 ho        1 0NP      0.422000
     26 H8          0.2320    1.8320    0.9180 h1        1 0NP      0.144700
     27 H9         -0.0110    1.1170   -1.9320 h2        1 0NP      0.130700
     28 H10        -3.0280   -0.8920    2.0730 hn        1 0NP      0.367500
     29 H11        -4.3550   -0.3110   -1.9410 ha        1 0NP      0.201000
     30 N3'         3.2240    0.8430    1.0400 n2        1 0NP     -0.024200
@<TRIPOS>BOND
     1    1    2 2   
     2    1   14 1   
     3    1   15 1   
     4    3   14 1   
     5    3   16 2   
     6    3   19 1   
     7    4    5 2   
     8    4   20 1   
     9    5   30 2   
    10    6    7 1   
    11    6   11 1   
    12    6   21 1   
    13    6   30 1   
    14    7    8 1   
    15    7   10 1   
    16    7   22 1   
    17    8    9 1   
    18    8   23 1   
    19    8   24 1   
    20    9   25 1   
    21   10   13 1   
    22   11   12 1   
    23   11   13 1   
    24   11   26 1   
    25   13   14 1   
    26   13   27 1   
    27   15   17 1   
    28   15   28 1   
    29   16   17 1   
    30   16   29 1   
    31   17   18 2   
@<TRIPOS>SUBSTRUCTURE
     1 0NP         1 TEMP              0 ****  ****    0 ROOT
