@<TRIPOS>MOLECULE
0NQ
   73    65     1     0     0
SMALL
bcc


@<TRIPOS>ATOM
      1 O26        -0.7970    1.7020    1.1570 o         1 0NQ     -0.354000
      2 C24         0.2390    1.0670    1.2700 c1        1 0NQ      0.356000
      3 N23         1.1500    1.0570    2.4810 n3        1 0NQ     -0.299000
      4 C31         0.8450    1.6130    3.7840 c3        1 0NQ     -0.040000
      5 C32        -0.1130    2.8220    3.6200 c3        1 0NQ     -0.184000
      6 C33        -0.6840    3.2270    5.0170 c3        1 0NQ     -0.050000
      7 C36         0.4700    3.6480    5.9370 c3        1 0NQ     -0.207333
      8 C35        -1.6640    4.4040    4.8510 c3        1 0NQ     -0.207333
      9 C34        -1.4120    2.0440    5.6280 c3        1 0NQ     -0.207333
     10 C22         2.6360    0.7330    1.9020 c3        1 0NQ      0.028000
     11 C27         3.3930   -0.3170    2.6430 c3        1 0NQ     -0.037000
     12 C30         3.9560    0.2790    3.9460 c3        1 0NQ     -0.212667
     13 C29         2.4380   -1.5060    2.9870 c3        1 0NQ     -0.212667
     14 C28         4.5560   -0.8240    1.7650 c3        1 0NQ     -0.212667
     15 C21         2.2550    0.3840    0.5730 c1        1 0NQ      0.205000
     16 O25         3.2270    0.3080   -0.4400 o         1 0NQ     -0.207000
     17 C1          1.0020    0.6190    0.2640 c1        1 0NQ     -0.342000
     18 C2          0.3550   -0.0970   -0.9380 c1        1 0NQ      0.383000
     19 N5         -0.0100   -1.5010   -0.8310 n1        1 0NQ     -0.969000
     20 P4         -0.6270   -2.2570   -2.0870 p2        1 0NQ      2.800000
     21 O6          0.1300   -3.5130   -2.3510 o         1 0NQ     -1.131000
     22 O7         -2.0680   -2.8510   -1.7250 o         1 0NQ     -0.764000
     23 C19        -2.1870   -4.2630   -1.4920 c3        1 0NQ      0.018000
     24 C20        -3.3350   -4.5230   -0.5180 c3        1 0NQ     -0.235000
     25 C8         -0.7450   -1.2700   -3.5270 c1        1 0NQ     -0.851000
     26 C13        -1.3370   -1.7940   -4.7020 c1        1 0NQ     -0.028000
     27 C12        -1.4730   -0.9910   -5.8320 c1        1 0NQ      0.014000
     28 N14        -2.1300   -1.7130   -6.8890 n2        1 0NQ     -0.834000
     29 S15        -2.6910   -0.9060   -8.2200 s4        1 0NQ      2.041800
     30 C18        -2.8270   -2.0070   -9.5850 c2        1 0NQ     -0.951000
     31 O17        -3.9450   -0.2560   -7.9460 o         1 0NQ     -0.539400
     32 O16        -1.8580    0.2170   -8.5380 o         1 0NQ     -0.539400
     33 C11        -1.0290    0.3220   -5.8080 c2        1 0NQ     -0.077000
     34 C10        -0.4470    0.8400   -4.6530 c1        1 0NQ     -0.172000
     35 C9         -0.3080    0.0210   -3.5000 c1        1 0NQ      0.146000
     36 N3         -0.0770    0.7170   -2.1660 n2        1 0NQ     -0.311000
     37 H1          1.6690    1.9070    4.2130 h1        1 0NQ      0.113500
     38 H2          0.4150    0.9300    4.3360 h1        1 0NQ      0.113500
     39 H3          0.3780    3.5820    3.2350 hc        1 0NQ      0.086000
     40 H4         -0.8540    2.5730    3.0220 hc        1 0NQ      0.086000
     41 H5          0.1080    4.1250    6.7230 hc        1 0NQ      0.076444
     42 H6          0.9540    2.8570    6.2330 hc        1 0NQ      0.076444
     43 H7          1.0810    4.2420    5.4460 hc        1 0NQ      0.076444
     44 H8         -1.1870    5.1770    4.5020 hc        1 0NQ      0.076444
     45 H9         -2.3790    4.1490    4.2260 hc        1 0NQ      0.076444
     46 H10        -2.0580    4.6290    5.7280 hc        1 0NQ      0.076444
     47 H11        -0.7570    1.3820    5.9370 hc        1 0NQ      0.076444
     48 H12        -1.9550    2.3510    6.3930 hc        1 0NQ      0.076444
     49 H13        -1.9950    1.6370    4.9570 hc        1 0NQ      0.076444
     50 H14         3.2410    1.4980    1.9420 h1        1 0NQ      0.126000
     51 H15         4.1400    1.2400    3.8170 hc        1 0NQ      0.084111
     52 H16         4.7890   -0.1850    4.1870 hc        1 0NQ      0.084111
     53 H17         3.3020    0.1670    4.6650 hc        1 0NQ      0.084111
     54 H18         1.7830   -1.2160    3.6580 hc        1 0NQ      0.084111
     55 H19         2.9670   -2.2620    3.3490 hc        1 0NQ      0.084111
     56 H20         1.9670   -1.7960    2.1720 hc        1 0NQ      0.084111
     57 H21         5.2300   -1.2640    2.3330 hc        1 0NQ      0.084111
     58 H22         4.9660   -0.0670    1.3000 hc        1 0NQ      0.084111
     59 H23         4.2120   -1.4690    1.1030 hc        1 0NQ      0.084111
     60 H24         3.3970    1.1230   -0.7480 ho        1 0NQ      0.288000
     61 H25        -1.3500   -4.6030   -1.1100 h1        1 0NQ      0.092500
     62 H26        -2.3680   -4.7180   -2.3370 h1        1 0NQ      0.092500
     63 H27        -3.5280   -5.4850   -0.4890 hc        1 0NQ      0.077667
     64 H28        -3.0810   -4.2140    0.3750 hc        1 0NQ      0.077667
     65 H29        -4.1350   -4.0370   -0.8180 hc        1 0NQ      0.077667
     66 H30        -1.6360   -2.7310   -4.7260 ha        1 0NQ      0.161000
     67 H31        -2.2310   -2.6160   -6.8280 hn        1 0NQ      0.257000
     68 H32        -1.9870   -2.4960   -9.6950 ha        1 0NQ      0.158667
     69 H33        -3.0170   -1.4960  -10.4000 ha        1 0NQ      0.158667
     70 H34        -3.5560   -2.6420   -9.4210 ha        1 0NQ      0.158667
     71 H35        -1.1260    0.8930   -6.6130 ha        1 0NQ      0.178000
     72 H36        -0.1310    1.7720   -4.6360 ha        1 0NQ      0.151000
     73 H37        -0.1530    1.6220   -2.1070 hn        1 0NQ      0.287000
@<TRIPOS>BOND
     1    1    2 1   
     2    2    3 1   
     3    3    4 1   
     4    3   10 1   
     5    4    5 1   
     6    4   37 1   
     7    4   38 1   
     8    5    6 1   
     9    5   39 1   
    10    5   40 1   
    11    6    7 1   
    12    6    8 1   
    13    6    9 1   
    14    7   41 1   
    15    7   42 1   
    16    7   43 1   
    17    8   44 1   
    18    8   45 1   
    19    8   46 1   
    20    9   47 1   
    21    9   48 1   
    22    9   49 1   
    23   10   11 1   
    24   10   15 1   
    25   10   50 1   
    26   11   12 1   
    27   11   13 1   
    28   11   14 1   
    29   12   51 1   
    30   12   52 1   
    31   12   53 1   
    32   13   54 1   
    33   13   55 1   
    34   13   56 1   
    35   14   57 1   
    36   14   58 1   
    37   14   59 1   
    38   15   17 1   
    39   16   60 1   
    40   18   19 1   
    41   20   21 1   
    42   20   25 1   
    43   22   23 1   
    44   23   24 1   
    45   23   61 1   
    46   23   62 1   
    47   24   63 1   
    48   24   64 1   
    49   24   65 1   
    50   25   35 1   
    51   26   27 1   
    52   26   66 1   
    53   27   33 1   
    54   28   29 1   
    55   28   67 1   
    56   29   31 1   
    57   29   32 1   
    58   30   68 1   
    59   30   69 1   
    60   30   70 1   
    61   33   34 1   
    62   33   71 1   
    63   34   72 1   
    64   35   36 1   
    65   36   73 1   
@<TRIPOS>SUBSTRUCTURE
     1 0NQ         1 TEMP              0 ****  ****    0 ROOT
