@<TRIPOS>MOLECULE
0NQ
   73    75     1     0     0
SMALL
bcc


@<TRIPOS>ATOM
      1 O26         2.1820   -1.8750   -1.0370 o         1 0NQ     -0.629500
      2 C24         2.5280   -0.7090   -0.7860 c         1 0NQ      0.717700
      3 N23         3.8520   -0.2210   -0.9640 n         1 0NQ     -0.440800
      4 C31         4.9630   -1.1130   -0.7400 c3        1 0NQ      0.076000
      5 C32         5.2240   -1.5060    0.7160 c3        1 0NQ     -0.105400
      6 C33         6.4820   -2.3570    0.8870 c3        1 0NQ     -0.050000
      7 C36         7.7320   -1.5260    0.6370 c3        1 0NQ     -0.089433
      8 C35         6.5120   -2.8640    2.3260 c3        1 0NQ     -0.089433
      9 C34         6.4660   -3.5500   -0.0550 c3        1 0NQ     -0.089433
     10 C22         3.9330    1.1810   -0.5170 c3        1 0NQ      0.108900
     11 C27         4.4440    2.1790   -1.5910 c3        1 0NQ     -0.037000
     12 C30         5.7240    1.6690   -2.2380 c3        1 0NQ     -0.094767
     13 C29         3.3950    2.3980   -2.6680 c3        1 0NQ     -0.094767
     14 C28         4.7580    3.5030   -0.9040 c3        1 0NQ     -0.094767
     15 C21         2.4880    1.5000   -0.0880 c2        1 0NQ      0.244900
     16 O25         2.2310    2.7080    0.4160 oh        1 0NQ     -0.452100
     17 C1          1.6750    0.4050   -0.2860 ce        1 0NQ     -0.447800
     18 C2          0.2380    0.3360   -0.0310 ce        1 0NQ      0.909500
     19 N5         -0.4150    1.3680    0.4110 nf        1 0NQ     -1.106900
     20 P4         -1.9650    1.4880    0.7110 py        1 0NQ      1.756400
     21 O6         -2.3820    2.1720    1.9390 o         1 0NQ     -0.858300
     22 O7         -2.6380    2.3050   -0.5370 os        1 0NQ     -0.603200
     23 C19        -2.8490    3.6870   -0.3890 c3        1 0NQ      0.168400
     24 C20        -1.9670    4.4670   -1.3430 c3        1 0NQ     -0.117100
     25 C8         -2.5410   -0.0310    0.5030 ca        1 0NQ     -0.461500
     26 C13        -3.8740   -0.2580    0.8330 ca        1 0NQ     -0.028000
     27 C12        -4.4660   -1.5200    0.6650 ca        1 0NQ      0.096600
     28 N14        -5.8110   -1.7290    1.0160 nh        1 0NQ     -0.784500
     29 S15        -6.9060   -2.6230    0.2110 s6        1 0NQ      1.470900
     30 C18        -7.2530   -1.6860   -1.1610 c3        1 0NQ     -0.372300
     31 O17        -6.3530   -3.8420   -0.2250 o         1 0NQ     -0.651800
     32 O16        -8.0680   -2.6960    1.0060 o         1 0NQ     -0.651800
     33 C11        -3.6630   -2.5730    0.1570 ca        1 0NQ     -0.078000
     34 C10        -2.3350   -2.3600   -0.1680 ca        1 0NQ     -0.172000
     35 C9         -1.7450   -1.0840    0.0110 ca        1 0NQ      0.226600
     36 N3         -0.3920   -0.8940   -0.2840 nh        1 0NQ     -0.749600
     37 H1          4.7410   -2.0480   -1.3340 h1        1 0NQ      0.074200
     38 H2          5.8850   -0.6280   -1.1660 h1        1 0NQ      0.074200
     39 H3          5.3290   -0.5890    1.3530 hc        1 0NQ      0.046700
     40 H4          4.3420   -2.0860    1.0980 hc        1 0NQ      0.046700
     41 H5          7.7500   -0.6370    1.3120 hc        1 0NQ      0.037144
     42 H6          8.6440   -2.1400    0.8340 hc        1 0NQ      0.037144
     43 H7          7.7710   -1.1730   -0.4210 hc        1 0NQ      0.037144
     44 H8          5.6310   -3.5200    2.5240 hc        1 0NQ      0.037144
     45 H9          7.4430   -3.4530    2.5080 hc        1 0NQ      0.037144
     46 H10         6.4880   -2.0060    3.0400 hc        1 0NQ      0.037144
     47 H11         6.6090   -3.2200   -1.1120 hc        1 0NQ      0.037144
     48 H12         7.2920   -4.2550    0.2060 hc        1 0NQ      0.037144
     49 H13         5.4950   -4.0940    0.0230 hc        1 0NQ      0.037144
     50 H14         4.6070    1.2670    0.3860 h1        1 0NQ      0.086700
     51 H15         5.5260    0.7670   -2.8650 hc        1 0NQ      0.044700
     52 H16         6.1470    2.4640   -2.9000 hc        1 0NQ      0.044700
     53 H17         6.4840    1.4200   -1.4600 hc        1 0NQ      0.044700
     54 H18         2.4700    2.8450   -2.2280 hc        1 0NQ      0.044700
     55 H19         3.7900    3.0990   -3.4430 hc        1 0NQ      0.044700
     56 H20         3.1310    1.4340   -3.1650 hc        1 0NQ      0.044700
     57 H21         5.5420    3.3620   -0.1210 hc        1 0NQ      0.044700
     58 H22         5.1380    4.2340   -1.6580 hc        1 0NQ      0.044700
     59 H23         3.8470    3.9360   -0.4260 hc        1 0NQ      0.044700
     60 H24         1.2800    2.7830    0.6410 ho        1 0NQ      0.489000
     61 H25        -3.9300    3.8800   -0.6420 h1        1 0NQ      0.052700
     62 H26        -2.6660    3.9920    0.6800 h1        1 0NQ      0.052700
     63 H27        -2.2580    5.5440   -1.3170 hc        1 0NQ      0.038367
     64 H28        -0.8910    4.3800   -1.0610 hc        1 0NQ      0.038367
     65 H29        -2.0890    4.0810   -2.3830 hc        1 0NQ      0.038367
     66 H30        -4.4410    0.5950    1.2500 ha        1 0NQ      0.162000
     67 H31        -6.0810   -1.2290    1.8350 hn        1 0NQ      0.463800
     68 H32        -6.3530   -1.3870   -1.7510 h1        1 0NQ      0.119033
     69 H33        -7.9070   -2.2600   -1.8680 h1        1 0NQ      0.119033
     70 H34        -7.8050   -0.7440   -0.9230 h1        1 0NQ      0.119033
     71 H35        -4.0950   -3.5810    0.0110 ha        1 0NQ      0.178000
     72 H36        -1.7380   -3.1990   -0.5600 ha        1 0NQ      0.151000
     73 H37         0.1410   -1.6680   -0.6290 hn        1 0NQ      0.491800
@<TRIPOS>BOND
     1    1    2 2   
     2    2    3 1   
     3    2   17 1   
     4    3    4 1   
     5    3   10 1   
     6    4    5 1   
     7    4   37 1   
     8    4   38 1   
     9    5    6 1   
    10    5   39 1   
    11    5   40 1   
    12    6    7 1   
    13    6    8 1   
    14    6    9 1   
    15    7   41 1   
    16    7   42 1   
    17    7   43 1   
    18    8   44 1   
    19    8   45 1   
    20    8   46 1   
    21    9   47 1   
    22    9   48 1   
    23    9   49 1   
    24   10   11 1   
    25   10   15 1   
    26   10   50 1   
    27   11   12 1   
    28   11   13 1   
    29   11   14 1   
    30   12   51 1   
    31   12   52 1   
    32   12   53 1   
    33   13   54 1   
    34   13   55 1   
    35   13   56 1   
    36   14   57 1   
    37   14   58 1   
    38   14   59 1   
    39   15   16 1   
    40   15   17 2   
    41   16   60 1   
    42   17   18 1   
    43   18   19 2   
    44   18   36 1   
    45   19   20 1   
    46   20   21 2   
    47   20   22 1   
    48   20   25 1   
    49   22   23 1   
    50   23   24 1   
    51   23   61 1   
    52   23   62 1   
    53   24   63 1   
    54   24   64 1   
    55   24   65 1   
    56   25   26 ar  
    57   25   35 ar  
    58   26   27 ar  
    59   26   66 1   
    60   27   28 1   
    61   27   33 ar  
    62   28   29 1   
    63   28   67 1   
    64   29   30 1   
    65   29   31 2   
    66   29   32 2   
    67   30   68 1   
    68   30   69 1   
    69   30   70 1   
    70   33   34 ar  
    71   33   71 1   
    72   34   35 ar  
    73   34   72 1   
    74   35   36 1   
    75   36   73 1   
@<TRIPOS>SUBSTRUCTURE
     1 0NQ         1 TEMP              0 ****  ****    0 ROOT
