@<TRIPOS>MOLECULE
0NQ
   74    76     1     0     0
SMALL
bcc


@<TRIPOS>ATOM
      1 O26        -0.2120   -1.0380    0.2880 o         1 0NQ     -0.640500
      2 C24         0.9970   -0.7850    0.1490 c         1 0NQ      0.722700
      3 N23         1.9270   -0.7150    1.2110 n         1 0NQ     -0.433800
      4 C31         1.4930   -0.2610    2.5120 c3        1 0NQ      0.075000
      5 C32         1.2100    1.2370    2.6340 c3        1 0NQ     -0.103400
      6 C33         0.9020    1.6650    4.0700 c3        1 0NQ     -0.050000
      7 C36         2.1570    1.6070    4.9280 c3        1 0NQ     -0.090433
      8 C35         0.4030    3.1070    4.0300 c3        1 0NQ     -0.090433
      9 C34        -0.1770    0.7860    4.6820 c3        1 0NQ     -0.090433
     10 C22         3.2580   -0.3450    0.6990 c3        1 0NQ      0.109900
     11 C27         4.3950   -1.3520    1.0250 c3        1 0NQ     -0.038000
     12 C30         4.3920   -1.7090    2.5050 c3        1 0NQ     -0.097433
     13 C29         4.2430   -2.6240    0.2070 c3        1 0NQ     -0.097433
     14 C28         5.7290   -0.6880    0.7020 c3        1 0NQ     -0.097433
     15 C21         3.0300   -0.2310   -0.8230 c2        1 0NQ      0.271900
     16 O25         4.0510    0.1500   -1.5850 oh        1 0NQ     -0.431100
     17 C1          1.7170   -0.5340   -1.1340 ce        1 0NQ     -0.475800
     18 C2          1.1300   -0.5860   -2.4610 ce        1 0NQ      0.931500
     19 N5          1.8180   -0.3620   -3.5360 nf        1 0NQ     -1.098900
     20 P4          1.3600   -0.4100   -5.0420 py        1 0NQ      1.750400
     21 O6          1.7540    0.6350   -5.9860 o         1 0NQ     -0.844300
     22 O7          1.8170   -1.8370   -5.6840 os        1 0NQ     -0.614200
     23 C19         3.0540   -1.8910   -6.3620 c3        1 0NQ      0.166400
     24 C20         4.0450   -2.7460   -5.6040 c3        1 0NQ     -0.121100
     25 C8         -0.2790   -0.6180   -4.9450 ca        1 0NQ     -0.467500
     26 C13        -0.9910   -0.5110   -6.1300 ca        1 0NQ      0.038000
     27 C12        -2.3700   -0.7440   -6.1550 ca        1 0NQ     -0.167400
     28 N14        -3.1190   -0.6430   -7.3940 n4        1 0NQ     -0.558300
     29 S15        -3.6190   -2.3330   -8.0720 s6        1 0NQ      1.410900
     30 C18        -2.2050   -3.1560   -7.9920 c3        1 0NQ     -0.464300
     31 O17        -4.5730   -2.7390   -7.1630 o         1 0NQ     -0.564300
     32 O16        -3.9660   -1.9800   -9.3610 o         1 0NQ     -0.564300
     33 C11        -3.0490   -1.0320   -4.9390 ca        1 0NQ     -0.031000
     34 C10        -2.3550   -1.1020   -3.7540 ca        1 0NQ     -0.175000
     35 C9         -0.9420   -0.8760   -3.7230 ca        1 0NQ      0.303600
     36 N3         -0.2600   -0.8940   -2.5250 nh        1 0NQ     -0.738600
     37 H1          0.5470   -0.8320    2.7460 h1        1 0NQ      0.080700
     38 H2          2.2820   -0.5560    3.2590 h1        1 0NQ      0.080700
     39 H3          2.0890    1.8310    2.2700 hc        1 0NQ      0.044700
     40 H4          0.3330    1.4960    1.9840 hc        1 0NQ      0.044700
     41 H5          2.9600    2.2460    4.4890 hc        1 0NQ      0.038922
     42 H6          1.9310    1.9780    5.9570 hc        1 0NQ      0.038922
     43 H7          2.5370    0.5610    5.0110 hc        1 0NQ      0.038922
     44 H8          0.2150    3.4760    5.0670 hc        1 0NQ      0.038922
     45 H9          1.1620    3.7680    3.5490 hc        1 0NQ      0.038922
     46 H10        -0.5500    3.1720    3.4520 hc        1 0NQ      0.038922
     47 H11        -1.0560    0.7150    3.9980 hc        1 0NQ      0.038922
     48 H12         0.2140   -0.2420    4.8750 hc        1 0NQ      0.038922
     49 H13        -0.5160    1.2180    5.6540 hc        1 0NQ      0.038922
     50 H14         3.5640    0.6680    1.0980 h1        1 0NQ      0.098700
     51 H15         4.4110   -0.7860    3.1320 hc        1 0NQ      0.047811
     52 H16         3.4970   -2.3210    2.7700 hc        1 0NQ      0.047811
     53 H17         5.3040   -2.3120    2.7420 hc        1 0NQ      0.047811
     54 H18         3.2590   -3.1100    0.4090 hc        1 0NQ      0.047811
     55 H19         4.3210   -2.3990   -0.8850 hc        1 0NQ      0.047811
     56 H20         5.0540   -3.3440    0.4750 hc        1 0NQ      0.047811
     57 H21         5.8630    0.2380    1.3110 hc        1 0NQ      0.047811
     58 H22         6.5620   -1.3920    0.9410 hc        1 0NQ      0.047811
     59 H23         5.7980   -0.4210   -0.3800 hc        1 0NQ      0.047811
     60 H24         3.7880    0.1810   -2.5270 ho        1 0NQ      0.484000
     61 H25         2.8470   -2.3590   -7.3660 h1        1 0NQ      0.055700
     62 H26         3.4420   -0.8460   -6.5210 h1        1 0NQ      0.055700
     63 H27         4.3570   -2.2600   -4.6490 hc        1 0NQ      0.047033
     64 H28         3.5950   -3.7390   -5.3620 hc        1 0NQ      0.047033
     65 H29         4.9520   -2.9030   -6.2360 hc        1 0NQ      0.047033
     66 H30        -0.4150   -0.2300   -7.0350 ha        1 0NQ      0.179000
     67 H31        -2.5690   -0.1160   -8.0760 hn        1 0NQ      0.461300
     68 H32        -1.4980   -2.8910   -7.1540 h1        1 0NQ      0.180033
     69 H33        -2.3640   -4.2670   -7.8440 h1        1 0NQ      0.180033
     70 H34        -1.5770   -3.0890   -8.9260 h1        1 0NQ      0.180033
     71 H35        -4.1400   -1.2130   -4.9390 ha        1 0NQ      0.170000
     72 H36        -2.8970   -1.3260   -2.8190 ha        1 0NQ      0.178000
     73 H37        -0.7610   -1.0800   -1.6720 hn        1 0NQ      0.509800
     74 H142       -3.9620   -0.0920   -7.2110 hn        1 0NQ      0.461300
@<TRIPOS>BOND
     1    1    2 2   
     2    2    3 1   
     3    2   17 1   
     4    3    4 1   
     5    3   10 1   
     6    4    5 1   
     7    4   37 1   
     8    4   38 1   
     9    5    6 1   
    10    5   39 1   
    11    5   40 1   
    12    6    7 1   
    13    6    8 1   
    14    6    9 1   
    15    7   41 1   
    16    7   42 1   
    17    7   43 1   
    18    8   44 1   
    19    8   45 1   
    20    8   46 1   
    21    9   47 1   
    22    9   48 1   
    23    9   49 1   
    24   10   11 1   
    25   10   15 1   
    26   10   50 1   
    27   11   12 1   
    28   11   13 1   
    29   11   14 1   
    30   12   51 1   
    31   12   52 1   
    32   12   53 1   
    33   13   54 1   
    34   13   55 1   
    35   13   56 1   
    36   14   57 1   
    37   14   58 1   
    38   14   59 1   
    39   15   16 1   
    40   15   17 2   
    41   16   60 1   
    42   17   18 1   
    43   18   19 2   
    44   18   36 1   
    45   19   20 1   
    46   20   21 2   
    47   20   22 1   
    48   20   25 1   
    49   22   23 1   
    50   23   24 1   
    51   23   61 1   
    52   23   62 1   
    53   24   63 1   
    54   24   64 1   
    55   24   65 1   
    56   25   26 ar  
    57   25   35 ar  
    58   26   27 ar  
    59   26   66 1   
    60   27   28 1   
    61   27   33 ar  
    62   28   29 1   
    63   28   67 1   
    64   28   74 1   
    65   29   30 1   
    66   29   31 2   
    67   29   32 2   
    68   30   68 1   
    69   30   69 1   
    70   30   70 1   
    71   33   34 ar  
    72   33   71 1   
    73   34   35 ar  
    74   34   72 1   
    75   35   36 1   
    76   36   73 1   
@<TRIPOS>SUBSTRUCTURE
     1 0NQ         1 TEMP              0 ****  ****    0 ROOT
