@<TRIPOS>MOLECULE
0NQ
   73    75     1     0     0
SMALL
bcc


@<TRIPOS>ATOM
      1 O26        -0.1340   -1.1450    0.3520 o         1 0NQ     -0.629500
      2 C24         1.0660   -0.8670    0.1970 c         1 0NQ      0.717700
      3 N23         1.9990   -0.7670    1.2660 n         1 0NQ     -0.440800
      4 C31         1.5500   -0.2710    2.5440 c3        1 0NQ      0.076000
      5 C32         1.2110    1.2190    2.6030 c3        1 0NQ     -0.105400
      6 C33         0.8570    1.6940    4.0120 c3        1 0NQ     -0.050000
      7 C36         2.0890    1.6960    4.9050 c3        1 0NQ     -0.089433
      8 C35         0.3280    3.1220    3.9050 c3        1 0NQ     -0.089433
      9 C34        -0.2190    0.8150    4.6300 c3        1 0NQ     -0.089433
     10 C22         3.3180   -0.3650    0.7440 c3        1 0NQ      0.108900
     11 C27         4.4790   -1.3370    1.0880 c3        1 0NQ     -0.037000
     12 C30         4.4850   -1.6680    2.5730 c3        1 0NQ     -0.094767
     13 C29         4.3600   -2.6270    0.2920 c3        1 0NQ     -0.094767
     14 C28         5.7970   -0.6470    0.7520 c3        1 0NQ     -0.094767
     15 C21         3.0840   -0.2770   -0.7770 c2        1 0NQ      0.244900
     16 O25         4.0990    0.1130   -1.5500 oh        1 0NQ     -0.452100
     17 C1          1.7820   -0.6080   -1.0830 ce        1 0NQ     -0.447800
     18 C2          1.1970   -0.6730   -2.4210 ce        1 0NQ      0.909500
     19 N5          1.9090   -0.4240   -3.4770 nf        1 0NQ     -1.106900
     20 P4          1.4580   -0.4760   -4.9940 py        1 0NQ      1.756400
     21 O6          1.8950    0.6040   -5.8840 o         1 0NQ     -0.858300
     22 O7          2.0370   -1.8710   -5.6240 os        1 0NQ     -0.603200
     23 C19         3.2470   -1.8240   -6.3390 c3        1 0NQ      0.168400
     24 C20         4.3300   -2.5900   -5.6070 c3        1 0NQ     -0.117100
     25 C8         -0.1550   -0.7490   -4.9310 ca        1 0NQ     -0.461500
     26 C13        -0.8550   -0.7110   -6.1340 ca        1 0NQ     -0.028000
     27 C12        -2.2360   -0.9580   -6.1870 ca        1 0NQ      0.096600
     28 N14        -2.9250   -0.9030   -7.4120 nu        1 0NQ     -0.784500
     29 S15        -4.1120   -1.8950   -7.9130 s6        1 0NQ      1.470900
     30 C18        -3.3000   -3.3440   -8.2620 c3        1 0NQ     -0.372300
     31 O17        -5.0350   -2.1520   -6.8820 o         1 0NQ     -0.651800
     32 O16        -4.6280   -1.3720   -9.1170 o         1 0NQ     -0.651800
     33 C11        -2.9120   -1.2380   -4.9720 ca        1 0NQ     -0.078000
     34 C10        -2.2280   -1.2710   -3.7700 ca        1 0NQ     -0.172000
     35 C9         -0.8350   -1.0150   -3.7270 ca        1 0NQ      0.226600
     36 N3         -0.1640   -1.0120   -2.5000 nu        1 0NQ     -0.748600
     37 H1          0.6250   -0.8650    2.8050 h1        1 0NQ      0.074200
     38 H2          2.3490   -0.5030    3.3030 h1        1 0NQ      0.074200
     39 H3          2.0760    1.8290    2.2310 hc        1 0NQ      0.046700
     40 H4          0.3390    1.4190    1.9250 hc        1 0NQ      0.046700
     41 H5          1.8310    2.1110    5.9090 hc        1 0NQ      0.037144
     42 H6          2.4820    0.6610    5.0450 hc        1 0NQ      0.037144
     43 H7          2.8940    2.3260    4.4570 hc        1 0NQ      0.037144
     44 H8          0.1020    3.5260    4.9210 hc        1 0NQ      0.037144
     45 H9          1.0870    3.7810    3.4210 hc        1 0NQ      0.037144
     46 H10        -0.6070    3.1440    3.2960 hc        1 0NQ      0.037144
     47 H11        -0.5950    1.2770    5.5740 hc        1 0NQ      0.037144
     48 H12        -1.0760    0.6970    3.9240 hc        1 0NQ      0.037144
     49 H13         0.1890   -0.1950    4.8730 hc        1 0NQ      0.037144
     50 H14         3.5970    0.6600    1.1290 h1        1 0NQ      0.086700
     51 H15         4.4870   -0.7330    3.1830 hc        1 0NQ      0.044700
     52 H16         3.6000   -2.2890    2.8510 hc        1 0NQ      0.044700
     53 H17         5.4070   -2.2500    2.8210 hc        1 0NQ      0.044700
     54 H18         4.4290   -2.4170   -0.8040 hc        1 0NQ      0.044700
     55 H19         3.3880   -3.1330    0.5030 hc        1 0NQ      0.044700
     56 H20         5.1890   -3.3210    0.5710 hc        1 0NQ      0.044700
     57 H21         5.9080    0.2930    1.3440 hc        1 0NQ      0.044700
     58 H22         5.8560   -0.3980   -0.3340 hc        1 0NQ      0.044700
     59 H23         6.6470   -1.3260    1.0030 hc        1 0NQ      0.044700
     60 H24         3.8220    0.1210   -2.4900 ho        1 0NQ      0.489000
     61 H25         3.0540   -2.3160   -7.3350 h1        1 0NQ      0.052700
     62 H26         3.5490   -0.7540   -6.5140 h1        1 0NQ      0.052700
     63 H27         3.9730   -3.6160   -5.3530 hc        1 0NQ      0.038367
     64 H28         4.6190   -2.0760   -4.6600 hc        1 0NQ      0.038367
     65 H29         5.2320   -2.6680   -6.2600 hc        1 0NQ      0.038367
     66 H30        -0.2790   -0.4610   -7.0440 ha        1 0NQ      0.162000
     67 H31        -2.5890   -0.1830   -8.0140 hn        1 0NQ      0.463800
     68 H32        -2.6750   -3.7330   -7.4220 h1        1 0NQ      0.119033
     69 H33        -4.0370   -4.1550   -8.4980 h1        1 0NQ      0.119033
     70 H34        -2.6270   -3.2690   -9.1510 h1        1 0NQ      0.119033
     71 H35        -4.0010   -1.4380   -4.9740 ha        1 0NQ      0.178000
     72 H36        -2.7830   -1.4910   -2.8440 ha        1 0NQ      0.151000
     73 H37        -0.6830   -1.2020   -1.6650 hn        1 0NQ      0.491800
@<TRIPOS>BOND
     1    1    2 2   
     2    2    3 1   
     3    2   17 1   
     4    3    4 1   
     5    3   10 1   
     6    4    5 1   
     7    4   37 1   
     8    4   38 1   
     9    5    6 1   
    10    5   39 1   
    11    5   40 1   
    12    6    7 1   
    13    6    8 1   
    14    6    9 1   
    15    7   41 1   
    16    7   42 1   
    17    7   43 1   
    18    8   44 1   
    19    8   45 1   
    20    8   46 1   
    21    9   47 1   
    22    9   48 1   
    23    9   49 1   
    24   10   11 1   
    25   10   15 1   
    26   10   50 1   
    27   11   12 1   
    28   11   13 1   
    29   11   14 1   
    30   12   51 1   
    31   12   52 1   
    32   12   53 1   
    33   13   54 1   
    34   13   55 1   
    35   13   56 1   
    36   14   57 1   
    37   14   58 1   
    38   14   59 1   
    39   15   16 1   
    40   15   17 2   
    41   16   60 1   
    42   17   18 1   
    43   18   19 2   
    44   18   36 1   
    45   19   20 1   
    46   20   21 2   
    47   20   22 1   
    48   20   25 1   
    49   22   23 1   
    50   23   24 1   
    51   23   61 1   
    52   23   62 1   
    53   24   63 1   
    54   24   64 1   
    55   24   65 1   
    56   25   26 ar  
    57   25   35 ar  
    58   26   27 ar  
    59   26   66 1   
    60   27   28 1   
    61   27   33 ar  
    62   28   29 1   
    63   28   67 1   
    64   29   30 1   
    65   29   31 2   
    66   29   32 2   
    67   30   68 1   
    68   30   69 1   
    69   30   70 1   
    70   33   34 ar  
    71   33   71 1   
    72   34   35 ar  
    73   34   72 1   
    74   35   36 1   
    75   36   73 1   
@<TRIPOS>SUBSTRUCTURE
     1 0NQ         1 TEMP              0 ****  ****    0 ROOT
