@<TRIPOS>MOLECULE
0NQ
   73    75     1     0     0
SMALL
bcc


@<TRIPOS>ATOM
      1 O26        -0.1230   -1.1450    0.3540 o         1 0NQ     -0.629500
      2 C24         1.0730   -0.8520    0.2010 c         1 0NQ      0.717700
      3 N23         2.0060   -0.7480    1.2690 n         1 0NQ     -0.440800
      4 C31         1.5510   -0.2660    2.5510 c3        1 0NQ      0.076000
      5 C32         1.1920    1.2200    2.6190 c3        1 0NQ     -0.105400
      6 C33         0.8330    1.6820    4.0320 c3        1 0NQ     -0.050000
      7 C36         2.0650    1.6950    4.9230 c3        1 0NQ     -0.089433
      8 C35         0.2850    3.1030    3.9340 c3        1 0NQ     -0.089433
      9 C34        -0.2310    0.7850    4.6450 c3        1 0NQ     -0.089433
     10 C22         3.3190   -0.3260    0.7500 c3        1 0NQ      0.108900
     11 C27         4.4920   -1.2860    1.0870 c3        1 0NQ     -0.037000
     12 C30         4.5030   -1.6260    2.5700 c3        1 0NQ     -0.094767
     13 C29         4.3880   -2.5710    0.2830 c3        1 0NQ     -0.094767
     14 C28         5.8010   -0.5770    0.7550 c3        1 0NQ     -0.094767
     15 C21         3.0830   -0.2310   -0.7710 c2        1 0NQ      0.244900
     16 O25         4.0930    0.1760   -1.5420 oh        1 0NQ     -0.452100
     17 C1          1.7850   -0.5760   -1.0780 ce        1 0NQ     -0.447800
     18 C2          1.2000   -0.6400   -2.4160 ce        1 0NQ      0.909500
     19 N5          1.9090   -0.3770   -3.4710 nf        1 0NQ     -1.106900
     20 P4          1.4580   -0.4260   -4.9880 py        1 0NQ      1.756400
     21 O6          1.8820    0.6640   -5.8720 o         1 0NQ     -0.858300
     22 O7          2.0530   -1.8110   -5.6250 os        1 0NQ     -0.603200
     23 C19         3.2620   -1.7460   -6.3410 c3        1 0NQ      0.168400
     24 C20         4.3540   -2.5040   -5.6130 c3        1 0NQ     -0.117100
     25 C8         -0.1520   -0.7170   -4.9270 ca        1 0NQ     -0.461500
     26 C13        -0.8530   -0.6800   -6.1290 ca        1 0NQ     -0.028000
     27 C12        -2.2310   -0.9420   -6.1830 ca        1 0NQ      0.096600
     28 N14        -2.9200   -0.8880   -7.4070 nh        1 0NQ     -0.784500
     29 S15        -4.0970   -1.8900   -7.9130 s6        1 0NQ      1.470900
     30 C18        -3.2690   -3.3290   -8.2710 c3        1 0NQ     -0.372300
     31 O17        -5.0170   -2.1640   -6.8840 o         1 0NQ     -0.651800
     32 O16        -4.6180   -1.3670   -9.1140 o         1 0NQ     -0.651800
     33 C11        -2.9030   -1.2380   -4.9690 ca        1 0NQ     -0.078000
     34 C10        -2.2190   -1.2700   -3.7680 ca        1 0NQ     -0.172000
     35 C9         -0.8280   -0.9980   -3.7240 ca        1 0NQ      0.226600
     36 N3         -0.1570   -0.9950   -2.4970 nh        1 0NQ     -0.749600
     37 H1          2.3530   -0.4910    3.3080 h1        1 0NQ      0.074200
     38 H2          0.6340   -0.8730    2.8090 h1        1 0NQ      0.074200
     39 H3          0.3170    1.4130    1.9430 hc        1 0NQ      0.046700
     40 H4          2.0490    1.8440    2.2510 hc        1 0NQ      0.046700
     41 H5          2.4720    0.6640    5.0570 hc        1 0NQ      0.037144
     42 H6          2.8610    2.3390    4.4790 hc        1 0NQ      0.037144
     43 H7          1.8020    2.1000    5.9310 hc        1 0NQ      0.037144
     44 H8          0.0530    3.4970    4.9520 hc        1 0NQ      0.037144
     45 H9          1.0340    3.7750    3.4530 hc        1 0NQ      0.037144
     46 H10        -0.6510    3.1160    3.3250 hc        1 0NQ      0.037144
     47 H11         0.1910   -0.2220    4.8810 hc        1 0NQ      0.037144
     48 H12        -1.0870    0.6580    3.9390 hc        1 0NQ      0.037144
     49 H13        -0.6130    1.2360    5.5920 hc        1 0NQ      0.037144
     50 H14         3.5860    0.7000    1.1410 h1        1 0NQ      0.086700
     51 H15         5.4320   -2.1980    2.8130 hc        1 0NQ      0.044700
     52 H16         4.4940   -0.6950    3.1860 hc        1 0NQ      0.044700
     53 H17         3.6260   -2.2600    2.8440 hc        1 0NQ      0.044700
     54 H18         3.4220   -3.0910    0.4910 hc        1 0NQ      0.044700
     55 H19         5.2260   -3.2570    0.5560 hc        1 0NQ      0.044700
     56 H20         4.4540   -2.3540   -0.8110 hc        1 0NQ      0.044700
     57 H21         5.9010    0.3600    1.3520 hc        1 0NQ      0.044700
     58 H22         5.8570   -0.3210   -0.3300 hc        1 0NQ      0.044700
     59 H23         6.6600   -1.2480    1.0010 hc        1 0NQ      0.044700
     60 H24         3.8150    0.1870   -2.4820 ho        1 0NQ      0.489000
     61 H25         3.0740   -2.2350   -7.3400 h1        1 0NQ      0.052700
     62 H26         3.5520   -0.6720   -6.5100 h1        1 0NQ      0.052700
     63 H27         4.0080   -3.5350   -5.3650 hc        1 0NQ      0.038367
     64 H28         5.2560   -2.5690   -6.2670 hc        1 0NQ      0.038367
     65 H29         4.6370   -1.9910   -4.6640 hc        1 0NQ      0.038367
     66 H30        -0.2790   -0.4180   -7.0370 ha        1 0NQ      0.162000
     67 H31        -2.5930   -0.1610   -8.0050 hn        1 0NQ      0.463800
     68 H32        -2.6400   -3.7150   -7.4320 h1        1 0NQ      0.119033
     69 H33        -2.5970   -3.2410   -9.1590 h1        1 0NQ      0.119033
     70 H34        -3.9970   -4.1460   -8.5110 h1        1 0NQ      0.119033
     71 H35        -3.9890   -1.4500   -4.9720 ha        1 0NQ      0.178000
     72 H36        -2.7700   -1.5020   -2.8420 ha        1 0NQ      0.151000
     73 H37        -0.6730   -1.1960   -1.6630 hn        1 0NQ      0.491800
@<TRIPOS>BOND
     1    1    2 2   
     2    2    3 1   
     3    2   17 1   
     4    3    4 1   
     5    3   10 1   
     6    4    5 1   
     7    4   37 1   
     8    4   38 1   
     9    5    6 1   
    10    5   39 1   
    11    5   40 1   
    12    6    7 1   
    13    6    8 1   
    14    6    9 1   
    15    7   41 1   
    16    7   42 1   
    17    7   43 1   
    18    8   44 1   
    19    8   45 1   
    20    8   46 1   
    21    9   47 1   
    22    9   48 1   
    23    9   49 1   
    24   10   11 1   
    25   10   15 1   
    26   10   50 1   
    27   11   12 1   
    28   11   13 1   
    29   11   14 1   
    30   12   51 1   
    31   12   52 1   
    32   12   53 1   
    33   13   54 1   
    34   13   55 1   
    35   13   56 1   
    36   14   57 1   
    37   14   58 1   
    38   14   59 1   
    39   15   16 1   
    40   15   17 2   
    41   16   60 1   
    42   17   18 1   
    43   18   19 2   
    44   18   36 1   
    45   19   20 1   
    46   20   21 2   
    47   20   22 1   
    48   20   25 1   
    49   22   23 1   
    50   23   24 1   
    51   23   61 1   
    52   23   62 1   
    53   24   63 1   
    54   24   64 1   
    55   24   65 1   
    56   25   26 ar  
    57   25   35 ar  
    58   26   27 ar  
    59   26   66 1   
    60   27   28 1   
    61   27   33 ar  
    62   28   29 1   
    63   28   67 1   
    64   29   30 1   
    65   29   31 2   
    66   29   32 2   
    67   30   68 1   
    68   30   69 1   
    69   30   70 1   
    70   33   34 ar  
    71   33   71 1   
    72   34   35 ar  
    73   34   72 1   
    74   35   36 1   
    75   36   73 1   
@<TRIPOS>SUBSTRUCTURE
     1 0NQ         1 TEMP              0 ****  ****    0 ROOT
