@<TRIPOS>MOLECULE
0NR
   78    84     1     0     0
SMALL
bcc


@<TRIPOS>ATOM
      1 C1         -0.0230   -0.0370    0.0720 ca        1 0NR     -0.310900
      2 C2          1.3860    0.0110    0.0420 ca        1 0NR     -0.014000
      3 C3          2.1050   -0.2150    1.2010 ca        1 0NR     -0.273300
      4 C4          1.3840   -0.4910    2.3890 ca        1 0NR      0.466200
      5 N5          0.0540   -0.5520    2.4680 nb        1 0NR     -0.689000
      6 C6         -0.6630   -0.3320    1.3120 ca        1 0NR      0.666200
      7 N7         -2.0740   -0.3980    1.3690 na        1 0NR     -0.477500
      8 C8         -2.7320   -0.6580    2.6160 ca        1 0NR      0.089600
      9 C9         -2.8060   -0.2280    0.2090 cc        1 0NR      0.183800
     10 C10        -2.2460    0.0730   -1.0090 cd        1 0NR     -0.274400
     11 C11        -3.0610    0.2040   -2.2480 c3        1 0NR      0.006100
     12 C12        -3.2290    1.6260   -2.6730 ca        1 0NR      0.042700
     13 C13        -0.7920    0.2040   -1.1470 c         1 0NR      0.603900
     14 O14        -0.2550    0.5020   -2.2310 o         1 0NR     -0.592100
     15 C15        -2.5710   -1.9010    3.2570 ca        1 0NR     -0.102500
     16 C16        -3.1970   -2.1310    4.4810 ca        1 0NR     -0.122500
     17 C17        -3.9780   -1.1400    5.0740 ca        1 0NR     -0.104000
     18 C18        -4.1360    0.0920    4.4410 ca        1 0NR     -0.122500
     19 C19        -3.5170    0.3450    3.2200 ca        1 0NR     -0.102500
     20 C20        -4.2980   -0.3830    0.2970 c         1 0NR      0.642300
     21 O21        -5.1390    0.5180    0.2320 o         1 0NR     -0.549000
     22 O22        -4.6980   -1.6740    0.3960 os        1 0NR     -0.397900
     23 C23        -6.1090   -1.9130    0.4900 c3        1 0NR      0.121700
     24 C24        -2.2920    2.2230   -3.5260 ca        1 0NR     -0.123000
     25 C25        -2.4630    3.5350   -3.9530 ca        1 0NR     -0.060000
     26 C26        -3.5860    4.2780   -3.5300 ca        1 0NR     -0.239600
     27 C27        -4.5210    3.6810   -2.6610 ca        1 0NR     -0.060000
     28 C28        -4.3410    2.3730   -2.2400 ca        1 0NR     -0.123000
     29 C29        -3.6820    5.6320   -4.0340 c         1 0NR      0.590700
     30 O30        -2.9120    6.2590   -4.7490 o         1 0NR     -0.457100
     31 N31        -4.9460    6.4130   -3.6190 n4        1 0NR     -0.681800
     32 C32        -5.0670    7.7630   -4.2490 c3        1 0NR      0.119500
     33 C33        -4.1450    8.8180   -3.5960 c3        1 0NR     -0.070700
     34 C34        -4.5960    9.1530   -2.1810 c3        1 0NR     -0.098400
     35 C35        -6.0250    9.6790   -2.2070 c3        1 0NR     -0.062700
     36 C36        -6.9530    8.6270   -2.7990 c3        1 0NR     -0.098400
     37 C37        -6.5170    8.2960   -4.2200 c3        1 0NR     -0.070700
     38 C38        -6.0870   10.9520   -3.0450 c3        1 0NR     -0.096400
     39 C39        -5.6340   10.6250   -4.4840 c3        1 0NR      0.131200
     40 C40        -6.5700    9.5540   -5.0830 c3        1 0NR     -0.092900
     41 C41        -4.1920   10.0760   -4.4590 c3        1 0NR     -0.092900
     42 N42        -5.6870   11.8840   -5.3310 n4        1 0NR     -0.840600
     43 H1          1.8850    0.2270   -0.9190 ha        1 0NR      0.171000
     44 H2          3.2030   -0.1900    1.2160 ha        1 0NR      0.166000
     45 H3          1.9180   -0.6780    3.3420 h4        1 0NR      0.045100
     46 H4         -4.0750   -0.2640   -2.1100 hc        1 0NR      0.084200
     47 H5         -2.5340   -0.3620   -3.0700 hc        1 0NR      0.084200
     48 H6         -1.9450   -2.6890    2.8070 ha        1 0NR      0.147000
     49 H7         -3.0650   -3.1030    4.9810 ha        1 0NR      0.148000
     50 H8         -4.4640   -1.3290    6.0430 ha        1 0NR      0.150000
     51 H9         -4.7480    0.8780    4.9110 ha        1 0NR      0.148000
     52 H10        -3.6470    1.3240    2.7350 ha        1 0NR      0.147000
     53 H11        -6.6130   -1.5550   -0.4390 h1        1 0NR      0.064367
     54 H12        -6.5230   -1.3900    1.3850 h1        1 0NR      0.064367
     55 H13        -6.1710   -3.0250    0.5940 h1        1 0NR      0.064367
     56 H14        -1.3970    1.6480   -3.8370 ha        1 0NR      0.199000
     57 H15        -1.7190    3.9990   -4.6240 ha        1 0NR      0.141500
     58 H16        -5.4020    4.2230   -2.2890 ha        1 0NR      0.141500
     59 H17        -5.0670    1.9110   -1.5440 ha        1 0NR      0.199000
     60 H18        -4.9360    6.5070   -2.5970 hn        1 0NR      0.457800
     61 H19        -4.7470    7.6300   -5.3300 hx        1 0NR      0.121700
     62 H20        -3.0840    8.4380   -3.5870 hc        1 0NR      0.105700
     63 H21        -4.5270    8.2600   -1.5090 hc        1 0NR      0.076950
     64 H22        -3.9090    9.9300   -1.7480 hc        1 0NR      0.076950
     65 H23        -6.3550    9.9250   -1.1590 hc        1 0NR      0.112700
     66 H24        -8.0080    9.0110   -2.8120 hc        1 0NR      0.076950
     67 H25        -6.9490    7.7090   -2.1570 hc        1 0NR      0.076950
     68 H26        -7.2210    7.5390   -4.6680 hc        1 0NR      0.105700
     69 H27        -5.4160   11.7280   -2.5910 hc        1 0NR      0.082200
     70 H28        -7.1370   11.3460   -3.0460 hc        1 0NR      0.082200
     71 H29        -7.6290    9.9270   -5.1050 hc        1 0NR      0.085450
     72 H30        -6.2620    9.3070   -6.1330 hc        1 0NR      0.085450
     73 H31        -3.4910   10.8350   -4.0190 hc        1 0NR      0.085450
     74 H32        -3.8430    9.8360   -5.4980 hc        1 0NR      0.085450
     75 H33        -5.3860   11.6750   -6.2870 hn        1 0NR      0.466133
     76 H34        -6.6460   12.2470   -5.3480 hn        1 0NR      0.466133
     77 H312       -5.7610    5.8480   -3.8800 hn        1 0NR      0.457800
     78 H423       -5.0660   12.5940   -4.9280 hn        1 0NR      0.466133
@<TRIPOS>BOND
     1    1    2 ar  
     2    1    6 ar  
     3    1   13 1   
     4    2    3 ar  
     5    2   43 1   
     6    3    4 ar  
     7    3   44 1   
     8    4    5 ar  
     9    4   45 1   
    10    5    6 ar  
    11    6    7 1   
    12    7    8 1   
    13    7    9 1   
    14    8   15 ar  
    15    8   19 ar  
    16    9   10 2   
    17    9   20 1   
    18   10   11 1   
    19   10   13 1   
    20   11   12 1   
    21   11   46 1   
    22   11   47 1   
    23   12   24 ar  
    24   12   28 ar  
    25   13   14 2   
    26   15   16 ar  
    27   15   48 1   
    28   16   17 ar  
    29   16   49 1   
    30   17   18 ar  
    31   17   50 1   
    32   18   19 ar  
    33   18   51 1   
    34   19   52 1   
    35   20   21 2   
    36   20   22 1   
    37   22   23 1   
    38   23   53 1   
    39   23   54 1   
    40   23   55 1   
    41   24   25 ar  
    42   24   56 1   
    43   25   26 ar  
    44   25   57 1   
    45   26   27 ar  
    46   26   29 1   
    47   27   28 ar  
    48   27   58 1   
    49   28   59 1   
    50   29   30 2   
    51   29   31 1   
    52   31   32 1   
    53   31   60 1   
    54   31   77 1   
    55   32   33 1   
    56   32   37 1   
    57   32   61 1   
    58   33   34 1   
    59   33   41 1   
    60   33   62 1   
    61   34   35 1   
    62   34   63 1   
    63   34   64 1   
    64   35   36 1   
    65   35   38 1   
    66   35   65 1   
    67   36   37 1   
    68   36   66 1   
    69   36   67 1   
    70   37   40 1   
    71   37   68 1   
    72   38   39 1   
    73   38   69 1   
    74   38   70 1   
    75   39   40 1   
    76   39   41 1   
    77   39   42 1   
    78   40   71 1   
    79   40   72 1   
    80   41   73 1   
    81   41   74 1   
    82   42   75 1   
    83   42   76 1   
    84   42   78 1   
@<TRIPOS>SUBSTRUCTURE
     1 0NR         1 TEMP              0 ****  ****    0 ROOT
