@<TRIPOS>MOLECULE
0NR
   78    84     1     0     0
SMALL
bcc


@<TRIPOS>ATOM
      1 C1         -0.0300   -0.0380    0.0760 ca        1 0NR     -0.310900
      2 C2          1.3790    0.0100    0.0480 ca        1 0NR     -0.014000
      3 C3          2.0970   -0.2150    1.2090 ca        1 0NR     -0.273300
      4 C4          1.3750   -0.4890    2.3960 ca        1 0NR      0.466200
      5 N5          0.0450   -0.5500    2.4740 nb        1 0NR     -0.689000
      6 C6         -0.6710   -0.3310    1.3160 ca        1 0NR      0.666200
      7 N7         -2.0820   -0.3970    1.3710 na        1 0NR     -0.477500
      8 C8         -2.7420   -0.6560    2.6180 ca        1 0NR      0.089600
      9 C9         -2.8130   -0.2280    0.2110 cc        1 0NR      0.183800
     10 C10        -2.2510    0.0720   -1.0070 cd        1 0NR     -0.274400
     11 C11        -3.0650    0.2020   -2.2470 c3        1 0NR      0.006100
     12 C12        -3.2320    1.6230   -2.6740 ca        1 0NR      0.042700
     13 C13        -0.7970    0.2020   -1.1430 c         1 0NR      0.603900
     14 O14        -0.2590    0.4980   -2.2270 o         1 0NR     -0.592100
     15 C15        -2.5800   -1.8980    3.2610 ca        1 0NR     -0.102500
     16 C16        -3.2080   -2.1260    4.4840 ca        1 0NR     -0.122500
     17 C17        -3.9910   -1.1360    5.0750 ca        1 0NR     -0.104000
     18 C18        -4.1500    0.0960    4.4390 ca        1 0NR     -0.122500
     19 C19        -3.5290    0.3470    3.2190 ca        1 0NR     -0.102500
     20 C20        -4.3050   -0.3820    0.2970 c         1 0NR      0.642300
     21 O21        -5.1450    0.5190    0.2300 o         1 0NR     -0.549000
     22 O22        -4.7050   -1.6740    0.3960 os        1 0NR     -0.397900
     23 C23        -6.1160   -1.9110    0.4890 c3        1 0NR      0.121700
     24 C24        -2.2930    2.2190   -3.5260 ca        1 0NR     -0.123000
     25 C25        -2.4620    3.5310   -3.9550 ca        1 0NR     -0.060000
     26 C26        -3.5860    4.2750   -3.5330 ca        1 0NR     -0.239600
     27 C27        -4.5220    3.6790   -2.6640 ca        1 0NR     -0.060000
     28 C28        -4.3440    2.3720   -2.2430 ca        1 0NR     -0.123000
     29 C29        -3.6800    5.6290   -4.0380 c         1 0NR      0.590700
     30 O30        -2.9080    6.2540   -4.7540 o         1 0NR     -0.457100
     31 N31        -4.9420    6.4110   -3.6240 n4        1 0NR     -0.681800
     32 C32        -5.0600    7.7630   -4.2530 c3        1 0NR      0.119500
     33 C33        -4.1380    8.8140   -3.5960 c3        1 0NR     -0.070700
     34 C34        -4.5900    9.1490   -2.1820 c3        1 0NR     -0.098400
     35 C35        -6.0180    9.6780   -2.2090 c3        1 0NR     -0.062700
     36 C36        -6.9470    8.6280   -2.8050 c3        1 0NR     -0.098400
     37 C37        -6.5090    8.2980   -4.2260 c3        1 0NR     -0.070700
     38 C38        -6.0760   10.9510   -3.0460 c3        1 0NR     -0.096400
     39 C39        -5.6210   10.6260   -4.4850 c3        1 0NR      0.131200
     40 C40        -6.5580    9.5580   -5.0870 c3        1 0NR     -0.092900
     41 C41        -4.1800   10.0740   -4.4570 c3        1 0NR     -0.092900
     42 N42        -5.6700   11.8870   -5.3290 n4        1 0NR     -0.840600
     43 H1          1.8790    0.2250   -0.9120 ha        1 0NR      0.171000
     44 H2          3.1950   -0.1900    1.2250 ha        1 0NR      0.166000
     45 H3          1.9080   -0.6760    3.3500 h4        1 0NR      0.045100
     46 H4         -4.0790   -0.2650   -2.1100 hc        1 0NR      0.084200
     47 H5         -2.5370   -0.3660   -3.0680 hc        1 0NR      0.084200
     48 H6         -1.9540   -2.6860    2.8130 ha        1 0NR      0.147000
     49 H7         -3.0760   -3.0980    4.9860 ha        1 0NR      0.148000
     50 H8         -4.4790   -1.3230    6.0440 ha        1 0NR      0.150000
     51 H9         -4.7630    0.8810    4.9070 ha        1 0NR      0.148000
     52 H10        -3.6590    1.3260    2.7320 ha        1 0NR      0.147000
     53 H11        -6.1790   -3.0230    0.5950 h1        1 0NR      0.064367
     54 H12        -6.5320   -1.3870    1.3830 h1        1 0NR      0.064367
     55 H13        -6.6190   -1.5550   -0.4410 h1        1 0NR      0.064367
     56 H14        -1.3980    1.6430   -3.8360 ha        1 0NR      0.199000
     57 H15        -1.7180    3.9930   -4.6260 ha        1 0NR      0.141500
     58 H16        -5.4030    4.2230   -2.2940 ha        1 0NR      0.141500
     59 H17        -5.0700    1.9110   -1.5460 ha        1 0NR      0.199000
     60 H18        -5.7590    5.8480   -3.8880 hn        1 0NR      0.457800
     61 H19        -4.7390    7.6300   -5.3330 hx        1 0NR      0.121700
     62 H20        -3.0770    8.4320   -3.5860 hc        1 0NR      0.105700
     63 H21        -3.9030    9.9230   -1.7460 hc        1 0NR      0.076950
     64 H22        -4.5240    8.2540   -1.5110 hc        1 0NR      0.076950
     65 H23        -6.3500    9.9220   -1.1610 hc        1 0NR      0.112700
     66 H24        -6.9460    7.7090   -2.1650 hc        1 0NR      0.076950
     67 H25        -8.0020    9.0140   -2.8190 hc        1 0NR      0.076950
     68 H26        -7.2140    7.5440   -4.6760 hc        1 0NR      0.105700
     69 H27        -5.4040   11.7260   -2.5900 hc        1 0NR      0.082200
     70 H28        -7.1250   11.3480   -3.0480 hc        1 0NR      0.082200
     71 H29        -7.6160    9.9330   -5.1100 hc        1 0NR      0.085450
     72 H30        -6.2480    9.3120   -6.1370 hc        1 0NR      0.085450
     73 H31        -3.4790   10.8320   -4.0150 hc        1 0NR      0.085450
     74 H32        -3.8300    9.8350   -5.4960 hc        1 0NR      0.085450
     75 H33        -5.3680   11.6790   -6.2850 hn        1 0NR      0.466133
     76 H34        -6.6280   12.2520   -5.3480 hn        1 0NR      0.466133
     77 H312       -4.9350    6.5040   -2.6030 hn        1 0NR      0.457800
     78 H423       -5.0480   12.5940   -4.9240 hn        1 0NR      0.466133
@<TRIPOS>BOND
     1    1    2 ar  
     2    1    6 ar  
     3    1   13 1   
     4    2    3 ar  
     5    2   43 1   
     6    3    4 ar  
     7    3   44 1   
     8    4    5 ar  
     9    4   45 1   
    10    5    6 ar  
    11    6    7 1   
    12    7    8 1   
    13    7    9 1   
    14    8   15 ar  
    15    8   19 ar  
    16    9   10 2   
    17    9   20 1   
    18   10   11 1   
    19   10   13 1   
    20   11   12 1   
    21   11   46 1   
    22   11   47 1   
    23   12   24 ar  
    24   12   28 ar  
    25   13   14 2   
    26   15   16 ar  
    27   15   48 1   
    28   16   17 ar  
    29   16   49 1   
    30   17   18 ar  
    31   17   50 1   
    32   18   19 ar  
    33   18   51 1   
    34   19   52 1   
    35   20   21 2   
    36   20   22 1   
    37   22   23 1   
    38   23   53 1   
    39   23   54 1   
    40   23   55 1   
    41   24   25 ar  
    42   24   56 1   
    43   25   26 ar  
    44   25   57 1   
    45   26   27 ar  
    46   26   29 1   
    47   27   28 ar  
    48   27   58 1   
    49   28   59 1   
    50   29   30 2   
    51   29   31 1   
    52   31   32 1   
    53   31   60 1   
    54   31   77 1   
    55   32   33 1   
    56   32   37 1   
    57   32   61 1   
    58   33   34 1   
    59   33   41 1   
    60   33   62 1   
    61   34   35 1   
    62   34   63 1   
    63   34   64 1   
    64   35   36 1   
    65   35   38 1   
    66   35   65 1   
    67   36   37 1   
    68   36   66 1   
    69   36   67 1   
    70   37   40 1   
    71   37   68 1   
    72   38   39 1   
    73   38   69 1   
    74   38   70 1   
    75   39   40 1   
    76   39   41 1   
    77   39   42 1   
    78   40   71 1   
    79   40   72 1   
    80   41   73 1   
    81   41   74 1   
    82   42   75 1   
    83   42   76 1   
    84   42   78 1   
@<TRIPOS>SUBSTRUCTURE
     1 0NR         1 TEMP              0 ****  ****    0 ROOT
