@<TRIPOS>MOLECULE
0NR
   76    82     1     0     0
SMALL
bcc


@<TRIPOS>ATOM
      1 C1         -4.0580    1.8770   -1.1420 ca        1 0NR     -0.313900
      2 C2         -4.3300    2.7990   -2.1700 ca        1 0NR     -0.010000
      3 C3         -5.0690    2.4020   -3.2710 ca        1 0NR     -0.292300
      4 C4         -5.5290    1.0660   -3.3150 ca        1 0NR      0.456200
      5 N5         -5.3020    0.1550   -2.3680 nb        1 0NR     -0.702000
      6 C6         -4.5610    0.5470   -1.2710 ca        1 0NR      0.676200
      7 N7         -4.3030   -0.3950   -0.2560 na        1 0NR     -0.494500
      8 C8         -4.8030   -1.7310   -0.3690 ca        1 0NR      0.107600
      9 C9         -3.5140   -0.0240    0.8290 cc        1 0NR      0.150800
     10 C10        -2.9900    1.2280    0.9990 cd        1 0NR     -0.212400
     11 C11        -2.1480    1.5840    2.1760 c3        1 0NR      0.015100
     12 C12        -0.6870    1.5750    1.8630 ca        1 0NR     -0.066300
     13 C13        -3.2750    2.2910    0.0260 c         1 0NR      0.596900
     14 O14        -2.8940    3.4640    0.1820 o         1 0NR     -0.562100
     15 C15        -6.1910   -1.9690   -0.3600 ca        1 0NR     -0.104500
     16 C16        -6.6690   -3.2710   -0.4880 ca        1 0NR     -0.127000
     17 C17        -5.7850   -4.3400   -0.6260 ca        1 0NR     -0.117000
     18 C18        -4.4110   -4.1080   -0.6350 ca        1 0NR     -0.127000
     19 C19        -3.9110   -2.8140   -0.5120 ca        1 0NR     -0.104500
     20 C20        -3.2470   -1.0710    1.8690 c         1 0NR      0.641300
     21 O21        -2.2980   -1.8520    1.9310 o         1 0NR     -0.517000
     22 O22        -4.1840   -1.0780    2.8580 os        1 0NR     -0.414900
     23 C23        -3.9900   -2.0230    3.9160 c3        1 0NR      0.121700
     24 C24        -0.0700    2.7340    1.3780 ca        1 0NR     -0.128000
     25 C25         1.2990    2.7440    1.1190 ca        1 0NR     -0.095500
     26 C26         2.0620    1.5900    1.3330 ca        1 0NR     -0.141600
     27 C27         1.4480    0.4310    1.8170 ca        1 0NR     -0.095500
     28 C28         0.0800    0.4250    2.0810 ca        1 0NR     -0.128000
     29 C29         3.5260    1.6520    1.0530 c         1 0NR      0.674700
     30 O30         4.1990    2.6680    1.3210 o         1 0NR     -0.609100
     31 N31         4.1020    0.5360    0.4790 n         1 0NR     -0.566900
     32 C32         5.4940    0.4750    0.1120 c3        1 0NR      0.106700
     33 C33         5.7270    0.4560   -1.4200 c3        1 0NR     -0.072700
     34 C34         5.2320   -0.8450   -2.0350 c3        1 0NR     -0.070900
     35 C35         5.9770   -2.0200   -1.4150 c3        1 0NR     -0.064700
     36 C36         5.7280   -2.0480    0.0870 c3        1 0NR     -0.070900
     37 C37         6.2240   -0.7530    0.7120 c3        1 0NR     -0.072700
     38 C38         7.4700   -1.8840   -1.6850 c3        1 0NR     -0.062400
     39 C39         8.0120   -0.5740   -1.0630 c3        1 0NR      0.176200
     40 C40         7.7170   -0.5990    0.4550 c3        1 0NR     -0.084400
     41 C41         7.2190    0.6070   -1.6790 c3        1 0NR     -0.084400
     42 N42         9.4530   -0.4690   -1.2930 n3        1 0NR     -0.897800
     43 H1         -3.9420    3.8270   -2.0690 ha        1 0NR      0.168000
     44 H2         -5.2970    3.0930   -4.0920 ha        1 0NR      0.154000
     45 H3         -6.1230    0.7040   -4.1760 h4        1 0NR      0.030100
     46 H4         -2.4440    2.6170    2.5150 hc        1 0NR      0.068700
     47 H5         -2.3530    0.8780    3.0270 hc        1 0NR      0.068700
     48 H6         -6.9010   -1.1330   -0.2650 ha        1 0NR      0.152500
     49 H7         -7.7550   -3.4510   -0.4830 ha        1 0NR      0.140000
     50 H8         -6.1720   -5.3650   -0.7300 ha        1 0NR      0.138000
     51 H9         -3.7090   -4.9490   -0.7450 ha        1 0NR      0.140000
     52 H10        -2.8210   -2.6460   -0.5100 ha        1 0NR      0.152500
     53 H11        -4.8720   -1.8500    4.5820 h1        1 0NR      0.057700
     54 H12        -3.9820   -3.0600    3.5030 h1        1 0NR      0.057700
     55 H13        -3.0290   -1.8080    4.4420 h1        1 0NR      0.057700
     56 H14        -0.6780    3.6350    1.1920 ha        1 0NR      0.154000
     57 H15         1.7930    3.6600    0.7570 ha        1 0NR      0.144500
     58 H16         2.0370   -0.4780    2.0110 ha        1 0NR      0.144500
     59 H17        -0.4000   -0.4940    2.4530 ha        1 0NR      0.154000
     60 H18         3.5250   -0.2250    0.2120 hn        1 0NR      0.310500
     61 H19         5.9890    1.4080    0.5240 h1        1 0NR      0.090700
     62 H20         5.1860    1.3210   -1.8900 hc        1 0NR      0.059700
     63 H21         4.1300   -0.9620   -1.8730 hc        1 0NR      0.040200
     64 H22         5.4080   -0.8270   -3.1420 hc        1 0NR      0.040200
     65 H23         5.6090   -2.9780   -1.8730 hc        1 0NR      0.049700
     66 H24         4.6370   -2.1930    0.2910 hc        1 0NR      0.040200
     67 H25         6.2730   -2.9150    0.5430 hc        1 0NR      0.040200
     68 H26         6.0500   -0.7840    1.8220 hc        1 0NR      0.059700
     69 H27         8.0130   -2.7590   -1.2450 hc        1 0NR      0.047700
     70 H28         7.6510   -1.8810   -2.7900 hc        1 0NR      0.047700
     71 H29         8.0840    0.3480    0.9280 hc        1 0NR      0.046950
     72 H30         8.2640   -1.4560    0.9270 hc        1 0NR      0.046950
     73 H31         7.3980    0.6430   -2.7850 hc        1 0NR      0.046950
     74 H32         7.5790    1.5730   -1.2400 hc        1 0NR      0.046950
     75 H33         9.6380   -0.4470   -2.2770 hn        1 0NR      0.346300
     76 H34         9.8020    0.3710   -0.8760 hn        1 0NR      0.346300
@<TRIPOS>BOND
     1    1    2 ar  
     2    1    6 ar  
     3    1   13 1   
     4    2    3 ar  
     5    2   43 1   
     6    3    4 ar  
     7    3   44 1   
     8    4    5 ar  
     9    4   45 1   
    10    5    6 ar  
    11    6    7 1   
    12    7    8 1   
    13    7    9 1   
    14    8   15 ar  
    15    8   19 ar  
    16    9   10 2   
    17    9   20 1   
    18   10   11 1   
    19   10   13 1   
    20   11   12 1   
    21   11   46 1   
    22   11   47 1   
    23   12   24 ar  
    24   12   28 ar  
    25   13   14 2   
    26   15   16 ar  
    27   15   48 1   
    28   16   17 ar  
    29   16   49 1   
    30   17   18 ar  
    31   17   50 1   
    32   18   19 ar  
    33   18   51 1   
    34   19   52 1   
    35   20   21 2   
    36   20   22 1   
    37   22   23 1   
    38   23   53 1   
    39   23   54 1   
    40   23   55 1   
    41   24   25 ar  
    42   24   56 1   
    43   25   26 ar  
    44   25   57 1   
    45   26   27 ar  
    46   26   29 1   
    47   27   28 ar  
    48   27   58 1   
    49   28   59 1   
    50   29   30 2   
    51   29   31 1   
    52   31   32 1   
    53   31   60 1   
    54   32   33 1   
    55   32   37 1   
    56   32   61 1   
    57   33   34 1   
    58   33   41 1   
    59   33   62 1   
    60   34   35 1   
    61   34   63 1   
    62   34   64 1   
    63   35   36 1   
    64   35   38 1   
    65   35   65 1   
    66   36   37 1   
    67   36   66 1   
    68   36   67 1   
    69   37   40 1   
    70   37   68 1   
    71   38   39 1   
    72   38   69 1   
    73   38   70 1   
    74   39   40 1   
    75   39   41 1   
    76   39   42 1   
    77   40   71 1   
    78   40   72 1   
    79   41   73 1   
    80   41   74 1   
    81   42   75 1   
    82   42   76 1   
@<TRIPOS>SUBSTRUCTURE
     1 0NR         1 TEMP              0 ****  ****    0 ROOT
