@<TRIPOS>MOLECULE
0NR
   78    84     1     0     0
SMALL
bcc


@<TRIPOS>ATOM
      1 C1         -0.0290   -0.0320    0.0850 ca        1 0NR     -0.310900
      2 C2          1.3810    0.0160    0.0580 ca        1 0NR     -0.014000
      3 C3          2.0970   -0.2060    1.2200 ca        1 0NR     -0.273300
      4 C4          1.3740   -0.4790    2.4070 ca        1 0NR      0.466200
      5 N5          0.0440   -0.5410    2.4830 nb        1 0NR     -0.689000
      6 C6         -0.6710   -0.3240    1.3250 ca        1 0NR      0.666200
      7 N7         -2.0820   -0.3910    1.3780 na        1 0NR     -0.477500
      8 C8         -2.7430   -0.6490    2.6250 ca        1 0NR      0.089600
      9 C9         -2.8110   -0.2250    0.2170 cc        1 0NR      0.183800
     10 C10        -2.2490    0.0730   -1.0000 cd        1 0NR     -0.274400
     11 C11        -3.0610    0.2010   -2.2420 c3        1 0NR      0.006100
     12 C12        -3.2290    1.6210   -2.6710 ca        1 0NR      0.042700
     13 C13        -0.7950    0.2050   -1.1360 c         1 0NR      0.603900
     14 O14        -0.2560    0.5000   -2.2190 o         1 0NR     -0.592100
     15 C15        -2.5820   -1.8910    3.2690 ca        1 0NR     -0.102500
     16 C16        -3.2110   -2.1170    4.4920 ca        1 0NR     -0.122500
     17 C17        -3.9940   -1.1260    5.0810 ca        1 0NR     -0.104000
     18 C18        -4.1520    0.1050    4.4450 ca        1 0NR     -0.122500
     19 C19        -3.5300    0.3550    3.2240 ca        1 0NR     -0.102500
     20 C20        -4.3040   -0.3800    0.3020 c         1 0NR      0.642300
     21 O21        -5.1450    0.5200    0.2330 o         1 0NR     -0.549000
     22 O22        -4.7020   -1.6720    0.4020 os        1 0NR     -0.397900
     23 C23        -6.1140   -1.9110    0.4950 c3        1 0NR      0.121700
     24 C24        -2.2910    2.2170   -3.5240 ca        1 0NR     -0.123000
     25 C25        -2.4610    3.5270   -3.9550 ca        1 0NR     -0.060000
     26 C26        -3.5860    4.2710   -3.5360 ca        1 0NR     -0.239600
     27 C27        -4.5220    3.6760   -2.6670 ca        1 0NR     -0.060000
     28 C28        -4.3430    2.3690   -2.2420 ca        1 0NR     -0.123000
     29 C29        -3.6810    5.6240   -4.0430 c         1 0NR      0.590700
     30 O30        -2.9110    6.2480   -4.7610 o         1 0NR     -0.457100
     31 N31        -4.9440    6.4060   -3.6290 ny        1 0NR     -0.681800
     32 C32        -5.0630    7.7560   -4.2600 c3        1 0NR      0.119500
     33 C33        -4.1390    8.8100   -3.6080 c3        1 0NR     -0.070700
     34 C34        -4.5890    9.1470   -2.1930 c3        1 0NR     -0.098400
     35 C35        -6.0170    9.6750   -2.2190 c3        1 0NR     -0.062700
     36 C36        -6.9470    8.6250   -2.8110 c3        1 0NR     -0.098400
     37 C37        -6.5120    8.2910   -4.2310 c3        1 0NR     -0.070700
     38 C38        -6.0770   10.9470   -3.0580 c3        1 0NR     -0.096400
     39 C39        -5.6250   10.6190   -4.4970 c3        1 0NR      0.131200
     40 C40        -6.5630    9.5500   -5.0950 c3        1 0NR     -0.092900
     41 C41        -4.1840   10.0680   -4.4710 c3        1 0NR     -0.092900
     42 N42        -5.6760   11.8780   -5.3440 nz        1 0NR     -0.840600
     43 H1          1.8810    0.2310   -0.9010 ha        1 0NR      0.171000
     44 H2          3.1950   -0.1800    1.2370 ha        1 0NR      0.166000
     45 H3          1.9060   -0.6640    3.3620 h4        1 0NR      0.045100
     46 H4         -2.5320   -0.3680   -3.0610 hc        1 0NR      0.084200
     47 H5         -4.0750   -0.2680   -2.1050 hc        1 0NR      0.084200
     48 H6         -1.9550   -2.6790    2.8230 ha        1 0NR      0.147000
     49 H7         -3.0800   -3.0890    4.9950 ha        1 0NR      0.148000
     50 H8         -4.4830   -1.3120    6.0500 ha        1 0NR      0.150000
     51 H9         -4.7650    0.8910    4.9120 ha        1 0NR      0.148000
     52 H10        -3.6590    1.3330    2.7360 ha        1 0NR      0.147000
     53 H11        -6.1760   -3.0230    0.6010 h1        1 0NR      0.064367
     54 H12        -6.5300   -1.3860    1.3870 h1        1 0NR      0.064367
     55 H13        -6.6160   -1.5560   -0.4370 h1        1 0NR      0.064367
     56 H14        -1.3950    1.6410   -3.8320 ha        1 0NR      0.199000
     57 H15        -1.7160    3.9900   -4.6260 ha        1 0NR      0.141500
     58 H16        -5.4040    4.2180   -2.2980 ha        1 0NR      0.141500
     59 H17        -5.0690    1.9080   -1.5460 ha        1 0NR      0.199000
     60 H18        -4.9340    6.5010   -2.6080 hn        1 0NR      0.457800
     61 H19        -4.7430    7.6220   -5.3410 hx        1 0NR      0.121700
     62 H20        -3.0780    8.4280   -3.5990 hc        1 0NR      0.105700
     63 H21        -4.5220    8.2540   -1.5200 hc        1 0NR      0.076950
     64 H22        -3.9010    9.9230   -1.7600 hc        1 0NR      0.076950
     65 H23        -6.3470    9.9220   -1.1710 hc        1 0NR      0.112700
     66 H24        -8.0020    9.0100   -2.8230 hc        1 0NR      0.076950
     67 H25        -6.9440    7.7070   -2.1680 hc        1 0NR      0.076950
     68 H26        -7.2170    7.5360   -4.6790 hc        1 0NR      0.105700
     69 H27        -5.4050   11.7230   -2.6050 hc        1 0NR      0.082200
     70 H28        -7.1270   11.3430   -3.0590 hc        1 0NR      0.082200
     71 H29        -6.2550    9.3020   -6.1450 hc        1 0NR      0.085450
     72 H30        -7.6210    9.9240   -5.1170 hc        1 0NR      0.085450
     73 H31        -3.4820   10.8260   -4.0320 hc        1 0NR      0.085450
     74 H32        -3.8360    9.8270   -5.5100 hc        1 0NR      0.085450
     75 H33        -6.6340   12.2420   -5.3610 hn        1 0NR      0.466133
     76 H34        -5.0540   12.5860   -4.9420 hn        1 0NR      0.466133
     77 H312       -5.7600    5.8420   -3.8900 hn        1 0NR      0.457800
     78 H423       -5.3760   11.6680   -6.3010 hn        1 0NR      0.466133
@<TRIPOS>BOND
     1    1    2 ar  
     2    1    6 ar  
     3    1   13 1   
     4    2    3 ar  
     5    2   43 1   
     6    3    4 ar  
     7    3   44 1   
     8    4    5 ar  
     9    4   45 1   
    10    5    6 ar  
    11    6    7 1   
    12    7    8 1   
    13    7    9 1   
    14    8   15 ar  
    15    8   19 ar  
    16    9   10 2   
    17    9   20 1   
    18   10   11 1   
    19   10   13 1   
    20   11   12 1   
    21   11   46 1   
    22   11   47 1   
    23   12   24 ar  
    24   12   28 ar  
    25   13   14 2   
    26   15   16 ar  
    27   15   48 1   
    28   16   17 ar  
    29   16   49 1   
    30   17   18 ar  
    31   17   50 1   
    32   18   19 ar  
    33   18   51 1   
    34   19   52 1   
    35   20   21 2   
    36   20   22 1   
    37   22   23 1   
    38   23   53 1   
    39   23   54 1   
    40   23   55 1   
    41   24   25 ar  
    42   24   56 1   
    43   25   26 ar  
    44   25   57 1   
    45   26   27 ar  
    46   26   29 1   
    47   27   28 ar  
    48   27   58 1   
    49   28   59 1   
    50   29   30 2   
    51   29   31 1   
    52   31   32 1   
    53   31   60 1   
    54   31   77 1   
    55   32   33 1   
    56   32   37 1   
    57   32   61 1   
    58   33   34 1   
    59   33   41 1   
    60   33   62 1   
    61   34   35 1   
    62   34   63 1   
    63   34   64 1   
    64   35   36 1   
    65   35   38 1   
    66   35   65 1   
    67   36   37 1   
    68   36   66 1   
    69   36   67 1   
    70   37   40 1   
    71   37   68 1   
    72   38   39 1   
    73   38   69 1   
    74   38   70 1   
    75   39   40 1   
    76   39   41 1   
    77   39   42 1   
    78   40   71 1   
    79   40   72 1   
    80   41   73 1   
    81   41   74 1   
    82   42   75 1   
    83   42   76 1   
    84   42   78 1   
@<TRIPOS>SUBSTRUCTURE
     1 0NR         1 TEMP              0 ****  ****    0 ROOT
