@<TRIPOS>MOLECULE
0NR
   76    69     1     0     0
SMALL
bcc


@<TRIPOS>ATOM
      1 C1         -0.6320   -3.9600   -1.7120 c1        1 0NR     -0.228000
      2 C2         -1.0910   -3.6430   -3.0410 c2        1 0NR     -0.010000
      3 C3         -0.8140   -4.4430   -4.0520 c1        1 0NR     -0.227000
      4 C4         -0.1100   -5.5600   -3.8550 c1        1 0NR     -0.009000
      5 N5          0.3190   -5.8640   -2.6470 n1        1 0NR     -0.176000
      6 C6          0.0240   -4.9950   -1.5300 c1        1 0NR      0.155000
      7 N7          0.4240   -5.4590   -0.0550 n2        1 0NR     -0.138000
      8 C8          1.1210   -6.5960    0.1020 c2        1 0NR      0.026000
      9 C9          0.0430   -4.6170    1.1770 c1        1 0NR      0.088000
     10 C10        -0.5790   -3.4980    1.0300 c1        1 0NR     -0.189000
     11 C11        -0.8320   -2.5580    2.3110 c2        1 0NR     -0.075000
     12 C12        -1.0790   -0.9630    1.8080 c1        1 0NR     -0.059000
     13 C13        -1.0020   -3.0230   -0.4730 c1        1 0NR      0.318000
     14 O14        -1.7280   -2.3580   -0.5840 o         1 0NR     -0.323000
     15 C15         2.4840   -6.5980    0.0330 c1        1 0NR     -0.119000
     16 C16         3.2340   -7.8870    0.2150 c1        1 0NR     -0.120750
     17 C17         2.5690   -9.0050    0.4430 c1        1 0NR     -0.120750
     18 C18         1.0600   -8.9770    0.5170 c1        1 0NR     -0.129000
     19 C19         0.4020   -7.8190    0.3530 c2        1 0NR     -0.090000
     20 C20         0.5560   -4.9710    2.4240 c1        1 0NR      0.343000
     21 O21         1.8460   -4.7200    2.6900 o         1 0NR     -0.328000
     22 O22        -0.3020   -5.3320    3.4450 os        1 0NR     -0.253000
     23 C23         0.4650   -6.1200    4.6520 c3        1 0NR     -0.068000
     24 C24        -0.0810   -0.2830    0.7840 c1        1 0NR     -0.120750
     25 C25        -0.2770    0.8410    0.4290 c1        1 0NR     -0.120750
     26 C26        -1.4470    1.6070    0.9420 c1        1 0NR     -0.121000
     27 C27        -2.3430    1.0050    1.8670 c1        1 0NR     -0.083000
     28 C28        -2.1270   -0.2800    2.2730 c1        1 0NR     -0.123000
     29 C29        -1.6190    3.1160    0.5720 c1        1 0NR      0.348000
     30 O30        -2.7760    3.8270    0.9540 o         1 0NR     -0.370000
     31 N31        -0.5060    3.7950   -0.3650 n2        1 0NR     -0.376000
     32 C32        -0.6450    5.0590   -0.7980 c3        1 0NR      0.030000
     33 C33        -0.5480    5.0950   -1.4800 c3        1 0NR     -0.111500
     34 C34         0.4200    5.2210   -1.6790 c3        1 0NR     -0.149500
     35 C35         1.2380    5.6370   -0.3160 c3        1 0NR     -0.104000
     36 C36         1.2370    5.6350   -0.3140 c3        1 0NR     -0.149500
     37 C37         0.2750    5.8400   -0.1830 c3        1 0NR     -0.111500
     38 C38         0.6990    7.4550    0.0350 c3        1 0NR     -0.184000
     39 C39        -0.1580    7.9700   -1.3070 c3        1 0NR      0.018000
     40 C40        -0.0460    7.9350   -1.4010 c3        1 0NR     -0.141500
     41 C41        -1.3930    6.7370   -1.8100 c3        1 0NR     -0.141500
     42 N42        -0.6620    9.3540   -1.2300 n3        1 0NR     -0.330000
     43 H1         -1.6700   -2.7430   -3.2190 ha        1 0NR      0.168000
     44 H2         -1.1670   -4.1920   -5.0310 ha        1 0NR      0.154000
     45 H3          0.1290   -6.2540   -4.7600 ha        1 0NR      0.167000
     46 H4         -0.0840   -2.5900    2.8780 ha        1 0NR      0.108000
     47 H5         -1.6890   -2.9080    2.8310 ha        1 0NR      0.108000
     48 H6          3.0310   -5.6580   -0.1690 ha        1 0NR      0.156000
     49 H7          4.3520   -7.9050    0.1490 ha        1 0NR      0.139500
     50 H8          3.0800   -9.9190    0.5840 ha        1 0NR      0.139500
     51 H9          0.5820   -9.7850    0.6830 ha        1 0NR      0.139000
     52 H10        -0.4630   -7.8110    0.3980 ha        1 0NR      0.149000
     53 H11        -0.2000   -6.7620    5.1250 h1        1 0NR      0.097000
     54 H12         1.2480   -6.6790    4.2460 h1        1 0NR      0.097000
     55 H13         0.9030   -5.3140    5.4600 h1        1 0NR      0.097000
     56 H14         0.8080   -0.8600    0.3910 ha        1 0NR      0.139500
     57 H15         0.3720    1.2930   -0.2390 ha        1 0NR      0.139500
     58 H16        -3.0560    1.4710    2.1760 ha        1 0NR      0.154000
     59 H17        -2.6340   -0.6250    2.7980 ha        1 0NR      0.161000
     60 H18         0.1880    3.3900   -0.5110 hn        1 0NR      0.224000
     61 H19        -1.9380    5.5300   -0.4710 h1        1 0NR      0.130000
     62 H20        -0.9890    4.2730   -2.0290 hc        1 0NR      0.099000
     63 H21         0.9430    4.1350   -2.2070 hc        1 0NR      0.080000
     64 H22         0.5850    6.2940   -2.6400 hc        1 0NR      0.080000
     65 H23         2.4520    5.5160   -0.4040 hc        1 0NR      0.089000
     66 H24         1.9280    5.8680    0.8900 hc        1 0NR      0.080000
     67 H25         1.2920    4.5510   -0.5290 hc        1 0NR      0.080000
     68 H26        -0.0880    6.1230    1.3420 hc        1 0NR      0.099000
     69 H27         1.6000    8.0740    0.1130 hc        1 0NR      0.081500
     70 H28         0.1890    7.4950    0.8310 hc        1 0NR      0.081500
     71 H29        -0.3960    7.7900   -2.5490 hc        1 0NR      0.089000
     72 H30         0.8630    8.6210   -1.3000 hc        1 0NR      0.089000
     73 H31        -1.6030    6.8390   -2.8510 hc        1 0NR      0.089000
     74 H32        -2.4730    6.8430   -1.1190 hc        1 0NR      0.089000
     75 H33        -0.1630    9.7630   -1.2240 hn        1 0NR      0.141500
     76 H34        -1.5460    9.5340    0.1300 hn        1 0NR      0.141500
@<TRIPOS>BOND
     1    1    2 1   
     2    1    6 1   
     3    2    3 1   
     4    2   43 1   
     5    3   44 1   
     6    4    5 1   
     7    4   45 1   
     8    7    8 1   
     9    7    9 1   
    10    8   15 1   
    11    8   19 1   
    12    9   10 1   
    13   10   13 1   
    14   11   12 1   
    15   11   46 1   
    16   11   47 1   
    17   12   28 1   
    18   13   14 1   
    19   15   48 1   
    20   16   17 1   
    21   16   49 1   
    22   17   50 1   
    23   18   19 1   
    24   18   51 1   
    25   19   52 1   
    26   20   21 1   
    27   20   22 1   
    28   22   23 1   
    29   23   53 1   
    30   23   54 1   
    31   23   55 1   
    32   24   25 1   
    33   24   56 1   
    34   25   57 1   
    35   26   27 1   
    36   27   58 1   
    37   28   59 1   
    38   29   30 1   
    39   31   32 1   
    40   31   60 1   
    41   32   33 1   
    42   32   37 1   
    43   32   61 1   
    44   33   34 1   
    45   33   41 1   
    46   33   62 1   
    47   34   35 1   
    48   34   63 1   
    49   34   64 1   
    50   35   36 1   
    51   35   38 1   
    52   35   65 1   
    53   36   37 1   
    54   36   66 1   
    55   36   67 1   
    56   37   40 1   
    57   37   68 1   
    58   38   39 1   
    59   38   69 1   
    60   38   70 1   
    61   39   40 1   
    62   39   41 1   
    63   39   42 1   
    64   40   71 1   
    65   40   72 1   
    66   41   73 1   
    67   41   74 1   
    68   42   75 1   
    69   42   76 1   
@<TRIPOS>SUBSTRUCTURE
     1 0NR         1 TEMP              0 ****  ****    0 ROOT
