@<TRIPOS>MOLECULE
0NS
   41    43     1     0     0
SMALL
bcc


@<TRIPOS>ATOM
      1 CAX        -3.4310    2.6050    1.9110 c3        1 0NS      0.119700
      2 OAW        -2.8870    1.4650    1.2500 os        1 0NS     -0.349900
      3 CAE        -3.0900    1.3830   -0.1110 ca        1 0NS      0.239100
      4 CAF        -3.4770    2.4800   -0.8950 ca        1 0NS     -0.226000
      5 CAA        -3.6040    2.3210   -2.2700 ca        1 0NS     -0.033000
      6 CAB        -3.3490    1.0820   -2.8640 ca        1 0NS     -0.186000
      7 CAC        -2.9760    0.0020   -2.0740 ca        1 0NS      0.007000
      8 CAD        -2.8470    0.1160   -0.6810 ca        1 0NS     -0.405500
      9 SAT        -2.4700   -1.2660    0.2210 sy        1 0NS      1.523200
     10 OAU        -3.4790   -1.4920    1.1760 o         1 0NS     -0.650300
     11 OAV        -2.2340   -2.3250   -0.6810 o         1 0NS     -0.650300
     12 NAG        -1.1120   -0.8390    1.0120 nh        1 0NS     -0.764500
     13 CAH         0.2220   -0.9210    0.5810 ca        1 0NS      0.137600
     14 CAM         1.1640    0.0290    1.0300 ca        1 0NS     -0.128000
     15 CAL         2.4950   -0.0430    0.6350 ca        1 0NS     -0.126300
     16 CAQ         3.4740    0.9640    1.1560 c3        1 0NS      0.144300
     17 NAP         4.7450    0.9920    0.4650 n         1 0NS     -0.457800
     18 CAS         5.7370    1.8790    1.0110 c3        1 0NS      0.080300
     19 CAO         5.1790   -0.1080   -0.2940 c         1 0NS      0.806500
     20 OAR         6.3480   -0.1880   -0.7420 o         1 0NS     -0.663500
     21 NAN         4.2710   -1.1360   -0.6070 n         1 0NS     -0.465100
     22 CAK         2.9280   -1.0690   -0.2360 ca        1 0NS      0.068600
     23 CAJ         1.9860   -2.0160   -0.6900 ca        1 0NS     -0.153000
     24 CAI         0.6630   -1.9500   -0.2820 ca        1 0NS     -0.128000
     25 H1         -2.8470    3.5180    1.6400 h1        1 0NS      0.053033
     26 H2         -4.5110    2.7340    1.6590 h1        1 0NS      0.053033
     27 H3         -3.3030    2.3590    2.9960 h1        1 0NS      0.053033
     28 H4         -3.6740    3.4580   -0.4330 ha        1 0NS      0.145000
     29 H5         -3.9040    3.1780   -2.8930 ha        1 0NS      0.139000
     30 H6         -3.4460    0.9620   -3.9520 ha        1 0NS      0.145000
     31 H7         -2.7790   -0.9800   -2.5460 ha        1 0NS      0.167000
     32 H8         -1.2080   -0.3360    1.8700 hn        1 0NS      0.456800
     33 H9          0.8560    0.8410    1.7080 ha        1 0NS      0.136000
     34 H10         3.0270    1.9980    1.0680 h1        1 0NS      0.047700
     35 H11         3.6400    0.7610    2.2580 h1        1 0NS      0.047700
     36 H12         6.0020    1.5970    2.0670 h1        1 0NS      0.049700
     37 H13         6.6650    1.8470    0.3800 h1        1 0NS      0.049700
     38 H14         5.3210    2.9210    1.0090 h1        1 0NS      0.049700
     39 H15         4.5680   -1.8160   -1.2690 hn        1 0NS      0.344500
     40 H16         2.2970   -2.8250   -1.3690 ha        1 0NS      0.144000
     41 H17        -0.0440   -2.7150   -0.6530 ha        1 0NS      0.177000
@<TRIPOS>BOND
     1    1    2 1   
     2    1   25 1   
     3    1   26 1   
     4    1   27 1   
     5    2    3 1   
     6    3    4 ar  
     7    3    8 ar  
     8    4    5 ar  
     9    4   28 1   
    10    5    6 ar  
    11    5   29 1   
    12    6    7 ar  
    13    6   30 1   
    14    7    8 ar  
    15    7   31 1   
    16    8    9 1   
    17    9   10 2   
    18    9   11 2   
    19    9   12 1   
    20   12   13 1   
    21   12   32 1   
    22   13   14 ar  
    23   13   24 ar  
    24   14   15 ar  
    25   14   33 1   
    26   15   16 1   
    27   15   22 ar  
    28   16   17 1   
    29   16   34 1   
    30   16   35 1   
    31   17   18 1   
    32   17   19 1   
    33   18   36 1   
    34   18   37 1   
    35   18   38 1   
    36   19   20 2   
    37   19   21 1   
    38   21   22 1   
    39   21   39 1   
    40   22   23 ar  
    41   23   24 ar  
    42   23   40 1   
    43   24   41 1   
@<TRIPOS>SUBSTRUCTURE
     1 0NS         1 TEMP              0 ****  ****    0 ROOT
