@<TRIPOS>MOLECULE
0NS
   42    44     1     0     0
SMALL
bcc


@<TRIPOS>ATOM
      1 CAX         0.1750    0.3630   -0.4330 c3        1 0NS      0.119700
      2 OAW         1.5460    0.0360   -0.1640 os        1 0NS     -0.379900
      3 CAE         1.9220   -0.0660    1.1510 ca        1 0NS      0.274100
      4 CAF         1.0170   -0.2360    2.2070 ca        1 0NS     -0.221000
      5 CAA         1.5030   -0.4260    3.4950 ca        1 0NS      0.025000
      6 CAB         2.8860   -0.4580    3.7330 ca        1 0NS     -0.170000
      7 CAC         3.7720   -0.2720    2.6900 ca        1 0NS      0.025000
      8 CAD         3.3250   -0.0370    1.3630 ca        1 0NS     -0.538500
      9 SAT         4.4060    0.3380    0.2320 sy        1 0NS      1.487200
     10 OAU         4.0710    1.3890   -0.5990 o         1 0NS     -0.576300
     11 OAV         5.7230    0.1970    0.6270 o         1 0NS     -0.576300
     12 NAG         4.1390   -1.1040   -0.9820 n4        1 0NS     -0.550300
     13 CAH         4.6690   -2.3800   -0.5380 ca        1 0NS     -0.117400
     14 CAM         3.8050   -3.4700   -0.3210 ca        1 0NS     -0.055000
     15 CAL         4.3120   -4.6900    0.0990 ca        1 0NS     -0.150300
     16 CAQ         3.3830   -5.8510    0.2950 c3        1 0NS      0.141300
     17 NAP         3.9500   -6.9690    1.0160 n         1 0NS     -0.452800
     18 CAS         3.1010   -8.1260    1.1540 c3        1 0NS      0.073300
     19 CAO         5.3380   -7.1510    1.0860 c         1 0NS      0.804500
     20 OAR         5.8710   -8.1980    1.5040 o         1 0NS     -0.605500
     21 NAN         6.1950   -6.0720    0.7340 n         1 0NS     -0.458100
     22 CAK         5.7100   -4.8550    0.3120 ca        1 0NS      0.159600
     23 CAJ         6.5700   -3.7530    0.0710 ca        1 0NS     -0.180000
     24 CAI         6.0590   -2.5400   -0.3550 ca        1 0NS     -0.046000
     25 H1          0.1780    0.5690   -1.5340 h1        1 0NS      0.073033
     26 H2         -0.4730   -0.5120   -0.1870 h1        1 0NS      0.073033
     27 H3         -0.1290    1.2700    0.1420 h1        1 0NS      0.073033
     28 H4         -0.0690   -0.2200    2.0210 ha        1 0NS      0.172000
     29 H5          0.7980   -0.5610    4.3350 ha        1 0NS      0.170000
     30 H6          3.2620   -0.6260    4.7560 ha        1 0NS      0.175000
     31 H7          4.8620   -0.2910    2.8850 ha        1 0NS      0.176000
     32 H8          3.1390   -1.2060   -1.1650 hn        1 0NS      0.452300
     33 H9          2.7180   -3.3730   -0.4840 ha        1 0NS      0.145000
     34 H10         2.4750   -5.5100    0.8750 h1        1 0NS      0.059700
     35 H11         3.0250   -6.1920   -0.7250 h1        1 0NS      0.059700
     36 H12         2.1650   -7.8140    1.6900 h1        1 0NS      0.062033
     37 H13         3.6300   -8.9140    1.7550 h1        1 0NS      0.062033
     38 H14         2.8270   -8.5500    0.1500 h1        1 0NS      0.062033
     39 H15         7.1730   -6.2080    0.8820 hn        1 0NS      0.362500
     40 H16         7.6580   -3.8560    0.2200 ha        1 0NS      0.170000
     41 H17         6.7540   -1.6980   -0.5230 ha        1 0NS      0.172000
     42 HAG2        4.5790   -0.8690   -1.8740 hn        1 0NS      0.452300
@<TRIPOS>BOND
     1    1    2 1   
     2    1   25 1   
     3    1   26 1   
     4    1   27 1   
     5    2    3 1   
     6    3    4 ar  
     7    3    8 ar  
     8    4    5 ar  
     9    4   28 1   
    10    5    6 ar  
    11    5   29 1   
    12    6    7 ar  
    13    6   30 1   
    14    7    8 ar  
    15    7   31 1   
    16    8    9 1   
    17    9   10 2   
    18    9   11 2   
    19    9   12 1   
    20   12   13 1   
    21   12   32 1   
    22   12   42 1   
    23   13   14 ar  
    24   13   24 ar  
    25   14   15 ar  
    26   14   33 1   
    27   15   16 1   
    28   15   22 ar  
    29   16   17 1   
    30   16   34 1   
    31   16   35 1   
    32   17   18 1   
    33   17   19 1   
    34   18   36 1   
    35   18   37 1   
    36   18   38 1   
    37   19   20 2   
    38   19   21 1   
    39   21   22 1   
    40   21   39 1   
    41   22   23 ar  
    42   23   24 ar  
    43   23   40 1   
    44   24   41 1   
@<TRIPOS>SUBSTRUCTURE
     1 0NS         1 TEMP              0 ****  ****    0 ROOT
