@<TRIPOS>MOLECULE
0NS
   41    43     1     0     0
SMALL
bcc


@<TRIPOS>ATOM
      1 CAX         0.0190    0.0770   -0.1210 c3        1 0NS      0.119700
      2 OAW         1.4160   -0.1360    0.0710 os        1 0NS     -0.349900
      3 CAE         1.9280    0.1890    1.3090 ca        1 0NS      0.239100
      4 CAF         1.1250    0.3750    2.4440 ca        1 0NS     -0.226000
      5 CAA         1.7300    0.6450    3.6670 ca        1 0NS     -0.033000
      6 CAB         3.1220    0.7300    3.7620 ca        1 0NS     -0.186000
      7 CAC         3.9040    0.5520    2.6270 ca        1 0NS      0.007000
      8 CAD         3.3330    0.2890    1.3720 ca        1 0NS     -0.405500
      9 SAT         4.3470    0.1670    0.0220 sy        1 0NS      1.523200
     10 OAU         3.9650    1.1210   -0.9390 o         1 0NS     -0.650300
     11 OAV         5.6830    0.2530    0.4710 o         1 0NS     -0.650300
     12 NAG         4.0080   -1.3120   -0.5700 nu        1 0NS     -0.764500
     13 CAH         4.5600   -2.5530   -0.2120 ca        1 0NS      0.137600
     14 CAM         3.7700   -3.7200   -0.2920 ca        1 0NS     -0.128000
     15 CAL         4.3000   -4.9630    0.0350 ca        1 0NS     -0.126300
     16 CAQ         3.4430   -6.1860   -0.0900 c3        1 0NS      0.144300
     17 NAP         3.9720   -7.3700    0.5490 n         1 0NS     -0.457800
     18 CAS         3.2180   -8.5790    0.3560 c3        1 0NS      0.080300
     19 CAO         5.3410   -7.4790    0.8500 c         1 0NS      0.806500
     20 OAR         5.8560   -8.5580    1.2250 o         1 0NS     -0.663500
     21 NAN         6.1600   -6.3370    0.7740 ns        1 0NS     -0.465100
     22 CAK         5.6410   -5.0780    0.4670 ca        1 0NS      0.068600
     23 CAJ         6.4290   -3.9120    0.5520 ca        1 0NS     -0.153000
     24 CAI         5.9030   -2.6760    0.2100 ca        1 0NS     -0.128000
     25 H1         -0.5660   -0.6770    0.4610 h1        1 0NS      0.053033
     26 H2         -0.2690    1.1150    0.1720 h1        1 0NS      0.053033
     27 H3         -0.1160   -0.0780   -1.2220 h1        1 0NS      0.053033
     28 H4          0.0310    0.3060    2.3760 ha        1 0NS      0.145000
     29 H5          1.1080    0.7900    4.5640 ha        1 0NS      0.139000
     30 H6          3.5960    0.9380    4.7310 ha        1 0NS      0.145000
     31 H7          5.0060    0.6230    2.7040 ha        1 0NS      0.167000
     32 H8          3.2250   -1.4020   -1.1830 hn        1 0NS      0.456800
     33 H9          2.7210   -3.6610   -0.6230 ha        1 0NS      0.136000
     34 H10         3.2720   -6.3880   -1.1920 h1        1 0NS      0.047700
     35 H11         2.4330   -5.9820    0.3750 h1        1 0NS      0.047700
     36 H12         3.1590   -8.8550   -0.7330 h1        1 0NS      0.049700
     37 H13         2.1770   -8.4140    0.7430 h1        1 0NS      0.049700
     38 H14         3.6970   -9.4220    0.9220 h1        1 0NS      0.049700
     39 H15         7.0820   -6.4160    1.1380 hn        1 0NS      0.344500
     40 H16         7.4770   -3.9740    0.8850 ha        1 0NS      0.144000
     41 H17         6.5540   -1.7850    0.2820 ha        1 0NS      0.177000
@<TRIPOS>BOND
     1    1    2 1   
     2    1   25 1   
     3    1   26 1   
     4    1   27 1   
     5    2    3 1   
     6    3    4 ar  
     7    3    8 ar  
     8    4    5 ar  
     9    4   28 1   
    10    5    6 ar  
    11    5   29 1   
    12    6    7 ar  
    13    6   30 1   
    14    7    8 ar  
    15    7   31 1   
    16    8    9 1   
    17    9   10 2   
    18    9   11 2   
    19    9   12 1   
    20   12   13 1   
    21   12   32 1   
    22   13   14 ar  
    23   13   24 ar  
    24   14   15 ar  
    25   14   33 1   
    26   15   16 1   
    27   15   22 ar  
    28   16   17 1   
    29   16   34 1   
    30   16   35 1   
    31   17   18 1   
    32   17   19 1   
    33   18   36 1   
    34   18   37 1   
    35   18   38 1   
    36   19   20 2   
    37   19   21 1   
    38   21   22 1   
    39   21   39 1   
    40   22   23 ar  
    41   23   24 ar  
    42   23   40 1   
    43   24   41 1   
@<TRIPOS>SUBSTRUCTURE
     1 0NS         1 TEMP              0 ****  ****    0 ROOT
