@<TRIPOS>MOLECULE
0NS
   41    36     1     0     0
SMALL
bcc


@<TRIPOS>ATOM
      1 CAX        -2.2630    1.6950   -3.9070 c3        1 0NS     -0.070000
      2 OAW        -1.9470    1.8530   -2.5120 os        1 0NS     -0.233000
      3 CAE        -1.4360    3.1480   -2.1720 c1        1 0NS      0.194000
      4 CAF        -2.1370    4.2750   -2.5210 c1        1 0NS     -0.109500
      5 CAA        -1.6770    5.5440   -2.1240 c1        1 0NS     -0.109500
      6 CAB        -0.5060    5.6580   -1.3740 c1        1 0NS     -0.109500
      7 CAC         0.1990    4.5270   -1.0230 c1        1 0NS     -0.109500
      8 CAD        -0.2640    3.2590   -1.4210 c1        1 0NS     -0.850000
      9 SAT         0.6750    1.8250   -1.0490 s4        1 0NS      2.078800
     10 OAU         0.7900    0.9850   -2.1660 o         1 0NS     -0.537900
     11 OAV         2.0020    2.1410   -0.8120 o         1 0NS     -0.537900
     12 NAG        -0.0070    1.0060    0.2660 n2        1 0NS     -0.814000
     13 CAH         0.7980    0.1480    1.0620 c2        1 0NS      0.056000
     14 CAM         0.0420   -1.0120    1.0610 c2        1 0NS     -0.128000
     15 CAL         0.5620   -2.1930    1.6330 c1        1 0NS     -0.119000
     16 CAQ        -0.1690   -3.5040    1.4270 c3        1 0NS      0.021000
     17 NAP         0.3460   -4.6640    2.0100 n3        1 0NS     -0.316000
     18 CAS        -0.3940   -5.9270    1.9060 c3        1 0NS     -0.075000
     19 CAO         1.5760   -4.6090    2.7480 c1        1 0NS      0.397000
     20 OAR         1.9910   -5.5960    3.3050 o         1 0NS     -0.388000
     21 NAN         2.3260   -3.3810    2.8070 n2        1 0NS     -0.319000
     22 CAK         1.8070   -2.1880    2.1870 c1        1 0NS      0.076000
     23 CAJ         2.5710   -1.0120    2.1870 c1        1 0NS     -0.153000
     24 CAI         2.0610    0.1490    1.6250 c1        1 0NS     -0.128000
     25 H1         -1.4710    1.8680   -4.4420 h1        1 0NS      0.092333
     26 H2         -2.5750    0.7690   -4.0710 h1        1 0NS      0.092333
     27 H3         -3.0060    2.3590   -4.1700 h1        1 0NS      0.092333
     28 H4         -2.9660    4.1960   -3.0510 ha        1 0NS      0.149000
     29 H5         -2.1740    6.3380   -2.3730 ha        1 0NS      0.149000
     30 H6         -0.1750    6.5660   -1.0900 ha        1 0NS      0.149000
     31 H7          1.0320    4.6070   -0.4900 ha        1 0NS      0.149000
     32 H8         -0.8950    1.1970    0.5280 hn        1 0NS      0.252000
     33 H9         -0.8590   -1.0010    0.7060 ha        1 0NS      0.136000
     34 H10        -1.0750   -3.3900    1.7590 h1        1 0NS      0.087000
     35 H11        -0.2260   -3.6650    0.4240 h1        1 0NS      0.087000
     36 H12        -1.2940   -5.7570    1.4500 h1        1 0NS      0.089000
     37 H13         0.1180   -6.5580    1.3840 h1        1 0NS      0.089000
     38 H14        -0.5440   -6.2870    2.7900 h1        1 0NS      0.089000
     39 H15         3.0950   -3.3470    3.2700 hn        1 0NS      0.258000
     40 H16         3.4740   -1.0110    2.5890 ha        1 0NS      0.144000
     41 H17         2.5930    0.9860    1.6460 ha        1 0NS      0.177000
@<TRIPOS>BOND
     1    1    2 1   
     2    1   25 1   
     3    1   26 1   
     4    1   27 1   
     5    2    3 1   
     6    3    8 1   
     7    4    5 1   
     8    4   28 1   
     9    5   29 1   
    10    6    7 1   
    11    6   30 1   
    12    7   31 1   
    13    8    9 1   
    14    9   10 1   
    15    9   11 1   
    16   12   13 1   
    17   12   32 1   
    18   13   14 1   
    19   13   24 1   
    20   14   15 1   
    21   14   33 1   
    22   15   16 1   
    23   16   17 1   
    24   16   34 1   
    25   16   35 1   
    26   17   18 1   
    27   17   19 1   
    28   18   36 1   
    29   18   37 1   
    30   18   38 1   
    31   19   20 1   
    32   21   22 1   
    33   21   39 1   
    34   22   23 1   
    35   23   40 1   
    36   24   41 1   
@<TRIPOS>SUBSTRUCTURE
     1 0NS         1 TEMP              0 ****  ****    0 ROOT
