@<TRIPOS>MOLECULE
0NS
   41    43     1     0     0
SMALL
bcc


@<TRIPOS>ATOM
      1 CAX         0.0140    0.0700   -0.1200 c3        1 0NS      0.119700
      2 OAW         1.4120   -0.1400    0.0690 os        1 0NS     -0.349900
      3 CAE         1.9260    0.1880    1.3060 ca        1 0NS      0.239100
      4 CAF         1.1240    0.3750    2.4420 ca        1 0NS     -0.226000
      5 CAA         1.7320    0.6480    3.6630 ca        1 0NS     -0.033000
      6 CAB         3.1230    0.7340    3.7560 ca        1 0NS     -0.186000
      7 CAC         3.9030    0.5550    2.6200 ca        1 0NS      0.007000
      8 CAD         3.3310    0.2900    1.3670 ca        1 0NS     -0.405500
      9 SAT         4.3430    0.1670    0.0150 sy        1 0NS      1.523200
     10 OAU         3.9580    1.1180   -0.9470 o         1 0NS     -0.650300
     11 OAV         5.6790    0.2550    0.4610 o         1 0NS     -0.650300
     12 NAG         4.0050   -1.3140   -0.5740 nh        1 0NS     -0.764500
     13 CAH         4.5580   -2.5530   -0.2140 ca        1 0NS      0.137600
     14 CAM         3.7700   -3.7220   -0.2920 ca        1 0NS     -0.128000
     15 CAL         4.3010   -4.9640    0.0370 ca        1 0NS     -0.126300
     16 CAQ         3.4450   -6.1870   -0.0850 c3        1 0NS      0.144300
     17 NAP         3.9760   -7.3700    0.5570 n         1 0NS     -0.457800
     18 CAS         3.2230   -8.5800    0.3660 c3        1 0NS      0.080300
     19 CAO         5.3460   -7.4760    0.8560 c         1 0NS      0.806500
     20 OAR         5.8630   -8.5540    1.2320 o         1 0NS     -0.663500
     21 NAN         6.1630   -6.3340    0.7760 n         1 0NS     -0.465100
     22 CAK         5.6430   -5.0770    0.4680 ca        1 0NS      0.068600
     23 CAJ         6.4300   -3.9090    0.5500 ca        1 0NS     -0.153000
     24 CAI         5.9020   -2.6740    0.2060 ca        1 0NS     -0.128000
     25 H1         -0.1230   -0.0860   -1.2200 h1        1 0NS      0.053033
     26 H2         -0.5690   -0.6830    0.4640 h1        1 0NS      0.053033
     27 H3         -0.2750    1.1090    0.1710 h1        1 0NS      0.053033
     28 H4          0.0300    0.3040    2.3760 ha        1 0NS      0.145000
     29 H5          1.1100    0.7940    4.5610 ha        1 0NS      0.139000
     30 H6          3.5990    0.9460    4.7240 ha        1 0NS      0.145000
     31 H7          5.0050    0.6280    2.6950 ha        1 0NS      0.167000
     32 H8          3.2200   -1.4050   -1.1860 hn        1 0NS      0.456800
     33 H9          2.7200   -3.6640   -0.6210 ha        1 0NS      0.136000
     34 H10         2.4350   -5.9830    0.3810 h1        1 0NS      0.047700
     35 H11         3.2730   -6.3910   -1.1850 h1        1 0NS      0.047700
     36 H12         3.7040   -9.4210    0.9340 h1        1 0NS      0.049700
     37 H13         2.1830   -8.4150    0.7550 h1        1 0NS      0.049700
     38 H14         3.1640   -8.8580   -0.7210 h1        1 0NS      0.049700
     39 H15         7.0850   -6.4110    1.1390 hn        1 0NS      0.344500
     40 H16         7.4780   -3.9690    0.8810 ha        1 0NS      0.144000
     41 H17         6.5520   -1.7830    0.2750 ha        1 0NS      0.177000
@<TRIPOS>BOND
     1    1    2 1   
     2    1   25 1   
     3    1   26 1   
     4    1   27 1   
     5    2    3 1   
     6    3    4 ar  
     7    3    8 ar  
     8    4    5 ar  
     9    4   28 1   
    10    5    6 ar  
    11    5   29 1   
    12    6    7 ar  
    13    6   30 1   
    14    7    8 ar  
    15    7   31 1   
    16    8    9 1   
    17    9   10 2   
    18    9   11 2   
    19    9   12 1   
    20   12   13 1   
    21   12   32 1   
    22   13   14 ar  
    23   13   24 ar  
    24   14   15 ar  
    25   14   33 1   
    26   15   16 1   
    27   15   22 ar  
    28   16   17 1   
    29   16   34 1   
    30   16   35 1   
    31   17   18 1   
    32   17   19 1   
    33   18   36 1   
    34   18   37 1   
    35   18   38 1   
    36   19   20 2   
    37   19   21 1   
    38   21   22 1   
    39   21   39 1   
    40   22   23 ar  
    41   23   24 ar  
    42   23   40 1   
    43   24   41 1   
@<TRIPOS>SUBSTRUCTURE
     1 0NS         1 TEMP              0 ****  ****    0 ROOT
