@<TRIPOS>MOLECULE
0NT
   56    60     1     0     0
SMALL
bcc


@<TRIPOS>ATOM
      1 C7          0.5880   -0.2750   -0.1560 c3        1 0NT     -0.082400
      2 C2          0.1540   -0.3190    3.5000 c3        1 0NT      0.194500
      3 C10        -1.0180   -1.9690    0.7930 c         1 0NT      0.648100
      4 C6          2.0080   -0.0350    0.3370 c3        1 0NT     -0.090400
      5 C1         -1.2020   -0.9330    3.8550 c3        1 0NT     -0.095600
      6 C3          1.1200   -0.6060    4.6530 c3        1 0NT     -0.095600
      7 N4          0.6730   -0.8190    2.2250 n3        1 0NT     -0.719600
      8 C5          1.9800   -0.2840    1.8520 c3        1 0NT      0.172800
      9 C8         -0.2410   -0.6700    1.0880 c3        1 0NT      0.127500
     10 O11        -0.7040   -3.0690    1.2780 o         1 0NT     -0.562100
     11 N12        -2.0730   -1.9160   -0.1370 n         1 0NT     -0.462800
     12 C13        -2.7260   -0.6830   -0.5100 c3        1 0NT      0.075500
     13 C14        -4.0230   -0.4100    0.2550 c3        1 0NT     -0.122900
     14 C15        -4.9860   -1.5980    0.0730 c3        1 0NT      0.059000
     15 C16        -4.2830   -2.8940    0.5130 c3        1 0NT     -0.122900
     16 C17        -2.9590   -3.0630   -0.2360 c3        1 0NT      0.075500
     17 N18        -6.2490   -1.3950    0.7390 na        1 0NT     -0.153300
     18 C19        -6.4580   -1.2960    2.1370 cc        1 0NT      0.394700
     19 N20        -7.7390   -1.0750    2.4680 nd        1 0NT     -0.539100
     20 C21        -8.4320   -1.0170    1.2460 ca        1 0NT     -0.088900
     21 C22        -7.5000   -1.2160    0.1490 ca        1 0NT     -0.002200
     22 C23        -7.9860   -1.1970   -1.1630 ca        1 0NT     -0.193100
     23 C24        -7.4640   -1.3420   -2.4920 cc        1 0NT     -0.179200
     24 C25        -8.5390   -1.2090   -3.3710 cd        1 0NT     -0.117100
     25 N26        -9.7190   -0.9860   -2.6630 na        1 0NT     -0.272100
     26 C28        -9.4190   -0.9720   -1.2930 ca        1 0NT      0.421800
     27 N29       -10.3130   -0.7820   -0.2610 nb        1 0NT     -0.684000
     28 C30        -9.8110   -0.8080    0.9670 ca        1 0NT      0.484200
     29 H1          0.1610    0.6470   -0.6190 hc        1 0NT      0.055700
     30 H2          0.5670   -1.0870   -0.9240 hc        1 0NT      0.055700
     31 H3          0.0150    0.8080    3.4460 h1        1 0NT      0.009700
     32 H4          2.7240   -0.7350   -0.1580 hc        1 0NT      0.052200
     33 H5          2.3410    1.0080    0.1170 hc        1 0NT      0.052200
     34 H6         -1.4940   -0.6040    4.8810 hc        1 0NT      0.042033
     35 H7         -1.1470   -2.0490    3.8320 hc        1 0NT      0.042033
     36 H8         -1.9930   -0.6010    3.1400 hc        1 0NT      0.042033
     37 H10         0.6890   -0.1940    5.5960 hc        1 0NT      0.042033
     38 H11         1.2700   -1.7060    4.7760 hc        1 0NT      0.042033
     39 H12         2.1130   -0.1280    4.4790 hc        1 0NT      0.042033
     40 H14         2.7480   -1.0500    2.1460 h1        1 0NT      0.044200
     41 H15         2.2190    0.6730    2.3970 h1        1 0NT      0.044200
     42 H9         -1.0010    0.1390    1.3110 h1        1 0NT      0.043700
     43 H16        -2.9730   -0.7620   -1.6110 h1        1 0NT      0.064200
     44 H17        -2.0330    0.1930   -0.3920 h1        1 0NT      0.064200
     45 H18        -4.4850    0.5280   -0.1450 hc        1 0NT      0.062200
     46 H19        -3.8060   -0.2520    1.3430 hc        1 0NT      0.062200
     47 H20        -5.2160   -1.6880   -1.0340 h1        1 0NT      0.074700
     48 H21        -4.9320   -3.7790    0.2870 hc        1 0NT      0.062200
     49 H22        -4.0980   -2.8770    1.6180 hc        1 0NT      0.062200
     50 H23        -3.1750   -3.2230   -1.3310 h1        1 0NT      0.064200
     51 H24        -2.4340   -3.9790    0.1570 h1        1 0NT      0.064200
     52 H25        -5.6280   -1.4030    2.8450 h5        1 0NT      0.069800
     53 H26        -6.4300   -1.5220   -2.7700 ha        1 0NT      0.151000
     54 H28        -8.5510   -1.2580   -4.4620 h4        1 0NT      0.169000
     55 H27       -10.6190   -0.8630   -3.0480 hn        1 0NT      0.310700
     56 H29       -10.5290   -0.6570    1.7940 h4        1 0NT      0.038100
@<TRIPOS>BOND
     1    1    4 1   
     2    1    9 1   
     3    1   29 1   
     4    1   30 1   
     5    2    5 1   
     6    2    6 1   
     7    2    7 1   
     8    2   31 1   
     9    3    9 1   
    10    3   10 2   
    11    3   11 1   
    12    4    8 1   
    13    4   32 1   
    14    4   33 1   
    15    5   34 1   
    16    5   35 1   
    17    5   36 1   
    18    6   37 1   
    19    6   38 1   
    20    6   39 1   
    21    7    8 1   
    22    7    9 1   
    23    8   40 1   
    24    8   41 1   
    25    9   42 1   
    26   11   12 1   
    27   11   16 1   
    28   12   13 1   
    29   12   43 1   
    30   12   44 1   
    31   13   14 1   
    32   13   45 1   
    33   13   46 1   
    34   14   15 1   
    35   14   17 1   
    36   14   47 1   
    37   15   16 1   
    38   15   48 1   
    39   15   49 1   
    40   16   50 1   
    41   16   51 1   
    42   17   18 1   
    43   17   21 1   
    44   18   19 2   
    45   18   52 1   
    46   19   20 1   
    47   20   21 ar  
    48   20   28 ar  
    49   21   22 ar  
    50   22   23 1   
    51   22   26 ar  
    52   23   24 2   
    53   23   53 1   
    54   24   25 1   
    55   24   54 1   
    56   25   26 1   
    57   25   55 1   
    58   26   27 ar  
    59   27   28 ar  
    60   28   56 1   
@<TRIPOS>SUBSTRUCTURE
     1 0NT         1 TEMP              0 ****  ****    0 ROOT
