@<TRIPOS>MOLECULE
0NT
   56    51     1     0     0
SMALL
bcc


@<TRIPOS>ATOM
      1 C7          3.5280    1.4430   -0.3880 c3        1 0NT     -0.166000
      2 C2          2.8200    4.2580    0.2940 c3        1 0NT     -0.010000
      3 C10         2.0050    0.6000    1.1630 c1        1 0NT      0.304000
      4 C6          4.7070    1.9610    0.4330 c3        1 0NT     -0.169000
      5 C1          3.5450    5.4210    0.9720 c3        1 0NT     -0.212000
      6 C3          1.3300    4.6420    0.0580 c3        1 0NT     -0.212000
      7 N4          2.8940    3.0770    1.1470 n3        1 0NT     -0.243000
      8 C5          4.1170    2.8790    1.4950 c3        1 0NT     -0.068000
      9 C8          2.4230    1.7690    0.3060 c3        1 0NT     -0.021000
     10 O11         2.8000    0.0760    1.8880 o         1 0NT     -0.340000
     11 N12         0.6320    0.0550    1.0530 n2        1 0NT     -0.319000
     12 C13         0.1800   -1.1190    1.7980 c3        1 0NT     -0.035500
     13 C14        -0.4590   -2.1710    0.8900 c3        1 0NT     -0.201000
     14 C15        -1.5140   -1.5950    0.0180 c3        1 0NT      0.039000
     15 C16        -1.0290   -0.3940   -0.7300 c3        1 0NT     -0.201000
     16 C17        -0.3870    0.6390    0.1900 c3        1 0NT     -0.035500
     17 N18        -1.9470   -2.6290   -0.9600 n3        1 0NT     -0.179000
     18 C19        -0.9210   -2.9490   -1.7910 c1        1 0NT     -0.061000
     19 N20        -1.3670   -3.8800   -2.6680 n2        1 0NT     -0.113000
     20 C21        -2.6760   -4.1380   -2.3800 c1        1 0NT     -0.163000
     21 C22        -3.0330   -3.3670   -1.3280 c1        1 0NT      0.042000
     22 C23        -4.3160   -3.4640   -0.7980 c1        1 0NT     -0.116000
     23 C24        -4.9160   -2.8490    0.2740 c1        1 0NT     -0.191000
     24 C25        -6.1880   -3.3460    0.3900 c1        1 0NT     -0.090000
     25 N26        -6.3770   -4.2710   -0.6120 n2        1 0NT     -0.186000
     26 C28        -5.2220   -4.3440   -1.3450 c1        1 0NT      0.030000
     27 N29        -4.8580   -5.1320   -2.4210 n1        1 0NT     -0.159000
     28 C30        -3.6050   -5.0390   -2.9400 c1        1 0NT      0.019000
     29 H1          3.5880    0.4790   -0.4890 hc        1 0NT      0.096000
     30 H2          3.5140    1.8730   -1.2630 hc        1 0NT      0.096000
     31 H3          3.2540    4.0630   -0.5800 h1        1 0NT      0.053000
     32 H4          5.1810    1.2070    0.8610 hc        1 0NT      0.092500
     33 H5          5.3170    2.4600   -0.1380 hc        1 0NT      0.092500
     34 H6          4.4690    5.4710    0.6390 hc        1 0NT      0.080333
     35 H7          3.5540    5.2780    1.9460 hc        1 0NT      0.080333
     36 H8          3.0770    6.2630    0.7690 hc        1 0NT      0.080333
     37 H10         0.9170    4.8840    0.9110 hc        1 0NT      0.080333
     38 H11         0.8540    3.8810   -0.3310 hc        1 0NT      0.080333
     39 H12         1.2830    5.4070   -0.5560 hc        1 0NT      0.080333
     40 H14         4.5980    3.7190    1.5150 h1        1 0NT      0.086500
     41 H15         4.1530    2.4490    2.3690 h1        1 0NT      0.086500
     42 H9          1.6050    1.9430   -0.1900 h1        1 0NT      0.089000
     43 H16         0.9550   -1.5230    2.2580 h1        1 0NT      0.101500
     44 H17        -0.4790   -0.8350    2.4730 h1        1 0NT      0.101500
     45 H18        -0.8570   -2.8720    1.4480 hc        1 0NT      0.102250
     46 H19         0.2280   -2.5650    0.3330 hc        1 0NT      0.102250
     47 H20        -2.2890   -1.3350    0.5780 h1        1 0NT      0.114000
     48 H21        -0.3740   -0.6780   -1.3910 hc        1 0NT      0.102250
     49 H22        -1.7930    0.0230   -1.1940 hc        1 0NT      0.102250
     50 H23         0.0250    1.3370   -0.3570 h1        1 0NT      0.101500
     51 H24        -1.0940    1.0500    0.7570 h1        1 0NT      0.101500
     52 H25        -0.0280   -2.5330   -1.7940 DU        1 0NT      0.195250
     53 H26        -4.5010   -2.1640    0.8610 DU        1 0NT      0.195250
     54 H28        -6.8170   -3.1350    1.0960 DU        1 0NT      0.195250
     55 H27        -7.1290   -4.7440   -0.7600 DU        1 0NT      0.195250
     56 H29        -3.3760   -5.5350   -3.7820 ha        1 0NT      0.175000
@<TRIPOS>BOND
     1    1    4 1   
     2    1    9 1   
     3    1   29 1   
     4    1   30 1   
     5    2    5 1   
     6    2    6 1   
     7    2    7 1   
     8    2   31 1   
     9    3    9 1   
    10    3   10 1   
    11    4    8 1   
    12    4   32 1   
    13    4   33 1   
    14    5   34 1   
    15    5   35 1   
    16    5   36 1   
    17    6   37 1   
    18    6   38 1   
    19    6   39 1   
    20    7    8 1   
    21    7    9 1   
    22    8   40 1   
    23    8   41 1   
    24    9   42 1   
    25   11   12 1   
    26   11   16 1   
    27   12   13 1   
    28   12   43 1   
    29   12   44 1   
    30   13   14 1   
    31   13   45 1   
    32   13   46 1   
    33   14   15 1   
    34   14   17 1   
    35   14   47 1   
    36   15   16 1   
    37   15   48 1   
    38   15   49 1   
    39   16   50 1   
    40   16   51 1   
    41   17   18 1   
    42   17   21 1   
    43   18   19 1   
    44   19   20 1   
    45   20   28 1   
    46   21   22 1   
    47   23   24 1   
    48   24   25 1   
    49   25   26 1   
    50   26   27 1   
    51   28   56 1   
@<TRIPOS>SUBSTRUCTURE
     1 0NT         1 TEMP              0 ****  ****    0 ROOT
