@<TRIPOS>MOLECULE
0NT
   56    60     1     0     0
SMALL
bcc


@<TRIPOS>ATOM
      1 C7          0.5870   -0.2930   -0.1600 c3        1 0NT     -0.082400
      2 C2          0.1570   -0.2960    3.4970 c3        1 0NT      0.194500
      3 C10        -1.0210   -1.9730    0.8100 c         1 0NT      0.648100
      4 C6          2.0080   -0.0510    0.3290 c3        1 0NT     -0.090400
      5 C1         -1.1990   -0.9040    3.8600 c3        1 0NT     -0.095600
      6 C3          1.1240   -0.5720    4.6520 c3        1 0NT     -0.095600
      7 N4          0.6740   -0.8110    2.2270 n3        1 0NT     -0.719600
      8 C5          1.9810   -0.2810    1.8460 c3        1 0NT      0.172800
      9 C8         -0.2410   -0.6730    1.0900 c3        1 0NT      0.127500
     10 O11        -0.7100   -3.0670    1.3080 o         1 0NT     -0.562100
     11 N12        -2.0760   -1.9290   -0.1220 n         1 0NT     -0.462800
     12 C13        -2.7260   -0.6990   -0.5090 c3        1 0NT      0.076000
     13 C14        -4.0250   -0.4160    0.2510 c3        1 0NT     -0.122900
     14 C15        -4.9890   -1.6050    0.0780 c3        1 0NT      0.059000
     15 C16        -4.2880   -2.8970    0.5330 c3        1 0NT     -0.122900
     16 C17        -2.9620   -3.0750   -0.2110 c3        1 0NT      0.076000
     17 N18        -6.2530   -1.3940    0.7390 na        1 0NT     -0.153300
     18 C19        -6.4660   -1.2830    2.1360 cc        1 0NT      0.394700
     19 N20        -7.7470   -1.0560    2.4610 nd        1 0NT     -0.539100
     20 C21        -8.4360   -1.0060    1.2370 ca        1 0NT     -0.088900
     21 C22        -7.5020   -1.2160    0.1440 ca        1 0NT     -0.002200
     22 C23        -7.9830   -1.2060   -1.1690 ca        1 0NT     -0.193100
     23 C24        -7.4580   -1.3630   -2.4960 cc        1 0NT     -0.179200
     24 C25        -8.5300   -1.2350   -3.3800 cd        1 0NT     -0.117100
     25 N26        -9.7120   -1.0020   -2.6770 na        1 0NT     -0.272100
     26 C28        -9.4160   -0.9790   -1.3060 ca        1 0NT      0.421800
     27 N29       -10.3120   -0.7780   -0.2780 nb        1 0NT     -0.684000
     28 C30        -9.8140   -0.7960    0.9520 ca        1 0NT      0.484200
     29 H1          0.1610    0.6260   -0.6330 hc        1 0NT      0.055700
     30 H2          0.5640   -1.1130   -0.9190 hc        1 0NT      0.055700
     31 H3          0.0200    0.8300    3.4310 h1        1 0NT      0.009700
     32 H4          2.7220   -0.7580   -0.1590 hc        1 0NT      0.052200
     33 H5          2.3440    0.9890    0.0970 hc        1 0NT      0.052200
     34 H6         -1.1470   -2.0210    3.8490 hc        1 0NT      0.042033
     35 H7         -1.9910   -0.5790    3.1430 hc        1 0NT      0.042033
     36 H8         -1.4890   -0.5640    4.8830 hc        1 0NT      0.042033
     37 H10         1.2730   -1.6700    4.7860 hc        1 0NT      0.042033
     38 H11         0.6940   -0.1490    5.5910 hc        1 0NT      0.042033
     39 H12         2.1180   -0.0970    4.4720 hc        1 0NT      0.042033
     40 H14         2.2220    0.6810    2.3810 h1        1 0NT      0.044200
     41 H15         2.7480   -1.0460    2.1490 h1        1 0NT      0.044200
     42 H9         -0.9990    0.1410    1.3040 h1        1 0NT      0.043700
     43 H16        -2.9710   -0.7880   -1.6100 h1        1 0NT      0.064200
     44 H17        -2.0330    0.1780   -0.3980 h1        1 0NT      0.064200
     45 H18        -4.4850    0.5190   -0.1600 hc        1 0NT      0.062200
     46 H19        -3.8100   -0.2480    1.3370 hc        1 0NT      0.062200
     47 H20        -5.2160   -1.7060   -1.0280 h1        1 0NT      0.074700
     48 H21        -4.1060   -2.8680    1.6380 hc        1 0NT      0.062200
     49 H22        -4.9370   -3.7840    0.3160 hc        1 0NT      0.062200
     50 H23        -2.4390   -3.9880    0.1930 h1        1 0NT      0.064200
     51 H24        -3.1770   -3.2470   -1.3040 h1        1 0NT      0.064200
     52 H25        -5.6380   -1.3860    2.8470 h5        1 0NT      0.069800
     53 H26        -6.4240   -1.5490   -2.7700 ha        1 0NT      0.151000
     54 H28        -8.5390   -1.2930   -4.4700 h4        1 0NT      0.169000
     55 H27       -10.6100   -0.8800   -3.0660 hn        1 0NT      0.310700
     56 H29       -10.5340   -0.6360    1.7750 h4        1 0NT      0.038100
@<TRIPOS>BOND
     1    1    4 1   
     2    1    9 1   
     3    1   29 1   
     4    1   30 1   
     5    2    5 1   
     6    2    6 1   
     7    2    7 1   
     8    2   31 1   
     9    3    9 1   
    10    3   10 2   
    11    3   11 1   
    12    4    8 1   
    13    4   32 1   
    14    4   33 1   
    15    5   34 1   
    16    5   35 1   
    17    5   36 1   
    18    6   37 1   
    19    6   38 1   
    20    6   39 1   
    21    7    8 1   
    22    7    9 1   
    23    8   40 1   
    24    8   41 1   
    25    9   42 1   
    26   11   12 1   
    27   11   16 1   
    28   12   13 1   
    29   12   43 1   
    30   12   44 1   
    31   13   14 1   
    32   13   45 1   
    33   13   46 1   
    34   14   15 1   
    35   14   17 1   
    36   14   47 1   
    37   15   16 1   
    38   15   48 1   
    39   15   49 1   
    40   16   50 1   
    41   16   51 1   
    42   17   18 1   
    43   17   21 1   
    44   18   19 2   
    45   18   52 1   
    46   19   20 1   
    47   20   21 ar  
    48   20   28 ar  
    49   21   22 ar  
    50   22   23 1   
    51   22   26 ar  
    52   23   24 2   
    53   23   53 1   
    54   24   25 1   
    55   24   54 1   
    56   25   26 1   
    57   25   55 1   
    58   26   27 ar  
    59   27   28 ar  
    60   28   56 1   
@<TRIPOS>SUBSTRUCTURE
     1 0NT         1 TEMP              0 ****  ****    0 ROOT
