@<TRIPOS>MOLECULE
0NT
   56    60     1     0     0
SMALL
bcc


@<TRIPOS>ATOM
      1 C7          0.5780   -0.2460   -0.1510 c3        1 0NT     -0.082400
      2 C2          0.1540   -0.3260    3.5050 c3        1 0NT      0.194500
      3 C10        -1.0160   -1.9580    0.7870 c         1 0NT      0.648100
      4 C6          1.9980   -0.0030    0.3410 c3        1 0NT     -0.090400
      5 C1         -1.1970   -0.9530    3.8590 c3        1 0NT     -0.095600
      6 C3          1.1250   -0.6180    4.6530 c3        1 0NT     -0.095600
      7 N4          0.6730   -0.8110    2.2250 n3        1 0NT     -0.719600
      8 C5          1.9750   -0.2640    1.8530 c3        1 0NT      0.172800
      9 C8         -0.2450   -0.6570    1.0920 c3        1 0NT      0.127500
     10 O11        -0.6940   -3.0600    1.2620 o         1 0NT     -0.562100
     11 N12        -2.0720   -1.9030   -0.1410 n         1 0NT     -0.462800
     12 C13        -2.7330   -0.6710   -0.5030 c3        1 0NT      0.075500
     13 C14        -4.0320   -0.4140    0.2660 c3        1 0NT     -0.122900
     14 C15        -4.9870   -1.6060    0.0720 c3        1 0NT      0.059000
     15 C16        -4.2750   -2.9020    0.4990 c3        1 0NT     -0.122900
     16 C17        -2.9500   -3.0540   -0.2510 c3        1 0NT      0.075500
     17 N18        -6.2510   -1.4190    0.7400 na        1 0NT     -0.153300
     18 C19        -6.4610   -1.3370    2.1390 cc        1 0NT      0.394700
     19 N20        -7.7430   -1.1270    2.4710 nd        1 0NT     -0.539100
     20 C21        -8.4360   -1.0580    1.2500 ca        1 0NT     -0.088900
     21 C22        -7.5030   -1.2390    0.1520 ca        1 0NT     -0.002200
     22 C23        -7.9880   -1.2080   -1.1600 ca        1 0NT     -0.193100
     23 C24        -7.4650   -1.3340   -2.4910 cc        1 0NT     -0.179200
     24 C25        -8.5410   -1.1970   -3.3690 cd        1 0NT     -0.117100
     25 N26        -9.7220   -0.9890   -2.6590 na        1 0NT     -0.272100
     26 C28        -9.4230   -0.9900   -1.2890 ca        1 0NT      0.421800
     27 N29       -10.3180   -0.8170   -0.2560 nb        1 0NT     -0.684000
     28 C30        -9.8170   -0.8540    0.9730 ca        1 0NT      0.484200
     29 H1          0.1440    0.6790   -0.6050 hc        1 0NT      0.055700
     30 H2          0.5590   -1.0510   -0.9260 hc        1 0NT      0.055700
     31 H3          0.0080    0.8000    3.4620 h1        1 0NT      0.009700
     32 H4          2.7160   -0.6940   -0.1630 hc        1 0NT      0.052200
     33 H5          2.3250    1.0440    0.1290 hc        1 0NT      0.052200
     34 H6         -1.9920   -0.6200    3.1490 hc        1 0NT      0.042033
     35 H7         -1.1350   -2.0680    3.8250 hc        1 0NT      0.042033
     36 H8         -1.4880   -0.6350    4.8880 hc        1 0NT      0.042033
     37 H10         1.2840   -1.7170    4.7650 hc        1 0NT      0.042033
     38 H11         2.1150   -0.1300    4.4810 hc        1 0NT      0.042033
     39 H12         0.6940   -0.2170    5.6010 hc        1 0NT      0.042033
     40 H14         2.2090    0.6890    2.4060 h1        1 0NT      0.044200
     41 H15         2.7490   -1.0280    2.1380 h1        1 0NT      0.044200
     42 H9         -1.0090    0.1450    1.3240 h1        1 0NT      0.043700
     43 H16        -2.9800   -0.7410   -1.6040 h1        1 0NT      0.064200
     44 H17        -2.0460    0.2080   -0.3760 h1        1 0NT      0.064200
     45 H18        -4.5000    0.5250   -0.1250 hc        1 0NT      0.062200
     46 H19        -3.8150   -0.2650    1.3550 hc        1 0NT      0.062200
     47 H20        -5.2170   -1.6870   -1.0360 h1        1 0NT      0.074700
     48 H21        -4.0900   -2.8940    1.6040 hc        1 0NT      0.062200
     49 H22        -4.9180   -3.7890    0.2660 hc        1 0NT      0.062200
     50 H23        -3.1660   -3.2060   -1.3480 h1        1 0NT      0.064200
     51 H24        -2.4190   -3.9710    0.1330 h1        1 0NT      0.064200
     52 H25        -5.6310   -1.4470    2.8460 h5        1 0NT      0.069800
     53 H26        -6.4300   -1.5060   -2.7710 ha        1 0NT      0.151000
     54 H28        -8.5520   -1.2340   -4.4600 h4        1 0NT      0.169000
     55 H27       -10.6220   -0.8670   -3.0430 hn        1 0NT      0.310700
     56 H29       -10.5360   -0.7160    1.8010 h4        1 0NT      0.038100
@<TRIPOS>BOND
     1    1    4 1   
     2    1    9 1   
     3    1   29 1   
     4    1   30 1   
     5    2    5 1   
     6    2    6 1   
     7    2    7 1   
     8    2   31 1   
     9    3    9 1   
    10    3   10 2   
    11    3   11 1   
    12    4    8 1   
    13    4   32 1   
    14    4   33 1   
    15    5   34 1   
    16    5   35 1   
    17    5   36 1   
    18    6   37 1   
    19    6   38 1   
    20    6   39 1   
    21    7    8 1   
    22    7    9 1   
    23    8   40 1   
    24    8   41 1   
    25    9   42 1   
    26   11   12 1   
    27   11   16 1   
    28   12   13 1   
    29   12   43 1   
    30   12   44 1   
    31   13   14 1   
    32   13   45 1   
    33   13   46 1   
    34   14   15 1   
    35   14   17 1   
    36   14   47 1   
    37   15   16 1   
    38   15   48 1   
    39   15   49 1   
    40   16   50 1   
    41   16   51 1   
    42   17   18 1   
    43   17   21 1   
    44   18   19 2   
    45   18   52 1   
    46   19   20 1   
    47   20   21 ar  
    48   20   28 ar  
    49   21   22 ar  
    50   22   23 1   
    51   22   26 ar  
    52   23   24 2   
    53   23   53 1   
    54   24   25 1   
    55   24   54 1   
    56   25   26 1   
    57   25   55 1   
    58   26   27 ar  
    59   27   28 ar  
    60   28   56 1   
@<TRIPOS>SUBSTRUCTURE
     1 0NT         1 TEMP              0 ****  ****    0 ROOT
