@<TRIPOS>MOLECULE
0NT
   56    60     1     0     0
SMALL
bcc


@<TRIPOS>ATOM
      1 C7         -4.2510    2.2070   -0.7040 c3        1 0NT     -0.082400
      2 C2         -5.0200   -1.3940   -0.7250 c3        1 0NT      0.194500
      3 C10        -2.9910    0.7500    0.9200 c         1 0NT      0.648100
      4 C6         -5.7600    2.2040   -0.9010 c3        1 0NT     -0.090400
      5 C1         -3.8350   -2.1820   -0.1630 c3        1 0NT     -0.095600
      6 C3         -6.2980   -2.1800   -0.4220 c3        1 0NT     -0.095600
      7 N4         -5.0850   -0.0320   -0.1900 n3        1 0NT     -0.719600
      8 C5         -6.2160    0.7560   -0.6760 c3        1 0NT      0.172800
      9 C8         -3.8570    0.7530   -0.3550 c3        1 0NT      0.127500
     10 O11        -3.4130    0.3640    2.0230 o         1 0NT     -0.562100
     11 N12        -1.6940    1.2930    0.8450 n         1 0NT     -0.462800
     12 C13        -0.9900    1.4670   -0.4050 c3        1 0NT      0.075500
     13 C14        -0.0160    0.3320   -0.7320 c3        1 0NT     -0.122900
     14 C15         0.9870    0.1690    0.4250 c3        1 0NT      0.059000
     15 C16         0.2160   -0.0530    1.7380 c3        1 0NT     -0.122900
     16 C17        -0.7920    1.0760    1.9620 c3        1 0NT      0.075500
     17 N18         1.9640   -0.8620    0.1710 na        1 0NT     -0.153300
     18 C19         1.7110   -2.2500    0.0490 cc        1 0NT      0.394700
     19 N20         2.8120   -2.9680   -0.2210 nd        1 0NT     -0.539100
     20 C21         3.8570   -2.0310   -0.2880 ca        1 0NT     -0.088900
     21 C22         3.3320   -0.6990   -0.0450 ca        1 0NT     -0.002200
     22 C23         4.2110    0.3890   -0.0660 ca        1 0NT     -0.193100
     23 C24         4.1470    1.8120    0.1130 cc        1 0NT     -0.179200
     24 C25         5.4440    2.3040   -0.0460 cd        1 0NT     -0.117100
     25 N26         6.3270    1.2610   -0.3190 na        1 0NT     -0.272100
     26 C28         5.6050    0.0590   -0.3380 ca        1 0NT      0.421800
     27 N29         6.1140   -1.2000   -0.5710 nb        1 0NT     -0.684000
     28 C30         5.2470   -2.2030   -0.5420 ca        1 0NT      0.484200
     29 H1         -3.7230    2.5300   -1.6350 hc        1 0NT      0.055700
     30 H2         -3.9600    2.9070    0.1170 hc        1 0NT      0.055700
     31 H3         -4.9020   -1.3600   -1.8560 h1        1 0NT      0.009700
     32 H4         -6.2580    2.8860   -0.1700 hc        1 0NT      0.052200
     33 H5         -6.0340    2.5460   -1.9290 hc        1 0NT      0.052200
     34 H6         -3.8490   -2.1690    0.9550 hc        1 0NT      0.042033
     35 H7         -3.8990   -3.2390   -0.5160 hc        1 0NT      0.042033
     36 H8         -2.8650   -1.7520   -0.5100 hc        1 0NT      0.042033
     37 H10        -6.4500   -2.2740    0.6800 hc        1 0NT      0.042033
     38 H11        -7.1950   -1.6840   -0.8650 hc        1 0NT      0.042033
     39 H12        -6.2060   -3.2020   -0.8620 hc        1 0NT      0.042033
     40 H14        -7.0160    0.7060    0.1120 h1        1 0NT      0.044200
     41 H15        -6.6440    0.3390   -1.6310 h1        1 0NT      0.044200
     42 H9         -3.2330    0.3170   -1.1930 h1        1 0NT      0.043700
     43 H16        -1.7090    1.5970   -1.2580 h1        1 0NT      0.064200
     44 H17        -0.4010    2.4280   -0.3200 h1        1 0NT      0.064200
     45 H18        -0.5750   -0.6250   -0.8970 hc        1 0NT      0.062200
     46 H19         0.5240    0.5850   -1.6800 hc        1 0NT      0.062200
     47 H20         1.5630    1.1410    0.5220 h1        1 0NT      0.074700
     48 H21        -0.3140   -1.0400    1.7120 hc        1 0NT      0.062200
     49 H22         0.9280   -0.0690    2.6040 hc        1 0NT      0.062200
     50 H23        -0.2320    2.0400    2.1300 h1        1 0NT      0.064200
     51 H24        -1.3900    0.8500    2.8900 h1        1 0NT      0.064200
     52 H25         0.7010   -2.6580    0.1750 h5        1 0NT      0.069800
     53 H26         3.2630    2.4020    0.3320 ha        1 0NT      0.151000
     54 H28         5.8050    3.3320    0.0150 h4        1 0NT      0.169000
     55 H27         7.2990    1.3410   -0.4680 hn        1 0NT      0.310700
     56 H29         5.6570   -3.2130   -0.7280 h4        1 0NT      0.038100
@<TRIPOS>BOND
     1    1    4 1   
     2    1    9 1   
     3    1   29 1   
     4    1   30 1   
     5    2    5 1   
     6    2    6 1   
     7    2    7 1   
     8    2   31 1   
     9    3    9 1   
    10    3   10 2   
    11    3   11 1   
    12    4    8 1   
    13    4   32 1   
    14    4   33 1   
    15    5   34 1   
    16    5   35 1   
    17    5   36 1   
    18    6   37 1   
    19    6   38 1   
    20    6   39 1   
    21    7    8 1   
    22    7    9 1   
    23    8   40 1   
    24    8   41 1   
    25    9   42 1   
    26   11   12 1   
    27   11   16 1   
    28   12   13 1   
    29   12   43 1   
    30   12   44 1   
    31   13   14 1   
    32   13   45 1   
    33   13   46 1   
    34   14   15 1   
    35   14   17 1   
    36   14   47 1   
    37   15   16 1   
    38   15   48 1   
    39   15   49 1   
    40   16   50 1   
    41   16   51 1   
    42   17   18 1   
    43   17   21 1   
    44   18   19 2   
    45   18   52 1   
    46   19   20 1   
    47   20   21 ar  
    48   20   28 ar  
    49   21   22 ar  
    50   22   23 1   
    51   22   26 ar  
    52   23   24 2   
    53   23   53 1   
    54   24   25 1   
    55   24   54 1   
    56   25   26 1   
    57   25   55 1   
    58   26   27 ar  
    59   27   28 ar  
    60   28   56 1   
@<TRIPOS>SUBSTRUCTURE
     1 0NT         1 TEMP              0 ****  ****    0 ROOT
