@<TRIPOS>MOLECULE
0NU
   39    42     1     0     0
SMALL
bcc


@<TRIPOS>ATOM
      1 N5         -5.7660   -2.7770    0.6440 n1        1 0NU     -0.336800
      2 C15        -5.2740   -1.7990    0.2550 c1        1 0NU      0.213700
      3 C14        -4.6760   -0.5810   -0.2380 c3        1 0NU     -0.085300
      4 C13        -3.3050   -0.3360    0.3790 c         1 0NU      0.653100
      5 O          -2.7800   -1.1740    1.1330 o         1 0NU     -0.566100
      6 N4         -2.6840    0.8930    0.1410 n         1 0NU     -0.456800
      7 C11        -3.0370    1.7370   -0.9790 c3        1 0NU      0.078000
      8 C10        -2.0140    1.7000   -2.1160 c3        1 0NU     -0.105400
      9 C9         -0.6220    1.9960   -1.6040 c3        1 0NU     -0.095400
     10 C12        -1.3470    1.1150    0.6490 c3        1 0NU      0.063000
     11 C8         -0.2530    1.0320   -0.4620 c3        1 0NU      0.034000
     12 N3          1.0610    1.2780    0.0700 na        1 0NU     -0.154300
     13 C4          2.1350    0.3880    0.1230 ca        1 0NU      0.002800
     14 C3          2.3330   -0.9500   -0.2320 ca        1 0NU     -0.193100
     15 C           1.5670   -2.0270   -0.7910 cc        1 0NU     -0.174200
     16 C7          1.5400    2.5010    0.6040 cc        1 0NU      0.390700
     17 N2          2.8240    2.4460    0.9860 nd        1 0NU     -0.535100
     18 C5          3.2400    1.1340    0.7000 ca        1 0NU     -0.089900
     19 C6          4.4980    0.4950    0.8850 ca        1 0NU      0.484200
     20 N1          4.7300   -0.7700    0.5580 nb        1 0NU     -0.683000
     21 C2          3.6730   -1.4690    0.0160 ca        1 0NU      0.422800
     22 N           3.6830   -2.8080   -0.3970 na        1 0NU     -0.271100
     23 C1          2.4130   -3.1330   -0.8730 cd        1 0NU     -0.114100
     24 H14        -4.5690   -0.6560   -1.3570 hc        1 0NU      0.095200
     25 H15        -5.3610    0.2820    0.0000 hc        1 0NU      0.095200
     26 H11        -4.0490    1.4640   -1.3840 h1        1 0NU      0.055700
     27 H10        -3.1030    2.7950   -0.5880 h1        1 0NU      0.055700
     28 H8         -2.0310    0.6970   -2.6170 hc        1 0NU      0.056200
     29 H9         -2.3040    2.4670   -2.8800 hc        1 0NU      0.056200
     30 H6          0.1170    1.8950   -2.4420 hc        1 0NU      0.058200
     31 H7         -0.5740    3.0550   -1.2360 hc        1 0NU      0.058200
     32 H13        -1.3260    2.1450    1.1070 h1        1 0NU      0.081200
     33 H12        -1.1200    0.3590    1.4540 h1        1 0NU      0.081200
     34 H1         -0.2480   -0.0220   -0.8750 h1        1 0NU      0.084700
     35 H2          0.5220   -2.0000   -1.0830 ha        1 0NU      0.154000
     36 H5          0.8910    3.3800    0.6830 h5        1 0NU      0.067800
     37 H4          5.3460    1.0530    1.3230 h4        1 0NU      0.038100
     38 H           4.4560   -3.4170   -0.3300 hn        1 0NU      0.310700
     39 H3          2.2020   -4.1400   -1.2390 h4        1 0NU      0.170000
@<TRIPOS>BOND
     1    1    2 3   
     2    2    3 1   
     3    3    4 1   
     4    3   24 1   
     5    3   25 1   
     6    4    5 2   
     7    4    6 1   
     8    6    7 1   
     9    6   10 1   
    10    7    8 1   
    11    7   26 1   
    12    7   27 1   
    13    8    9 1   
    14    8   28 1   
    15    8   29 1   
    16    9   11 1   
    17    9   30 1   
    18    9   31 1   
    19   10   11 1   
    20   10   32 1   
    21   10   33 1   
    22   11   12 1   
    23   11   34 1   
    24   12   13 1   
    25   12   16 1   
    26   13   14 ar  
    27   13   18 ar  
    28   14   15 1   
    29   14   21 ar  
    30   15   23 2   
    31   15   35 1   
    32   16   17 2   
    33   16   36 1   
    34   17   18 1   
    35   18   19 ar  
    36   19   20 ar  
    37   19   37 1   
    38   20   21 ar  
    39   21   22 1   
    40   22   23 1   
    41   22   38 1   
    42   23   39 1   
@<TRIPOS>SUBSTRUCTURE
     1 0NU         1 TEMP              0 ****  ****    0 ROOT
