@<TRIPOS>MOLECULE
0NU
   39    42     1     0     0
SMALL
bcc


@<TRIPOS>ATOM
      1 N5         -0.8240   -0.6850    2.4740 n1        1 0NU     -0.336800
      2 C15        -0.4220   -0.4780    1.4040 c1        1 0NU      0.213700
      3 C14         0.0610   -0.2200    0.0680 c3        1 0NU     -0.085300
      4 C13         1.5840   -0.2190    0.0110 c         1 0NU      0.653100
      5 O           2.2650   -0.5120    1.0080 o         1 0NU     -0.566100
      6 N4          2.1990    0.1990   -1.1730 n         1 0NU     -0.456800
      7 C11         1.5140    0.1970   -2.4460 c3        1 0NU      0.078000
      8 C10         1.9350   -0.9550   -3.3620 c3        1 0NU     -0.105400
      9 C9          3.4380   -0.9940   -3.5300 c3        1 0NU     -0.095400
     10 C12         3.6410    0.1300   -1.2770 c3        1 0NU      0.063000
     11 C8          4.1300   -1.0640   -2.1570 c3        1 0NU      0.034000
     12 N3          5.5650   -1.0930   -2.2590 na        1 0NU     -0.154300
     13 C4          6.4300   -2.0830   -1.7910 ca        1 0NU      0.002800
     14 C3          6.2770   -3.2780   -1.0800 ca        1 0NU     -0.193100
     15 C           5.2090   -4.0400   -0.4970 cc        1 0NU     -0.174200
     16 C7          6.3840   -0.1340   -2.9070 cc        1 0NU      0.390700
     17 N2          7.6880   -0.4450   -2.8800 nd        1 0NU     -0.535100
     18 C5          7.7630   -1.6670   -2.1880 ca        1 0NU     -0.089900
     19 C6          8.8820   -2.4810   -1.8540 ca        1 0NU      0.484200
     20 N1          8.7810   -3.6230   -1.1870 nb        1 0NU     -0.683000
     21 C2          7.5120   -4.0050   -0.8110 ca        1 0NU      0.422800
     22 N           7.1660   -5.1620   -0.0980 na        1 0NU     -0.271100
     23 C1          5.7840   -5.1690    0.0890 cd        1 0NU     -0.114100
     24 H14        -0.3340    0.7780   -0.2740 hc        1 0NU      0.095200
     25 H15        -0.3340   -1.0180   -0.6220 hc        1 0NU      0.095200
     26 H11         1.7630    1.1720   -2.9580 h1        1 0NU      0.055700
     27 H10         0.4000    0.1650   -2.3030 h1        1 0NU      0.055700
     28 H8          1.4490   -0.8100   -4.3620 hc        1 0NU      0.056200
     29 H9          1.5720   -1.9310   -2.9470 hc        1 0NU      0.056200
     30 H6          3.7790   -0.0770   -4.0800 hc        1 0NU      0.058200
     31 H7          3.7240   -1.8850   -4.1470 hc        1 0NU      0.058200
     32 H13         4.0890    0.0420   -0.2470 h1        1 0NU      0.081200
     33 H12         3.9920    1.0950   -1.7430 h1        1 0NU      0.081200
     34 H1          3.8180   -2.0270   -1.6500 h1        1 0NU      0.084700
     35 H2          4.1540   -3.7870   -0.4940 ha        1 0NU      0.154000
     36 H5          5.9550    0.7630   -3.3690 h5        1 0NU      0.067800
     37 H4          9.9010   -2.1730   -2.1520 h4        1 0NU      0.038100
     38 H           7.8050   -5.8360    0.2340 hn        1 0NU      0.310700
     39 H3          5.3050   -5.9850    0.6330 h4        1 0NU      0.170000
@<TRIPOS>BOND
     1    1    2 3   
     2    2    3 1   
     3    3    4 1   
     4    3   24 1   
     5    3   25 1   
     6    4    5 2   
     7    4    6 1   
     8    6    7 1   
     9    6   10 1   
    10    7    8 1   
    11    7   26 1   
    12    7   27 1   
    13    8    9 1   
    14    8   28 1   
    15    8   29 1   
    16    9   11 1   
    17    9   30 1   
    18    9   31 1   
    19   10   11 1   
    20   10   32 1   
    21   10   33 1   
    22   11   12 1   
    23   11   34 1   
    24   12   13 1   
    25   12   16 1   
    26   13   14 ar  
    27   13   18 ar  
    28   14   15 1   
    29   14   21 ar  
    30   15   23 2   
    31   15   35 1   
    32   16   17 2   
    33   16   36 1   
    34   17   18 1   
    35   18   19 ar  
    36   19   20 ar  
    37   19   37 1   
    38   20   21 ar  
    39   21   22 1   
    40   22   23 1   
    41   22   38 1   
    42   23   39 1   
@<TRIPOS>SUBSTRUCTURE
     1 0NU         1 TEMP              0 ****  ****    0 ROOT
