@<TRIPOS>MOLECULE
0NU
   39    42     1     0     0
SMALL
bcc


@<TRIPOS>ATOM
      1 N5         -0.8240   -0.6970    2.4740 n1        1 0NU     -0.336800
      2 C15        -0.4220   -0.4870    1.4040 c1        1 0NU      0.213700
      3 C14         0.0620   -0.2240    0.0690 c3        1 0NU     -0.085300
      4 C13         1.5840   -0.2230    0.0110 c         1 0NU      0.653100
      5 O           2.2660   -0.5190    1.0080 o         1 0NU     -0.566100
      6 N4          2.1990    0.1980   -1.1710 n         1 0NU     -0.456800
      7 C11         1.5140    0.1990   -2.4440 c3        1 0NU      0.078000
      8 C10         1.9350   -0.9510   -3.3630 c3        1 0NU     -0.105400
      9 C9          3.4370   -0.9900   -3.5310 c3        1 0NU     -0.095400
     10 C12         3.6410    0.1290   -1.2760 c3        1 0NU      0.063000
     11 C8          4.1300   -1.0640   -2.1580 c3        1 0NU      0.034000
     12 N3          5.5640   -1.0930   -2.2600 na        1 0NU     -0.154300
     13 C4          6.4290   -2.0840   -1.7920 ca        1 0NU      0.002800
     14 C3          6.2760   -3.2790   -1.0810 ca        1 0NU     -0.193100
     15 C           5.2080   -4.0400   -0.4980 cc        1 0NU     -0.174200
     16 C7          6.3840   -0.1340   -2.9080 cc        1 0NU      0.390700
     17 N2          7.6870   -0.4450   -2.8810 nd        1 0NU     -0.535100
     18 C5          7.7620   -1.6670   -2.1890 ca        1 0NU     -0.089900
     19 C6          8.8810   -2.4810   -1.8560 ca        1 0NU      0.484200
     20 N1          8.7800   -3.6240   -1.1880 nb        1 0NU     -0.683000
     21 C2          7.5110   -4.0060   -0.8120 ca        1 0NU      0.422800
     22 N           7.1640   -5.1620   -0.1000 na        1 0NU     -0.271100
     23 C1          5.7830   -5.1690    0.0870 cd        1 0NU     -0.114100
     24 H14        -0.3340    0.7750   -0.2700 hc        1 0NU      0.095200
     25 H15        -0.3340   -1.0200   -0.6240 hc        1 0NU      0.095200
     26 H11         1.7640    1.1750   -2.9540 h1        1 0NU      0.055700
     27 H10         0.4000    0.1670   -2.3010 h1        1 0NU      0.055700
     28 H8          1.5710   -1.9280   -2.9490 hc        1 0NU      0.056200
     29 H9          1.4490   -0.8040   -4.3620 hc        1 0NU      0.056200
     30 H6          3.7780   -0.0720   -4.0790 hc        1 0NU      0.058200
     31 H7          3.7230   -1.8800   -4.1500 hc        1 0NU      0.058200
     32 H13         3.9930    1.0940   -1.7390 h1        1 0NU      0.081200
     33 H12         4.0890    0.0390   -0.2450 h1        1 0NU      0.081200
     34 H1          3.8170   -2.0280   -1.6530 h1        1 0NU      0.084700
     35 H2          4.1530   -3.7870   -0.4950 ha        1 0NU      0.154000
     36 H5          5.9550    0.7630   -3.3690 h5        1 0NU      0.067800
     37 H4          9.9000   -2.1740   -2.1530 h4        1 0NU      0.038100
     38 H           7.8030   -5.8370    0.2320 hn        1 0NU      0.310700
     39 H3          5.3030   -5.9850    0.6310 h4        1 0NU      0.170000
@<TRIPOS>BOND
     1    1    2 3   
     2    2    3 1   
     3    3    4 1   
     4    3   24 1   
     5    3   25 1   
     6    4    5 2   
     7    4    6 1   
     8    6    7 1   
     9    6   10 1   
    10    7    8 1   
    11    7   26 1   
    12    7   27 1   
    13    8    9 1   
    14    8   28 1   
    15    8   29 1   
    16    9   11 1   
    17    9   30 1   
    18    9   31 1   
    19   10   11 1   
    20   10   32 1   
    21   10   33 1   
    22   11   12 1   
    23   11   34 1   
    24   12   13 1   
    25   12   16 1   
    26   13   14 ar  
    27   13   18 ar  
    28   14   15 1   
    29   14   21 ar  
    30   15   23 2   
    31   15   35 1   
    32   16   17 2   
    33   16   36 1   
    34   17   18 1   
    35   18   19 ar  
    36   19   20 ar  
    37   19   37 1   
    38   20   21 ar  
    39   21   22 1   
    40   22   23 1   
    41   22   38 1   
    42   23   39 1   
@<TRIPOS>SUBSTRUCTURE
     1 0NU         1 TEMP              0 ****  ****    0 ROOT
