@<TRIPOS>MOLECULE
0NU
   39    31     1     0     0
SMALL
bcc


@<TRIPOS>ATOM
      1 N5         -5.3010    1.9290    4.1530 n1        1 0NU     -0.011000
      2 C15        -4.8970    1.6820    3.0800 c1        1 0NU     -0.139000
      3 C14        -4.3870    1.3750    1.7330 c2        1 0NU     -0.087000
      4 C13        -2.8700    1.3470    1.7610 c1        1 0NU      0.297000
      5 O          -2.2620    1.3580    2.8600 o         1 0NU     -0.327000
      6 N4         -2.0920    1.3170    0.4640 n2        1 0NU     -0.315000
      7 C11        -2.7180    1.3090   -0.8040 c3        1 0NU     -0.038000
      8 C10        -2.2300    0.2140   -1.6700 c3        1 0NU     -0.184000
      9 C9         -0.7420    0.1820   -1.7590 c3        1 0NU     -0.174000
     10 C12        -0.6450    1.2980    0.4050 c3        1 0NU     -0.053000
     11 C8         -0.1260    0.1860   -0.4650 c3        1 0NU      0.014000
     12 N3          1.3390    0.3480   -0.6390 n3        1 0NU     -0.180000
     13 C4          2.4600   -0.4010   -0.4780 c1        1 0NU      0.048000
     14 C3          2.6470   -1.7120    0.0020 c1        1 0NU     -0.042500
     15 C           1.7860   -2.5880    0.6570 c1        1 0NU     -0.186000
     16 C7          1.6940    1.5200   -1.2030 c1        1 0NU     -0.065000
     17 N2          3.0490    1.5040   -1.3980 n2        1 0NU     -0.108000
     18 C5          3.5210    0.3150   -0.9480 c1        1 0NU     -0.164000
     19 C6          4.8170   -0.2660   -0.9540 c1        1 0NU      0.019000
     20 N1          4.9960   -1.5400   -0.4870 n1        1 0NU     -0.157000
     21 C2          3.8950   -2.2740   -0.0020 c1        1 0NU     -0.042500
     22 N           3.8160   -3.5060    0.6510 n1        1 0NU     -0.185000
     23 C1          2.5180   -3.6910    1.0520 c1        1 0NU     -0.087000
     24 H14        -4.7200    0.5100    1.4500 ha        1 0NU      0.134500
     25 H15        -4.6840    2.0510    1.1170 ha        1 0NU      0.134500
     26 H11        -2.5490    2.1470   -1.2400 h1        1 0NU      0.095000
     27 H10        -3.6220    1.2120   -0.6860 h1        1 0NU      0.095000
     28 H8         -2.5850    0.3320   -2.5390 hc        1 0NU      0.095500
     29 H9         -2.5310   -0.6000   -1.3260 hc        1 0NU      0.095500
     30 H6         -0.4250    0.9950   -2.2750 hc        1 0NU      0.097500
     31 H7         -0.4420   -0.6980   -2.2830 hc        1 0NU      0.097500
     32 H13        -0.2900    1.1860    1.3100 h1        1 0NU      0.120500
     33 H12        -0.3410    2.1310    0.0540 h1        1 0NU      0.120500
     34 H1         -0.2980   -0.6600   -0.0320 h1        1 0NU      0.124000
     35 H2          0.8040   -2.4460    0.8120 DU        1 0NU      0.195500
     36 H5          1.0730    2.2730   -1.4350 DU        1 0NU      0.195500
     37 H4          5.5820    0.2500   -1.2620 ha        1 0NU      0.175000
     38 H           4.5760   -4.1470    0.8030 DU        1 0NU      0.195500
     39 H3          2.1830   -4.4430    1.5210 DU        1 0NU      0.195500
@<TRIPOS>BOND
     1    1    2 1   
     2    3    4 1   
     3    3   24 1   
     4    3   25 1   
     5    4    5 1   
     6    6    7 1   
     7    6   10 1   
     8    7    8 1   
     9    7   26 1   
    10    7   27 1   
    11    8    9 1   
    12    8   28 1   
    13    8   29 1   
    14    9   11 1   
    15    9   30 1   
    16    9   31 1   
    17   10   11 1   
    18   10   32 1   
    19   10   33 1   
    20   11   12 1   
    21   11   34 1   
    22   12   13 1   
    23   12   16 1   
    24   13   18 1   
    25   14   21 1   
    26   15   23 1   
    27   16   17 1   
    28   17   18 1   
    29   19   20 1   
    30   19   37 1   
    31   22   23 1   
@<TRIPOS>SUBSTRUCTURE
     1 0NU         1 TEMP              0 ****  ****    0 ROOT
