@<TRIPOS>MOLECULE
0NV
   46    50     1     0     0
SMALL
bcc


@<TRIPOS>ATOM
      1 C1         -0.1880    0.4350    1.8490 c3        1 0NV     -0.092400
      2 C2         -1.4370   -0.4350    1.9610 c3        1 0NV      0.167800
      3 N3         -2.4190   -0.1620    0.9200 n3        1 0NV     -0.731600
      4 C4         -1.8500   -0.2450   -0.4180 c3        1 0NV      0.167800
      5 C5         -0.6170    0.6350   -0.6010 c3        1 0NV     -0.092400
      6 C6          0.4430    0.2780    0.4550 c3        1 0NV      0.056000
      7 N7          1.6590    1.0380    0.3050 na        1 0NV     -0.151300
      8 C8          1.7860    2.4470    0.3840 cc        1 0NV      0.395700
      9 N9          3.0440    2.8780    0.2090 nd        1 0NV     -0.542100
     10 C10         3.8080    1.7160    0.0040 ca        1 0NV     -0.088900
     11 C11         5.2000    1.5460   -0.2350 ca        1 0NV      0.484200
     12 N12         5.7730    0.3620   -0.4120 nb        1 0NV     -0.685000
     13 C13         4.9420   -0.7360   -0.3540 ca        1 0NV      0.421800
     14 N14         5.3220   -2.0770   -0.5110 na        1 0NV     -0.272100
     15 C15         4.1860   -2.8750   -0.3820 cc        1 0NV     -0.118100
     16 C16         3.0620   -2.0840   -0.1430 cd        1 0NV     -0.178200
     17 C17         3.5050   -0.7190   -0.1190 ca        1 0NV     -0.193100
     18 C18         2.9420    0.5500    0.0620 ca        1 0NV     -0.003200
     19 C19        -3.6120   -0.9870    1.0780 c3        1 0NV      0.216100
     20 C20        -4.7470   -0.6030    0.1750 ca        1 0NV     -0.091300
     21 C21        -5.1990    0.7200    0.1200 ca        1 0NV     -0.117500
     22 C22        -6.2870    1.0540   -0.6830 ca        1 0NV     -0.133000
     23 C23        -6.9340    0.0710   -1.4330 ca        1 0NV     -0.127000
     24 C24        -6.4870   -1.2490   -1.3790 ca        1 0NV     -0.133000
     25 C25        -5.3960   -1.5860   -0.5800 ca        1 0NV     -0.117500
     26 H1         -0.4510    1.5100    2.0300 hc        1 0NV      0.060700
     27 H2          0.5360    0.1170    2.6430 hc        1 0NV      0.060700
     28 H3         -1.1190   -1.5210    1.9580 h1        1 0NV      0.038450
     29 H4         -1.9250   -0.2270    2.9550 h1        1 0NV      0.038450
     30 H6         -1.5750   -1.3080   -0.6860 h1        1 0NV      0.038450
     31 H7         -2.6450    0.0950   -1.1410 h1        1 0NV      0.038450
     32 H8         -0.2120    0.4650   -1.6320 hc        1 0NV      0.060700
     33 H9         -0.8970    1.7160   -0.5120 hc        1 0NV      0.060700
     34 H10         0.7240   -0.8110    0.3170 h1        1 0NV      0.073700
     35 H11         0.9140    3.0860    0.5710 h5        1 0NV      0.070800
     36 H12         5.8670    2.4260   -0.2820 h4        1 0NV      0.037100
     37 H13         4.2620   -3.9610   -0.4720 h4        1 0NV      0.168000
     38 H14         2.0470   -2.4420   -0.0040 ha        1 0NV      0.152000
     39 H16        -3.3740   -2.0840    0.9270 h1        1 0NV      0.040200
     40 H17        -3.9650   -0.8630    2.1440 h1        1 0NV      0.040200
     41 H18        -4.6890    1.4950    0.7120 ha        1 0NV      0.137500
     42 H19        -6.6380    2.0960   -0.7250 ha        1 0NV      0.132500
     43 H20        -7.7930    0.3370   -2.0660 ha        1 0NV      0.132000
     44 H21        -6.9950   -2.0260   -1.9690 ha        1 0NV      0.132500
     45 H22        -5.0480   -2.6300   -0.5420 ha        1 0NV      0.137500
     46 H5          6.2410   -2.3900   -0.6830 hn        1 0NV      0.309700
@<TRIPOS>BOND
     1    1    2 1   
     2    1    6 1   
     3    1   26 1   
     4    1   27 1   
     5    2    3 1   
     6    2   28 1   
     7    2   29 1   
     8    3    4 1   
     9    3   19 1   
    10    4    5 1   
    11    4   30 1   
    12    4   31 1   
    13    5    6 1   
    14    5   32 1   
    15    5   33 1   
    16    6    7 1   
    17    6   34 1   
    18    7    8 1   
    19    7   18 1   
    20    8    9 2   
    21    8   35 1   
    22    9   10 1   
    23   10   11 ar  
    24   10   18 ar  
    25   11   12 ar  
    26   11   36 1   
    27   12   13 ar  
    28   13   14 1   
    29   13   17 ar  
    30   14   15 1   
    31   14   46 1   
    32   15   16 2   
    33   15   37 1   
    34   16   17 1   
    35   16   38 1   
    36   17   18 ar  
    37   19   20 1   
    38   19   39 1   
    39   19   40 1   
    40   20   21 ar  
    41   20   25 ar  
    42   21   22 ar  
    43   21   41 1   
    44   22   23 ar  
    45   22   42 1   
    46   23   24 ar  
    47   23   43 1   
    48   24   25 ar  
    49   24   44 1   
    50   25   45 1   
@<TRIPOS>SUBSTRUCTURE
     1 0NV         1 TEMP              0 ****  ****    0 ROOT
