@<TRIPOS>MOLECULE
0NV
   46    39     1     0     0
SMALL
bcc


@<TRIPOS>ATOM
      1 C1         -0.3720    0.5780   -1.0490 c3        1 0NV     -0.171000
      2 C2          1.1480    0.6340   -1.0510 c3        1 0NV     -0.069000
      3 N3          1.7140    0.6380    0.3090 n3        1 0NV     -0.257000
      4 C4          1.1980   -0.4600    1.1460 c3        1 0NV     -0.069000
      5 C5         -0.3220   -0.5200    1.1560 c3        1 0NV     -0.171000
      6 C6         -0.8960   -0.5290   -0.2120 c3        1 0NV      0.036000
      7 N7         -2.3700   -0.4050   -0.1160 n3        1 0NV     -0.177000
      8 C8         -2.8680    0.7550    0.3650 c1        1 0NV     -0.060000
      9 N9         -4.2080    0.7530    0.1590 n2        1 0NV     -0.115000
     10 C10        -4.5390   -0.4160   -0.4530 c1        1 0NV     -0.163000
     11 C11        -5.7810   -0.9570   -0.8430 c1        1 0NV      0.019000
     12 N12        -5.8410   -2.2080   -1.3930 n1        1 0NV     -0.159000
     13 C13        -4.6830   -2.9440   -1.5700 c1        1 0NV      0.030000
     14 N14        -4.4600   -4.2090   -2.0890 n1        1 0NV     -0.186000
     15 C15        -3.1180   -4.4600   -2.0310 c1        1 0NV     -0.091000
     16 C16        -2.4990   -3.3530   -1.4750 c1        1 0NV     -0.190000
     17 C17        -3.4710   -2.4200   -1.1920 c1        1 0NV     -0.116000
     18 C18        -3.4080   -1.1310   -0.6240 c1        1 0NV      0.042000
     19 C19         3.1570    0.5480    0.2310 c3        1 0NV     -0.028000
     20 C20         3.7820    1.7570    0.9230 c1        1 0NV     -0.084000
     21 C21         3.6180    3.0220    0.3820 c1        1 0NV     -0.125250
     22 C22         4.3080    4.1030    0.9180 c1        1 0NV     -0.125250
     23 C23         5.1610    3.9160    1.9940 c1        1 0NV     -0.125250
     24 C24         5.3260    2.6510    2.5370 c1        1 0NV     -0.125250
     25 C25         4.6370    1.5700    2.0020 c1        1 0NV     -0.127000
     26 H1         -0.7190    1.4260   -0.7060 hc        1 0NV      0.100000
     27 H2         -0.6870    0.4560   -1.9700 hc        1 0NV      0.100000
     28 H3          1.4340    1.4480   -1.5160 h1        1 0NV      0.077750
     29 H4          1.4910   -0.1420   -1.5330 h1        1 0NV      0.077750
     30 H6          1.5450   -1.3080    0.8040 h1        1 0NV      0.077750
     31 H7          1.5160   -0.3340    2.0620 h1        1 0NV      0.077750
     32 H8         -0.6660    0.2580    1.6370 hc        1 0NV      0.100000
     33 H9         -0.6030   -1.3290    1.6220 hc        1 0NV      0.100000
     34 H10        -0.6770   -1.3790   -0.6400 h1        1 0NV      0.113000
     35 H11        -2.3580    1.4530    0.8200 DU        1 0NV      0.195000
     36 H12        -6.5980   -0.4180   -0.7610 ha        1 0NV      0.174000
     37 H13        -2.6780   -5.2900   -2.2960 DU        1 0NV      0.195000
     38 H14        -1.5430   -3.2530   -1.3120 DU        1 0NV      0.195000
     39 H16         3.4570   -0.2740    0.6750 h1        1 0NV      0.079500
     40 H17         3.4330    0.5300   -0.7070 h1        1 0NV      0.079500
     41 H18         3.0180    3.1550   -0.3740 ha        1 0NV      0.135500
     42 H19         4.1930    4.9930    0.5360 ha        1 0NV      0.135500
     43 H20         5.6450    4.6750    2.3700 ha        1 0NV      0.135500
     44 H21         5.9280    2.5200    3.2950 ha        1 0NV      0.135500
     45 H22         4.7540    0.6790    2.3850 ha        1 0NV      0.130000
     46 H5         -5.1000   -4.7770   -2.4150 DU        1 0NV      0.195000
@<TRIPOS>BOND
     1    1    2 1   
     2    1    6 1   
     3    1   26 1   
     4    1   27 1   
     5    2    3 1   
     6    2   28 1   
     7    2   29 1   
     8    3    4 1   
     9    3   19 1   
    10    4    5 1   
    11    4   30 1   
    12    4   31 1   
    13    5    6 1   
    14    5   32 1   
    15    5   33 1   
    16    6    7 1   
    17    6   34 1   
    18    7    8 1   
    19    7   18 1   
    20    8    9 1   
    21    9   10 1   
    22   10   18 1   
    23   11   12 1   
    24   11   36 1   
    25   13   17 1   
    26   14   15 1   
    27   15   16 1   
    28   16   17 1   
    29   19   20 1   
    30   19   39 1   
    31   19   40 1   
    32   20   25 1   
    33   21   22 1   
    34   21   41 1   
    35   22   42 1   
    36   23   24 1   
    37   23   43 1   
    38   24   44 1   
    39   25   45 1   
@<TRIPOS>SUBSTRUCTURE
     1 0NV         1 TEMP              0 ****  ****    0 ROOT
