@<TRIPOS>MOLECULE
0NV
   46    50     1     0     0
SMALL
bcc


@<TRIPOS>ATOM
      1 C1          0.0070    0.0550   -0.0300 c3        1 0NV     -0.092400
      2 C2          1.5270   -0.0090    0.0880 c3        1 0NV      0.167800
      3 N3          1.9960    0.0180    1.4670 n3        1 0NV     -0.731600
      4 C4          1.3710   -1.0100    2.2870 c3        1 0NV      0.167800
      5 C5         -0.1540   -0.9740    2.2380 c3        1 0NV     -0.092400
      6 C6         -0.6340   -1.0840    0.7810 c3        1 0NV      0.056000
      7 N7         -2.0720   -1.1090    0.6670 na        1 0NV     -0.151300
      8 C8         -2.9660   -0.0910    1.0820 cc        1 0NV      0.395700
      9 N9         -4.2530   -0.3860    0.8440 nd        1 0NV     -0.542100
     10 C10        -4.2360   -1.6560    0.2420 ca        1 0NV     -0.088900
     11 C11        -5.2980   -2.4780   -0.2280 ca        1 0NV      0.484200
     12 N12        -5.1110   -3.6700   -0.7800 nb        1 0NV     -0.685000
     13 C13        -3.8060   -4.1000   -0.8850 ca        1 0NV      0.421800
     14 N14        -3.3700   -5.3160   -1.4300 na        1 0NV     -0.272100
     15 C15        -1.9790   -5.3640   -1.3470 cc        1 0NV     -0.118100
     16 C16        -1.4880   -4.1990   -0.7570 cd        1 0NV     -0.178200
     17 C17        -2.6200   -3.3720   -0.4510 ca        1 0NV     -0.193100
     18 C18        -2.8640   -2.1200    0.1260 ca        1 0NV     -0.003200
     19 C19         3.4520   -0.0090    1.5400 c3        1 0NV      0.216100
     20 C20         4.0020    0.2370    2.9150 ca        1 0NV     -0.091300
     21 C21         3.6010    1.3550    3.6530 ca        1 0NV     -0.117500
     22 C22         4.1570    1.6010    4.9080 ca        1 0NV     -0.133000
     23 C23         5.1180    0.7360    5.4300 ca        1 0NV     -0.127000
     24 C24         5.5220   -0.3790    4.6960 ca        1 0NV     -0.133000
     25 C25         4.9650   -0.6300    3.4420 ca        1 0NV     -0.117500
     26 H1         -0.2670   -0.0350   -1.1130 hc        1 0NV      0.060700
     27 H2         -0.3660    1.0450    0.3410 hc        1 0NV      0.060700
     28 H3          1.8910   -0.9300   -0.4570 h1        1 0NV      0.038450
     29 H4          1.9600    0.8900   -0.4380 h1        1 0NV      0.038450
     30 H6          1.7000   -0.8360    3.3510 h1        1 0NV      0.038450
     31 H7          1.7140   -2.0450    1.9870 h1        1 0NV      0.038450
     32 H8         -0.5320   -0.0220    2.6950 hc        1 0NV      0.060700
     33 H9         -0.5480   -1.8290    2.8440 hc        1 0NV      0.060700
     34 H10        -0.2600   -2.0680    0.3610 h1        1 0NV      0.073700
     35 H11        -2.6000    0.8310    1.5480 h5        1 0NV      0.070800
     36 H12        -6.3460   -2.1350   -0.1440 h4        1 0NV      0.037100
     37 H13        -1.4340   -6.2340   -1.7190 h4        1 0NV      0.168000
     38 H14        -0.4440   -3.9690   -0.5690 ha        1 0NV      0.152000
     39 H16         3.8630   -0.9880    1.1480 h1        1 0NV      0.040200
     40 H17         3.8360    0.8120    0.8660 h1        1 0NV      0.040200
     41 H18         2.8420    2.0380    3.2410 ha        1 0NV      0.137500
     42 H19         3.8370    2.4810    5.4860 ha        1 0NV      0.132500
     43 H20         5.5580    0.9320    6.4190 ha        1 0NV      0.132000
     44 H21         6.2800   -1.0620    5.1050 ha        1 0NV      0.132500
     45 H22         5.2870   -1.5120    2.8690 ha        1 0NV      0.137500
     46 H5         -3.9580   -6.0130   -1.8050 hn        1 0NV      0.309700
@<TRIPOS>BOND
     1    1    2 1   
     2    1    6 1   
     3    1   26 1   
     4    1   27 1   
     5    2    3 1   
     6    2   28 1   
     7    2   29 1   
     8    3    4 1   
     9    3   19 1   
    10    4    5 1   
    11    4   30 1   
    12    4   31 1   
    13    5    6 1   
    14    5   32 1   
    15    5   33 1   
    16    6    7 1   
    17    6   34 1   
    18    7    8 1   
    19    7   18 1   
    20    8    9 2   
    21    8   35 1   
    22    9   10 1   
    23   10   11 ar  
    24   10   18 ar  
    25   11   12 ar  
    26   11   36 1   
    27   12   13 ar  
    28   13   14 1   
    29   13   17 ar  
    30   14   15 1   
    31   14   46 1   
    32   15   16 2   
    33   15   37 1   
    34   16   17 1   
    35   16   38 1   
    36   17   18 ar  
    37   19   20 1   
    38   19   39 1   
    39   19   40 1   
    40   20   21 ar  
    41   20   25 ar  
    42   21   22 ar  
    43   21   41 1   
    44   22   23 ar  
    45   22   42 1   
    46   23   24 ar  
    47   23   43 1   
    48   24   25 ar  
    49   24   44 1   
    50   25   45 1   
@<TRIPOS>SUBSTRUCTURE
     1 0NV         1 TEMP              0 ****  ****    0 ROOT
