@<TRIPOS>MOLECULE
0NV
   46    50     1     0     0
SMALL
bcc


@<TRIPOS>ATOM
      1 C1          0.0160    0.0520   -0.0360 c3        1 0NV     -0.092400
      2 C2          1.5360   -0.0220    0.0830 c3        1 0NV      0.167800
      3 N3          2.0040    0.0070    1.4620 n3        1 0NV     -0.731600
      4 C4          1.3720   -1.0140    2.2860 c3        1 0NV      0.167800
      5 C5         -0.1520   -0.9660    2.2360 c3        1 0NV     -0.092400
      6 C6         -0.6330   -1.0790    0.7800 c3        1 0NV      0.056000
      7 N7         -2.0710   -1.0930    0.6660 na        1 0NV     -0.151300
      8 C8         -2.9580   -0.0670    1.0750 cc        1 0NV      0.395700
      9 N9         -4.2470   -0.3540    0.8390 nd        1 0NV     -0.542100
     10 C10        -4.2390   -1.6270    0.2430 ca        1 0NV     -0.088900
     11 C11        -5.3070   -2.4430   -0.2240 ca        1 0NV      0.484200
     12 N12        -5.1290   -3.6390   -0.7700 nb        1 0NV     -0.685000
     13 C13        -3.8270   -4.0790   -0.8730 ca        1 0NV      0.421800
     14 N14        -3.4000   -5.3020   -1.4110 na        1 0NV     -0.272100
     15 C15        -2.0090   -5.3600   -1.3270 cc        1 0NV     -0.118100
     16 C16        -1.5100   -4.1950   -0.7430 cd        1 0NV     -0.178200
     17 C17        -2.6360   -3.3580   -0.4410 ca        1 0NV     -0.193100
     18 C18        -2.8710   -2.1020    0.1290 ca        1 0NV     -0.003200
     19 C19         3.4610   -0.0310    1.5350 c3        1 0NV      0.216100
     20 C20         4.0120    0.2170    2.9090 ca        1 0NV     -0.091300
     21 C21         3.6190    1.3420    3.6430 ca        1 0NV     -0.117500
     22 C22         4.1770    1.5890    4.8960 ca        1 0NV     -0.133000
     23 C23         5.1320    0.7190    5.4230 ca        1 0NV     -0.127000
     24 C24         5.5270   -0.4020    4.6930 ca        1 0NV     -0.133000
     25 C25         4.9680   -0.6540    3.4400 ca        1 0NV     -0.117500
     26 H1         -0.2580   -0.0400   -1.1180 hc        1 0NV      0.060700
     27 H2         -0.3500    1.0460    0.3320 hc        1 0NV      0.060700
     28 H3          1.8930   -0.9490   -0.4590 h1        1 0NV      0.038450
     29 H4          1.9750    0.8710   -0.4460 h1        1 0NV      0.038450
     30 H6          1.7030   -0.8380    3.3490 h1        1 0NV      0.038450
     31 H7          1.7070   -2.0520    1.9900 h1        1 0NV      0.038450
     32 H8         -0.5520   -1.8170    2.8460 hc        1 0NV      0.060700
     33 H9         -0.5230   -0.0110    2.6890 hc        1 0NV      0.060700
     34 H10        -0.2660   -2.0670    0.3640 h1        1 0NV      0.073700
     35 H11        -2.5850    0.8540    1.5370 h5        1 0NV      0.070800
     36 H12        -6.3520   -2.0920   -0.1420 h4        1 0NV      0.037100
     37 H13        -1.4710   -6.2350   -1.6940 h4        1 0NV      0.168000
     38 H14        -0.4640   -3.9730   -0.5550 ha        1 0NV      0.152000
     39 H16         3.8510    0.7850    0.8570 h1        1 0NV      0.040200
     40 H17         3.8650   -1.0140    1.1470 h1        1 0NV      0.040200
     41 H18         2.8660    2.0290    3.2280 ha        1 0NV      0.137500
     42 H19         3.8630    2.4730    5.4700 ha        1 0NV      0.132500
     43 H20         5.5720    0.9160    6.4110 ha        1 0NV      0.132000
     44 H21         6.2800   -1.0900    5.1050 ha        1 0NV      0.132500
     45 H22         5.2840   -1.5410    2.8700 ha        1 0NV      0.137500
     46 H5         -3.9930   -5.9960   -1.7820 hn        1 0NV      0.309700
@<TRIPOS>BOND
     1    1    2 1   
     2    1    6 1   
     3    1   26 1   
     4    1   27 1   
     5    2    3 1   
     6    2   28 1   
     7    2   29 1   
     8    3    4 1   
     9    3   19 1   
    10    4    5 1   
    11    4   30 1   
    12    4   31 1   
    13    5    6 1   
    14    5   32 1   
    15    5   33 1   
    16    6    7 1   
    17    6   34 1   
    18    7    8 1   
    19    7   18 1   
    20    8    9 2   
    21    8   35 1   
    22    9   10 1   
    23   10   11 ar  
    24   10   18 ar  
    25   11   12 ar  
    26   11   36 1   
    27   12   13 ar  
    28   13   14 1   
    29   13   17 ar  
    30   14   15 1   
    31   14   46 1   
    32   15   16 2   
    33   15   37 1   
    34   16   17 1   
    35   16   38 1   
    36   17   18 ar  
    37   19   20 1   
    38   19   39 1   
    39   19   40 1   
    40   20   21 ar  
    41   20   25 ar  
    42   21   22 ar  
    43   21   41 1   
    44   22   23 ar  
    45   22   42 1   
    46   23   24 ar  
    47   23   43 1   
    48   24   25 ar  
    49   24   44 1   
    50   25   45 1   
@<TRIPOS>SUBSTRUCTURE
     1 0NV         1 TEMP              0 ****  ****    0 ROOT
