@<TRIPOS>MOLECULE
0NV
   46    50     1     0     0
SMALL
bcc


@<TRIPOS>ATOM
      1 C1          0.0070    0.0540   -0.0340 c3        1 0NV     -0.092400
      2 C2          1.5270   -0.0110    0.0830 c3        1 0NV      0.167800
      3 N3          1.9960    0.0190    1.4620 n3        1 0NV     -0.731600
      4 C4          1.3710   -1.0080    2.2850 c3        1 0NV      0.167800
      5 C5         -0.1540   -0.9700    2.2360 c3        1 0NV     -0.092400
      6 C6         -0.6340   -1.0830    0.7790 c3        1 0NV      0.056000
      7 N7         -2.0720   -1.1070    0.6660 na        1 0NV     -0.151300
      8 C8         -2.9650   -0.0870    1.0770 cc        1 0NV      0.395700
      9 N9         -4.2530   -0.3830    0.8420 nd        1 0NV     -0.542100
     10 C10        -4.2370   -1.6550    0.2450 ca        1 0NV     -0.088900
     11 C11        -5.3000   -2.4780   -0.2210 ca        1 0NV      0.484200
     12 N12        -5.1140   -3.6720   -0.7680 nb        1 0NV     -0.685000
     13 C13        -3.8090   -4.1030   -0.8730 ca        1 0NV      0.421800
     14 N14        -3.3750   -5.3220   -1.4130 na        1 0NV     -0.272100
     15 C15        -1.9840   -5.3710   -1.3300 cc        1 0NV     -0.118100
     16 C16        -1.4910   -4.2040   -0.7450 cd        1 0NV     -0.178200
     17 C17        -2.6230   -3.3750   -0.4410 ca        1 0NV     -0.193100
     18 C18        -2.8660   -2.1200    0.1300 ca        1 0NV     -0.003200
     19 C19         3.4530   -0.0100    1.5350 c3        1 0NV      0.216100
     20 C20         4.0040    0.2380    2.9080 ca        1 0NV     -0.091300
     21 C21         3.6040    1.3570    3.6460 ca        1 0NV     -0.117500
     22 C22         4.1610    1.6050    4.9000 ca        1 0NV     -0.133000
     23 C23         5.1220    0.7400    5.4230 ca        1 0NV     -0.127000
     24 C24         5.5240   -0.3760    4.6890 ca        1 0NV     -0.133000
     25 C25         4.9670   -0.6290    3.4370 ca        1 0NV     -0.117500
     26 H1         -0.2680   -0.0380   -1.1160 hc        1 0NV      0.060700
     27 H2         -0.3650    1.0440    0.3350 hc        1 0NV      0.060700
     28 H3          1.9610    0.8860   -0.4440 h1        1 0NV      0.038450
     29 H4          1.8910   -0.9340   -0.4600 h1        1 0NV      0.038450
     30 H6          1.7130   -2.0430    1.9860 h1        1 0NV      0.038450
     31 H7          1.7020   -0.8320    3.3480 h1        1 0NV      0.038450
     32 H8         -0.5480   -1.8250    2.8440 hc        1 0NV      0.060700
     33 H9         -0.5310   -0.0180    2.6910 hc        1 0NV      0.060700
     34 H10        -0.2610   -2.0680    0.3620 h1        1 0NV      0.073700
     35 H11        -2.5980    0.8360    1.5400 h5        1 0NV      0.070800
     36 H12        -6.3470   -2.1340   -0.1380 h4        1 0NV      0.037100
     37 H13        -1.4400   -6.2430   -1.6980 h4        1 0NV      0.168000
     38 H14        -0.4470   -3.9740   -0.5580 ha        1 0NV      0.152000
     39 H16         3.8370    0.8100    0.8590 h1        1 0NV      0.040200
     40 H17         3.8630   -0.9890    1.1430 h1        1 0NV      0.040200
     41 H18         2.8450    2.0400    3.2340 ha        1 0NV      0.137500
     42 H19         3.8410    2.4850    5.4770 ha        1 0NV      0.132500
     43 H20         5.5620    0.9370    6.4110 ha        1 0NV      0.132000
     44 H21         6.2830   -1.0600    5.0980 ha        1 0NV      0.132500
     45 H22         5.2880   -1.5110    2.8640 ha        1 0NV      0.137500
     46 H5         -3.9640   -6.0210   -1.7840 hn        1 0NV      0.309700
@<TRIPOS>BOND
     1    1    2 1   
     2    1    6 1   
     3    1   26 1   
     4    1   27 1   
     5    2    3 1   
     6    2   28 1   
     7    2   29 1   
     8    3    4 1   
     9    3   19 1   
    10    4    5 1   
    11    4   30 1   
    12    4   31 1   
    13    5    6 1   
    14    5   32 1   
    15    5   33 1   
    16    6    7 1   
    17    6   34 1   
    18    7    8 1   
    19    7   18 1   
    20    8    9 2   
    21    8   35 1   
    22    9   10 1   
    23   10   11 ar  
    24   10   18 ar  
    25   11   12 ar  
    26   11   36 1   
    27   12   13 ar  
    28   13   14 1   
    29   13   17 ar  
    30   14   15 1   
    31   14   46 1   
    32   15   16 2   
    33   15   37 1   
    34   16   17 1   
    35   16   38 1   
    36   17   18 ar  
    37   19   20 1   
    38   19   39 1   
    39   19   40 1   
    40   20   21 ar  
    41   20   25 ar  
    42   21   22 ar  
    43   21   41 1   
    44   22   23 ar  
    45   22   42 1   
    46   23   24 ar  
    47   23   43 1   
    48   24   25 ar  
    49   24   44 1   
    50   25   45 1   
@<TRIPOS>SUBSTRUCTURE
     1 0NV         1 TEMP              0 ****  ****    0 ROOT
