@<TRIPOS>MOLECULE
0NW
   73    76     1     0     0
SMALL
bcc


@<TRIPOS>ATOM
      1 C1          5.9130   -0.4380   -0.0090 ca        1 0NW     -0.130000
      2 C2          5.6620   -1.7540    0.3760 ca        1 0NW     -0.100000
      3 C3          4.4160   -2.3260    0.1050 ca        1 0NW     -0.177900
      4 C8          1.5490    1.0500   -0.7180 c3        1 0NW      0.185500
      5 C9          0.9450    2.3190   -1.3800 c         1 0NW      0.636100
      6 C12         0.9550    4.7470   -1.7090 c3        1 0NW      0.078500
      7 C13         0.6300    5.6580   -0.5240 c3        1 0NW     -0.102400
      8 C14         1.8620    5.9230    0.3320 c3        1 0NW     -0.063700
      9 C15         2.5140    4.6080    0.7350 c3        1 0NW     -0.102400
     10 C16         2.7980    3.7480   -0.4980 c3        1 0NW      0.078500
     11 C30        -3.5320    0.4100    1.7160 ca        1 0NW     -0.156000
     12 C31        -4.2250   -0.6990    1.2330 ca        1 0NW     -0.045000
     13 C32        -3.5260   -1.7760    0.6700 cp        1 0NW     -0.069000
     14 C33        -2.1300   -1.7240    0.6010 ca        1 0NW      0.007000
     15 C34        -4.2570   -2.9470    0.1840 cp        1 0NW     -0.039000
     16 C35        -4.2140   -3.3560   -1.1580 ca        1 0NW      0.036400
     17 C44         4.1410   -3.7440    0.5160 ce        1 0NW      0.647800
     18 N46         4.8190   -4.7650    0.0760 n2        1 0NW     -0.851100
     19 N45         3.1310   -3.8760    1.4800 nh        1 0NW     -0.898800
     20 C4          3.4300   -1.5890   -0.5540 ca        1 0NW     -0.103000
     21 C5          3.6820   -0.2680   -0.9420 ca        1 0NW     -0.102300
     22 N24         0.5240    0.0840   -0.4300 n3        1 0NW     -0.912100
     23 S25         0.2580   -0.5720    1.0260 sy        1 0NW      1.535200
     24 C28        -1.4260   -0.6150    1.0810 ca        1 0NW     -0.389500
     25 C39        -5.0330   -3.6870    1.0890 ca        1 0NW     -0.101000
     26 C38        -5.7420   -4.8110    0.6760 ca        1 0NW     -0.124000
     27 C37        -5.6840   -5.2070   -0.6640 ca        1 0NW      0.028400
     28 CL2        -6.5450   -6.5760   -1.1790 cl        1 0NW     -0.077400
     29 C36        -4.9240   -4.4830   -1.5860 ca        1 0NW     -0.122000
     30 CL1        -3.3150   -2.4910   -2.3130 cl        1 0NW     -0.077400
     31 C29        -2.1430    0.4510    1.6410 ca        1 0NW     -0.003000
     32 O27         0.7350   -1.9000    1.0500 o         1 0NW     -0.667800
     33 O26         0.7500    0.2770    2.0380 o         1 0NW     -0.667800
     34 N11         1.6380    3.5210   -1.3310 n         1 0NW     -0.450800
     35 N19         2.3900    8.1690    3.3670 n3        1 0NW     -0.916800
     36 O10        -0.1220    2.2370   -2.0220 o         1 0NW     -0.607100
     37 C6          4.9300    0.3030   -0.6630 ca        1 0NW     -0.121000
     38 H1          6.8910    0.0190    0.2060 ha        1 0NW      0.136000
     39 H2          6.4350   -2.3380    0.8980 ha        1 0NW      0.145000
     40 H5          2.0190    1.3380    0.2740 h1        1 0NW      0.094700
     41 H6          0.0030    4.4940   -2.2560 h1        1 0NW      0.060950
     42 H7          1.6340    5.2990   -2.4210 h1        1 0NW      0.060950
     43 H8          0.2310    6.6250   -0.9260 hc        1 0NW      0.055450
     44 H9         -0.1720    5.1940    0.1070 hc        1 0NW      0.055450
     45 H10         2.6010    6.5070   -0.2890 hc        1 0NW      0.047700
     46 H11         3.4840    4.8050    1.2590 hc        1 0NW      0.055450
     47 H12         1.8490    4.0540    1.4480 hc        1 0NW      0.055450
     48 H13         3.5560    4.2880   -1.1410 h1        1 0NW      0.060950
     49 H14         3.2670    2.7770   -0.1820 h1        1 0NW      0.060950
     50 H15        -4.0840    1.2540    2.1580 ha        1 0NW      0.146000
     51 H16        -5.3250   -0.7330    1.2900 ha        1 0NW      0.144000
     52 H17        -1.5720   -2.5790    0.1760 ha        1 0NW      0.161000
     53 H18         5.5730   -4.5180   -0.5270 hn        1 0NW      0.386400
     54 H19         2.4230   -3.1720    1.4390 hn        1 0NW      0.417300
     55 H20         2.7810   -4.7980    1.6200 hn        1 0NW      0.417300
     56 H21         2.4500   -2.0480   -0.7590 ha        1 0NW      0.151000
     57 H22        -0.0740   -0.0780   -1.2090 hn        1 0NW      0.463800
     58 H23        -5.0740   -3.3730    2.1440 ha        1 0NW      0.148000
     59 H24        -6.3420   -5.3830    1.4000 ha        1 0NW      0.155000
     60 H25        -4.8840   -4.7950   -2.6430 ha        1 0NW      0.165000
     61 H26        -1.5930    1.3230    2.0370 ha        1 0NW      0.157000
     62 H29         3.4130    6.5720    2.5220 h1        1 0NW      0.023700
     63 H30         3.2450    7.9930    1.4050 h1        1 0NW      0.023700
     64 H31         3.2050    8.6430    3.7000 hn        1 0NW      0.349800
     65 H32         1.6740    8.8400    3.1720 hn        1 0NW      0.349800
     66 H34         5.1370    1.3410   -0.9650 ha        1 0NW      0.128000
     67 C7          2.6480    0.5190   -1.6670 c3        1 0NW     -0.049100
     68 C17         1.4780    6.7510    1.5480 c3        1 0NW     -0.080400
     69 C18         2.7070    7.3880    2.1960 c3        1 0NW      0.159800
     70 H3          2.1840   -0.1110   -2.4720 hc        1 0NW      0.068700
     71 H4          3.1350    1.3950   -2.1750 hc        1 0NW      0.068700
     72 H27         0.7620    7.5550    1.2310 hc        1 0NW      0.050200
     73 H28         0.9460    6.1040    2.2930 hc        1 0NW      0.050200
@<TRIPOS>BOND
     1    1    2 ar  
     2    1   37 ar  
     3    1   38 1   
     4    2    3 ar  
     5    2   39 1   
     6    3   17 1   
     7    3   20 ar  
     8    4    5 1   
     9    4   22 1   
    10    4   40 1   
    11    4   67 1   
    12    5   34 1   
    13    5   36 2   
    14    6    7 1   
    15    6   34 1   
    16    6   41 1   
    17    6   42 1   
    18    7    8 1   
    19    7   43 1   
    20    7   44 1   
    21    8    9 1   
    22    8   45 1   
    23    8   68 1   
    24    9   10 1   
    25    9   46 1   
    26    9   47 1   
    27   10   34 1   
    28   10   48 1   
    29   10   49 1   
    30   11   12 ar  
    31   11   31 ar  
    32   11   50 1   
    33   12   13 ar  
    34   12   51 1   
    35   13   14 ar  
    36   13   15 1   
    37   14   24 ar  
    38   14   52 1   
    39   15   16 ar  
    40   15   25 ar  
    41   16   29 ar  
    42   16   30 1   
    43   17   18 2   
    44   17   19 1   
    45   18   53 1   
    46   19   54 1   
    47   19   55 1   
    48   20   21 ar  
    49   20   56 1   
    50   21   37 ar  
    51   21   67 1   
    52   22   23 1   
    53   22   57 1   
    54   23   24 1   
    55   23   32 2   
    56   23   33 2   
    57   24   31 ar  
    58   25   26 ar  
    59   25   58 1   
    60   26   27 ar  
    61   26   59 1   
    62   27   28 1   
    63   27   29 ar  
    64   29   60 1   
    65   31   61 1   
    66   35   64 1   
    67   35   65 1   
    68   35   69 1   
    69   37   66 1   
    70   62   69 1   
    71   63   69 1   
    72   67   70 1   
    73   67   71 1   
    74   68   69 1   
    75   68   72 1   
    76   68   73 1   
@<TRIPOS>SUBSTRUCTURE
     1 0NW         1 TEMP              0 ****  ****    0 ROOT
