@<TRIPOS>MOLECULE
0NW
   73    64     1     0     0
SMALL
bcc


@<TRIPOS>ATOM
      1 C1          4.0870   -1.3670   -1.1120 c1        1 0NW     -0.122500
      2 C2          4.3630   -2.4630   -0.2950 c1        1 0NW     -0.112000
      3 C3          3.3170   -3.2360    0.2120 c1        1 0NW     -0.116000
      4 C7          0.2290   -1.7890   -1.3900 c3        1 0NW     -0.138000
      5 C8         -0.4390   -0.5050   -0.9060 c3        1 0NW      0.040000
      6 C9         -1.1970   -0.7810    0.3810 c2        1 0NW      0.287000
      7 C12        -3.0160   -2.1000    1.5990 c3        1 0NW     -0.036500
      8 C13        -4.5410   -2.0220    1.3680 c3        1 0NW     -0.180500
      9 C14        -4.9740   -2.8090    0.1680 c3        1 0NW     -0.104000
     10 C15        -4.1850   -2.4560   -1.0480 c3        1 0NW     -0.180500
     11 C16        -2.6740   -2.5330   -0.8030 c3        1 0NW     -0.036500
     12 C30         0.0210    5.4390   -0.0970 c1        1 0NW     -0.157000
     13 C31         1.2900    5.9260    0.1810 c1        1 0NW     -0.047000
     14 C32         2.4000    5.1060    0.0270 c1        1 0NW     -0.069000
     15 C33         2.2400    3.8080   -0.4030 c2        1 0NW      0.007000
     16 C34         3.8320    5.6410    0.3960 c1        1 0NW     -0.040000
     17 C35         4.6250    6.2080   -0.5730 c1        1 0NW     -0.043000
     18 C44         3.7060   -4.3480    1.1640 c1        1 0NW      0.115000
     19 N46         4.1000   -4.0640    2.3670 n1        1 0NW     -0.303000
     20 N45         3.6370   -5.7080    0.7390 n2        1 0NW     -0.331000
     21 C4          2.0000   -2.9150   -0.0960 c2        1 0NW     -0.083000
     22 C5          1.7200   -1.8110   -0.9200 c1        1 0NW     -0.087000
     23 N24         0.5560    0.4920   -0.6700 n3        1 0NW     -0.888000
     24 S25         0.6470    1.8340   -1.6650 s4        1 0NW      2.081800
     25 C28         0.9730    3.3220   -0.6820 c1        1 0NW     -0.828000
     26 C39         4.3090    5.5150    1.7040 c1        1 0NW     -0.103000
     27 C38         5.5760    5.9610    2.0220 c1        1 0NW     -0.125000
     28 C37         6.3750    6.5320    1.0500 c1        1 0NW     -0.050000
     29 CL2         7.9370    7.1900    1.4800 cl        1 0NW      0.005000
     30 C36         5.9030    6.6580   -0.2510 c2        1 0NW     -0.123000
     31 CL1         4.4080    6.9760   -2.1290 cl        1 0NW      0.005000
     32 C29        -0.1390    4.1460   -0.5260 c2        1 0NW     -0.005000
     33 O27         1.6530    1.6540   -2.7010 o         1 0NW     -0.549900
     34 O26        -0.5140    1.9770   -2.4350 o         1 0NW     -0.549900
     35 N11        -2.2610   -1.7690    0.3980 n         1 0NW     -0.312000
     36 C17        -6.4910   -2.5260   -0.1130 c3        1 0NW     -0.159000
     37 C18        -7.3120   -3.7490    0.2640 c3        1 0NW     -0.077000
     38 N19        -8.6730   -3.4110    0.2690 n3        1 0NW     -0.349000
     39 O10        -0.9010   -0.1820    1.4050 o         1 0NW     -0.361000
     40 C6          2.7610   -1.0410   -1.4240 c1        1 0NW     -0.122500
     41 H1          4.7990   -0.8420   -1.4550 ha        1 0NW      0.148000
     42 H2          5.3130   -2.6960   -0.0710 ha        1 0NW      0.138000
     43 H3         -0.2360   -2.5520   -1.0210 hc        1 0NW      0.103000
     44 H4          0.1940   -1.8270   -2.3710 hc        1 0NW      0.103000
     45 H5         -1.0790   -0.1770   -1.6070 h1        1 0NW      0.126000
     46 H6         -2.7810   -3.0110    1.8820 h1        1 0NW      0.100500
     47 H7         -2.7670   -1.4570    2.3280 h1        1 0NW      0.100500
     48 H8         -5.0070   -2.3760    2.1700 hc        1 0NW      0.092500
     49 H9         -4.7970   -1.0760    1.2400 hc        1 0NW      0.092500
     50 H10        -4.8580   -3.7560    0.3540 hc        1 0NW      0.091000
     51 H11        -4.4250   -3.0800   -1.7770 hc        1 0NW      0.092500
     52 H12        -4.4120   -1.5550   -1.3180 hc        1 0NW      0.092500
     53 H13        -2.4120   -3.4890   -0.6870 h1        1 0NW      0.100500
     54 H14        -2.1960   -2.1600   -1.6060 h1        1 0NW      0.100500
     55 H15        -0.7630    6.0210    0.0120 ha        1 0NW      0.145000
     56 H16         1.4020    6.8360    0.4830 ha        1 0NW      0.143000
     57 H17         3.0020    3.2430   -0.5090 ha        1 0NW      0.163000
     58 H18         4.1440   -3.1930    2.6410 DU        1 0NW      0.152000
     59 H19         3.3540   -5.9050   -0.0860 hn        1 0NW      0.191500
     60 H20         3.8430   -6.3650    1.3090 hn        1 0NW      0.191500
     61 H21         1.2580   -3.4660    0.2650 ha        1 0NW      0.151000
     62 H22         1.1350    0.3920   -0.0070 hn        1 0NW      0.265000
     63 H23         3.7460    5.1120    2.3920 ha        1 0NW      0.147000
     64 H24         5.9100    5.8730    2.9380 ha        1 0NW      0.154000
     65 H25         6.4670    7.0620   -0.9390 ha        1 0NW      0.165000
     66 H26        -1.0370    3.8010   -0.7240 ha        1 0NW      0.155000
     67 H27        -6.6150   -2.3330   -1.0630 hc        1 0NW      0.089000
     68 H28        -6.7900   -1.7470    0.4270 hc        1 0NW      0.089000
     69 H29        -7.0560   -4.0510    1.1350 h1        1 0NW      0.064000
     70 H30        -7.1530   -4.4700   -0.3950 h1        1 0NW      0.064000
     71 H31        -9.1700   -4.1330   -0.0010 hn        1 0NW      0.144500
     72 H32        -8.9230   -3.1670    1.1150 hn        1 0NW      0.144500
     73 H34         2.5640   -0.2610   -2.0080 ha        1 0NW      0.148000
@<TRIPOS>BOND
     1    1   40 1   
     2    1   41 1   
     3    2    3 1   
     4    2   42 1   
     5    3   21 1   
     6    4    5 1   
     7    4   22 1   
     8    4   43 1   
     9    4   44 1   
    10    5    6 1   
    11    5   23 1   
    12    5   45 1   
    13    6   35 1   
    14    6   39 1   
    15    7    8 1   
    16    7   35 1   
    17    7   46 1   
    18    7   47 1   
    19    8    9 1   
    20    8   48 1   
    21    8   49 1   
    22    9   10 1   
    23    9   36 1   
    24    9   50 1   
    25   10   11 1   
    26   10   51 1   
    27   10   52 1   
    28   11   35 1   
    29   11   53 1   
    30   11   54 1   
    31   12   32 1   
    32   12   55 1   
    33   13   14 1   
    34   13   56 1   
    35   14   15 1   
    36   15   25 1   
    37   15   57 1   
    38   16   26 1   
    39   17   30 1   
    40   18   19 1   
    41   20   59 1   
    42   20   60 1   
    43   21   22 1   
    44   21   61 1   
    45   23   24 1   
    46   23   62 1   
    47   24   33 1   
    48   24   34 1   
    49   25   32 1   
    50   26   63 1   
    51   27   28 1   
    52   27   64 1   
    53   28   30 1   
    54   30   65 1   
    55   32   66 1   
    56   36   37 1   
    57   36   67 1   
    58   36   68 1   
    59   37   38 1   
    60   37   69 1   
    61   37   70 1   
    62   38   71 1   
    63   38   72 1   
    64   40   73 1   
@<TRIPOS>SUBSTRUCTURE
     1 0NW         1 TEMP              0 ****  ****    0 ROOT
