@<TRIPOS>MOLECULE
0NW
   73    72     1     0     0
SMALL
bcc


@<TRIPOS>ATOM
      1 C1          2.7240   -0.2120   -1.0420 c1        1 0NW      0.190000
      2 C2          2.2230    0.0270    0.1480 c2        1 0NW     -0.458000
      3 C3          2.5400   -0.5630    1.4290 c2        1 0NW     -0.036000
      4 C8         -0.6960    1.7420    3.4270 c3        1 0NW      0.047000
      5 C9         -1.6060    2.1090    4.6250 c2        1 0NW      0.281000
      6 C12        -4.4800    1.8880    7.5920 c2        1 0NW     -0.236000
      7 C13        -5.3800    2.5740    6.8890 c2        1 0NW     -0.173000
      8 C14        -6.5520    1.9590    6.2180 c3        1 0NW     -0.131000
      9 C15        -3.5310    2.6870    2.2050 c2        1 0NW     -0.292000
     10 C16        -3.7620    2.0520    3.3630 c2        1 0NW     -0.013000
     11 C30        -1.7840    6.3560    1.1640 c3        1 0NW     -0.231000
     12 C31        -1.5360    7.3170    2.2300 c1        1 0NW     -0.064000
     13 C32        -0.5770    6.9850    3.2340 c2        1 0NW     -0.166000
     14 C33         0.1630    5.8340    3.1580 c2        1 0NW      0.067000
     15 C34        -0.4060    7.9610    4.3060 c2        1 0NW      0.014000
     16 C35        -0.3190    7.6640    5.6340 c2        1 0NW     -0.126000
     17 C44         3.9690   -0.9990    1.6320 c2        1 0NW      0.103000
     18 N46         4.7640   -0.4860    2.5240 n2        1 0NW     -0.291000
     19 N45         4.3650   -2.0810    0.8200 n3        1 0NW     -0.328000
     20 C4          1.6640   -0.7030    2.4420 c2        1 0NW     -0.109000
     21 C5          0.2530   -0.3490    2.3970 c2        1 0NW     -0.097000
     22 N24         0.4280    2.6340    3.3620 n3        1 0NW     -0.883000
     23 S25         0.9240    3.4740    2.0820 s6        1 0NW      2.857000
     24 C28        -0.0510    4.8660    2.1120 c2        1 0NW     -0.866000
     25 C39        -0.3980    9.3860    3.8740 c3        1 0NW     -0.200000
     26 C38        -0.2840   10.4210    4.8810 c1        1 0NW     -0.061000
     27 C37        -0.2050   10.0180    6.2440 c2        1 0NW     -0.152000
     28 CL2        -0.0920   11.2390    7.4210 cl        1 0NW      0.003000
     29 C36        -0.2060    8.7040    6.6250 c2        1 0NW     -0.020000
     30 CL1        -0.3760    6.0710    6.2350 cl        1 0NW     -0.006000
     31 C29        -0.9950    5.1110    1.1650 c2        1 0NW      0.044000
     32 O27         2.2590    3.8650    2.2880 o         1 0NW     -0.930000
     33 O26         0.6220    2.7910    0.8800 o         1 0NW     -0.930000
     34 N11        -2.9830    2.0470    4.5190 n         1 0NW     -0.340000
     35 N19       -11.6370    1.6050    5.3240 n3        1 0NW     -0.226000
     36 O10        -1.1020    2.3640    5.7360 o         1 0NW     -0.354000
     37 C6         -0.5230   -0.6010    1.3330 c2        1 0NW     -0.182000
     38 H1         -0.1320   -1.0690    0.4200 ha        1 0NW      0.122500
     39 H2          1.4240    0.8200    0.1790 ha        1 0NW      0.239000
     40 H5         -1.2610    1.8130    2.4490 h1        1 0NW      0.125000
     41 H6         -3.4930    2.1360    5.3830 hn        1 0NW      0.259000
     42 H7         -3.6150    2.3690    8.0680 ha        1 0NW      0.117000
     43 H8         -5.2920    3.6670    6.7670 ha        1 0NW      0.123000
     44 H9         -4.5490    0.8030    7.7480 ha        1 0NW      0.117000
     45 H10        -6.7770    0.9530    6.6630 hc        1 0NW      0.079000
     46 H11        -2.6610    3.3240    2.0070 ha        1 0NW      0.120500
     47 H12        -6.2930    1.7880    5.1360 hc        1 0NW      0.079000
     48 H13        -4.7000    1.4680    3.4980 h4        1 0NW      0.144000
     49 H14        -4.2390    2.5910    1.3730 ha        1 0NW      0.120500
     50 H15        -1.6220    6.9020    0.1830 hc        1 0NW      0.183500
     51 H16        -2.8900    6.1080    1.1880 hc        1 0NW      0.183500
     52 H17         0.9660    5.6160    3.8880 ha        1 0NW      0.160000
     53 H18         4.3410    0.2070    3.1020 hn        1 0NW      0.153000
     54 H19         3.9640   -2.0650   -0.0920 hn        1 0NW      0.195500
     55 H20         5.3440   -2.2740    0.8150 hn        1 0NW      0.195500
     56 H21         2.0060   -1.1310    3.4030 ha        1 0NW      0.144000
     57 H22         0.9060    2.7020    4.2370 hn        1 0NW      0.266000
     58 H23        -1.3560    9.5790    3.2860 hc        1 0NW      0.192000
     59 H24         0.4350    9.5540    3.1260 hc        1 0NW      0.192000
     60 H25        -0.1290    8.4000    7.6840 ha        1 0NW      0.160000
     61 H26        -1.1870    4.3780    0.3560 ha        1 0NW      0.161000
     62 H29       -10.5710    0.8910    3.7250 ha        1 0NW      0.044000
     63 H30        -8.6370    2.3460    5.7630 hc        1 0NW      0.086333
     64 H31       -12.5440    1.2940    5.0360 hn        1 0NW      0.185500
     65 H32       -11.6320    2.0900    6.1950 hn        1 0NW      0.185500
     66 H34        -1.5940   -0.3610    1.3200 ha        1 0NW      0.122500
     67 C7         -0.3120    0.2590    3.6380 c3        1 0NW     -0.138000
     68 C17        -7.7800    2.8320    6.3010 c3        1 0NW     -0.232000
     69 C18       -10.5200    1.4370    4.6910 c1        1 0NW     -0.184000
     70 H3          0.4080    0.1740    4.4940 hc        1 0NW      0.110000
     71 H4         -1.2450   -0.2960    3.9300 hc        1 0NW      0.110000
     72 H27        -8.0720    2.9950    7.3660 hc        1 0NW      0.086333
     73 H28        -7.5870    3.8280    5.8360 hc        1 0NW      0.086333
@<TRIPOS>BOND
     1    1    2 1   
     2    2    3 1   
     3    2   39 1   
     4    3   17 1   
     5    3   20 1   
     6    4    5 1   
     7    4   22 1   
     8    4   40 1   
     9    4   67 1   
    10    5   34 1   
    11    5   36 1   
    12    6    7 1   
    13    6   42 1   
    14    6   44 1   
    15    7    8 1   
    16    7   43 1   
    17    8   45 1   
    18    8   47 1   
    19    8   68 1   
    20    9   10 1   
    21    9   46 1   
    22    9   49 1   
    23   10   34 1   
    24   10   48 1   
    25   11   12 1   
    26   11   31 1   
    27   11   50 1   
    28   11   51 1   
    29   12   13 1   
    30   13   14 1   
    31   13   15 1   
    32   14   24 1   
    33   14   52 1   
    34   15   16 1   
    35   15   25 1   
    36   16   29 1   
    37   16   30 1   
    38   17   18 1   
    39   17   19 1   
    40   18   53 1   
    41   19   54 1   
    42   19   55 1   
    43   20   21 1   
    44   20   56 1   
    45   21   37 1   
    46   21   67 1   
    47   22   23 1   
    48   22   57 1   
    49   23   24 1   
    50   23   32 1   
    51   23   33 1   
    52   24   31 1   
    53   25   26 1   
    54   25   58 1   
    55   25   59 1   
    56   26   27 1   
    57   27   28 1   
    58   27   29 1   
    59   29   60 1   
    60   31   61 1   
    61   34   41 1   
    62   35   64 1   
    63   35   65 1   
    64   35   69 1   
    65   37   38 1   
    66   37   66 1   
    67   62   69 1   
    68   63   68 1   
    69   67   70 1   
    70   67   71 1   
    71   68   72 1   
    72   68   73 1   
@<TRIPOS>SUBSTRUCTURE
     1 0NW         1 TEMP              0 ****  ****    0 ROOT
