@<TRIPOS>MOLECULE
0NX
   22    23     1     0     0
SMALL
bcc


@<TRIPOS>ATOM
      1 O13         0.0710   -0.0060   -0.0590 oh        1 0NX     -0.598800
      2 C12         1.4930    0.0000   -0.0360 c3        1 0NX      0.101100
      3 C9          1.9220   -0.0010    1.3870 cc        1 0NX      0.309600
      4 C8          1.0330   -0.0060    2.5460 cc        1 0NX     -0.319600
      5 N10         3.2040    0.0010    1.8150 nd        1 0NX     -0.360300
      6 O11         3.2190   -0.0010    3.1300 os        1 0NX     -0.118100
      7 C7          1.8870   -0.0060    3.6350 cd        1 0NX      0.312200
      8 C3          1.7120   -0.0090    5.0630 ca        1 0NX     -0.140500
      9 C2          2.8190   -0.0070    5.9260 ca        1 0NX     -0.099000
     10 C4          0.4140   -0.0140    5.6010 ca        1 0NX     -0.099000
     11 C5          0.2330   -0.0170    6.9820 ca        1 0NX     -0.134000
     12 C6          1.3370   -0.0150    7.8350 ca        1 0NX     -0.113000
     13 C1          2.6270   -0.0100    7.3050 ca        1 0NX     -0.134000
     14 H1         -0.1800   -0.0060   -0.9900 ho        1 0NX      0.409000
     15 H2          1.8790    0.9210   -0.5560 h1        1 0NX      0.048700
     16 H3          1.8870   -0.9140   -0.5600 h1        1 0NX      0.048700
     17 H4         -0.0510   -0.0090    2.5030 ha        1 0NX      0.188000
     18 H5          3.8360   -0.0030    5.5040 ha        1 0NX      0.145000
     19 H6         -0.4560   -0.0160    4.9280 ha        1 0NX      0.145000
     20 H7         -0.7850   -0.0210    7.3990 ha        1 0NX      0.137000
     21 H8          1.1890   -0.0170    8.9250 ha        1 0NX      0.135000
     22 H9          3.4980   -0.0080    7.9770 ha        1 0NX      0.137000
@<TRIPOS>BOND
     1    1    2 1   
     2    1   14 1   
     3    2    3 1   
     4    2   15 1   
     5    2   16 1   
     6    3    4 1   
     7    3    5 2   
     8    4    7 2   
     9    4   17 1   
    10    5    6 1   
    11    6    7 1   
    12    7    8 1   
    13    8    9 ar  
    14    8   10 ar  
    15    9   13 ar  
    16    9   18 1   
    17   10   11 ar  
    18   10   19 1   
    19   11   12 ar  
    20   11   20 1   
    21   12   13 ar  
    22   12   21 1   
    23   13   22 1   
@<TRIPOS>SUBSTRUCTURE
     1 0NX         1 TEMP              0 ****  ****    0 ROOT
