@<TRIPOS>MOLECULE
0NX
   22    23     1     0     0
SMALL
bcc


@<TRIPOS>ATOM
      1 O13         3.8920    1.5120   -0.0000 oh        1 0NX     -0.598800
      2 C12         3.8270    0.0920   -0.0010 c3        1 0NX      0.101100
      3 C9          2.3910   -0.2950   -0.0000 cc        1 0NX      0.309600
      4 C8          1.2600    0.6290   -0.0000 cc        1 0NX     -0.319600
      5 N10         1.9250   -1.5620   -0.0000 nd        1 0NX     -0.360300
      6 O11         0.6100   -1.5380   -0.0000 os        1 0NX     -0.118100
      7 C7          0.1460   -0.1920   -0.0000 cd        1 0NX      0.312200
      8 C3         -1.2770    0.0260    0.0000 ca        1 0NX     -0.140500
      9 C2         -2.1720   -1.0540    0.0000 ca        1 0NX     -0.099000
     10 C4         -1.7760    1.3390   -0.0000 ca        1 0NX     -0.099000
     11 C5         -3.1500    1.5620    0.0000 ca        1 0NX     -0.134000
     12 C6         -4.0370    0.4840    0.0000 ca        1 0NX     -0.113000
     13 C1         -3.5450   -0.8220    0.0010 ca        1 0NX     -0.134000
     14 H1          4.8310    1.7350   -0.0000 ho        1 0NX      0.409000
     15 H2          4.3370   -0.3140   -0.9180 h1        1 0NX      0.048700
     16 H3          4.3370   -0.3140    0.9170 h1        1 0NX      0.048700
     17 H4          1.3350    1.7120   -0.0000 ha        1 0NX      0.188000
     18 H5         -1.7810   -2.0840    0.0010 ha        1 0NX      0.145000
     19 H6         -1.0770    2.1890   -0.0000 ha        1 0NX      0.145000
     20 H7         -3.5370    2.5920    0.0000 ha        1 0NX      0.137000
     21 H8         -5.1220    0.6640    0.0010 ha        1 0NX      0.135000
     22 H9         -4.2430   -1.6720    0.0010 ha        1 0NX      0.137000
@<TRIPOS>BOND
     1    1    2 1   
     2    1   14 1   
     3    2    3 1   
     4    2   15 1   
     5    2   16 1   
     6    3    4 1   
     7    3    5 2   
     8    4    7 2   
     9    4   17 1   
    10    5    6 1   
    11    6    7 1   
    12    7    8 1   
    13    8    9 ar  
    14    8   10 ar  
    15    9   13 ar  
    16    9   18 1   
    17   10   11 ar  
    18   10   19 1   
    19   11   12 ar  
    20   11   20 1   
    21   12   13 ar  
    22   12   21 1   
    23   13   22 1   
@<TRIPOS>SUBSTRUCTURE
     1 0NX         1 TEMP              0 ****  ****    0 ROOT
