@<TRIPOS>MOLECULE
0NX
   22    23     1     0     0
SMALL
bcc


@<TRIPOS>ATOM
      1 O13         0.0680   -0.0020   -0.0580 oh        1 0NX     -0.598800
      2 C12         1.4900    0.0010   -0.0360 c3        1 0NX      0.101100
      3 C9          1.9200   -0.0010    1.3870 cc        1 0NX      0.309600
      4 C8          1.0320   -0.0060    2.5460 cc        1 0NX     -0.319600
      5 N10         3.2020    0.0010    1.8140 nd        1 0NX     -0.360300
      6 O11         3.2180   -0.0020    3.1290 os        1 0NX     -0.118100
      7 C7          1.8860   -0.0060    3.6350 cd        1 0NX      0.312200
      8 C3          1.7120   -0.0090    5.0630 ca        1 0NX     -0.140500
      9 C2          2.8200   -0.0090    5.9250 ca        1 0NX     -0.099000
     10 C4          0.4160   -0.0130    5.6020 ca        1 0NX     -0.099000
     11 C5          0.2350   -0.0170    6.9830 ca        1 0NX     -0.134000
     12 C6          1.3400   -0.0160    7.8350 ca        1 0NX     -0.113000
     13 C1          2.6300   -0.0120    7.3040 ca        1 0NX     -0.134000
     14 H1         -0.1830   -0.0010   -0.9890 ho        1 0NX      0.409000
     15 H2          1.8780    0.9200   -0.5570 h1        1 0NX      0.048700
     16 H3          1.8820   -0.9150   -0.5600 h1        1 0NX      0.048700
     17 H4         -0.0520   -0.0080    2.5040 ha        1 0NX      0.188000
     18 H5          3.8370   -0.0050    5.5020 ha        1 0NX      0.145000
     19 H6         -0.4550   -0.0140    4.9290 ha        1 0NX      0.145000
     20 H7         -0.7820   -0.0200    7.4010 ha        1 0NX      0.137000
     21 H8          1.1930   -0.0180    8.9260 ha        1 0NX      0.135000
     22 H9          3.5020   -0.0110    7.9760 ha        1 0NX      0.137000
@<TRIPOS>BOND
     1    1    2 1   
     2    1   14 1   
     3    2    3 1   
     4    2   15 1   
     5    2   16 1   
     6    3    4 1   
     7    3    5 2   
     8    4    7 2   
     9    4   17 1   
    10    5    6 1   
    11    6    7 1   
    12    7    8 1   
    13    8    9 ar  
    14    8   10 ar  
    15    9   13 ar  
    16    9   18 1   
    17   10   11 ar  
    18   10   19 1   
    19   11   12 ar  
    20   11   20 1   
    21   12   13 ar  
    22   12   21 1   
    23   13   22 1   
@<TRIPOS>SUBSTRUCTURE
     1 0NX         1 TEMP              0 ****  ****    0 ROOT
