@<TRIPOS>MOLECULE
0NX
   22    19     1     0     0
SMALL
bcc


@<TRIPOS>ATOM
      1 O13        -0.0350   -2.2520   -4.3560 oh        1 0NX     -0.313000
      2 C12        -0.6240   -1.1500   -3.6480 c3        1 0NX      0.048000
      3 C9         -0.0950   -1.1110   -2.2380 c2        1 0NX     -0.145000
      4 C8         -0.3740   -0.1420   -1.2980 c1        1 0NX     -0.219000
      5 N10         0.7220   -2.0230   -1.6680 n2        1 0NX     -0.023000
      6 O11         0.9620   -1.6250   -0.3590 os        1 0NX     -0.058000
      7 C7          0.2840   -0.4680   -0.1430 c1        1 0NX      0.026000
      8 C3          0.2450    0.3150    1.1510 c1        1 0NX     -0.039000
      9 C2         -0.7000   -0.0010    2.1250 c2        1 0NX     -0.091000
     10 C4          1.1750    1.3080    1.3890 c1        1 0NX     -0.101000
     11 C5          1.1660    1.9920    2.6040 c1        1 0NX     -0.122000
     12 C6          0.2170    1.6710    3.5770 c1        1 0NX     -0.122000
     13 C1         -0.7090    0.6790    3.3350 c1        1 0NX     -0.134000
     14 H1         -0.4180   -2.3290   -5.1660 ho        1 0NX      0.213000
     15 H2         -1.5750   -1.2560   -3.6270 h1        1 0NX      0.102000
     16 H3         -0.3950   -0.3000   -4.1090 h1        1 0NX      0.102000
     17 H4         -0.9300    0.6280   -1.4310 DU        1 0NX      0.175000
     18 H5         -1.3700   -0.7140    1.9520 ha        1 0NX      0.153000
     19 H6          1.8420    1.5310    0.7030 ha        1 0NX      0.136000
     20 H7          1.7910    2.6620    2.7680 ha        1 0NX      0.136500
     21 H8          0.2090    2.1370    4.4060 ha        1 0NX      0.136500
     22 H9         -1.3900    0.4490    4.0320 ha        1 0NX      0.139000
@<TRIPOS>BOND
     1    1    2 1   
     2    1   14 1   
     3    2    3 1   
     4    2   15 1   
     5    2   16 1   
     6    3    4 1   
     7    3    5 1   
     8    4    7 1   
     9    5    6 1   
    10    6    7 1   
    11    8    9 1   
    12    8   10 1   
    13    9   13 1   
    14    9   18 1   
    15   10   19 1   
    16   11   12 1   
    17   11   20 1   
    18   12   21 1   
    19   13   22 1   
@<TRIPOS>SUBSTRUCTURE
     1 0NX         1 TEMP              0 ****  ****    0 ROOT
