@<TRIPOS>MOLECULE
0NY
   45    47     1     0     0
SMALL
bcc


@<TRIPOS>ATOM
      1 C1         -0.2470   -0.2470    0.0800 ca        1 0NY      0.450600
      2 C2          1.1740   -0.0720    0.0060 ca        1 0NY     -0.311600
      3 C3          1.8930   -0.0030    1.2840 ca        1 0NY      0.699200
      4 N1          1.2280   -0.1040    2.4590 nb        1 0NY     -0.790000
      5 C4         -0.1350   -0.2680    2.3820 ca        1 0NY      0.673900
      6 N2         -0.8990   -0.3550    1.2980 nb        1 0NY     -0.707000
      7 C5         -0.3280   -0.2370   -2.3700 ca        1 0NY      0.134100
      8 C6          1.0730   -0.0520   -2.4210 ca        1 0NY     -0.195000
      9 C7          1.7980    0.0350   -1.2540 ca        1 0NY     -0.066000
     10 C8         -0.9910   -0.3040   -1.1420 ca        1 0NY      0.005800
     11 O1         -2.3740   -0.3080   -1.1270 os        1 0NY     -0.308900
     12 C9         -2.9450   -1.6120   -1.0040 c3        1 0NY      0.118700
     13 O2         -1.1200   -0.3830   -3.4890 os        1 0NY     -0.306900
     14 C10        -0.5200   -0.0400   -4.7340 c3        1 0NY      0.110700
     15 N3          3.2650    0.2480    1.2750 nu        1 0NY     -0.846900
     16 C11         4.0750    0.1200    2.4750 c3        1 0NY      0.206500
     17 C12         4.2690   -1.3200    2.9560 c3        1 0NY     -0.124100
     18 C13         5.4710    0.7350    2.2670 c3        1 0NY     -0.022100
     19 C14         5.4810    2.1180    1.7560 cc        1 0NY     -0.110600
     20 N4          4.4130    3.0230    1.8050 na        1 0NY      0.004400
     21 N5          4.7210    4.2050    1.2810 nc        1 0NY     -0.514800
     22 C15         6.0300    4.1360    0.8840 cd        1 0NY      0.303600
     23 C16         6.5520    2.8170    1.1680 cd        1 0NY     -0.301300
     24 C17         6.7870    5.2400    0.2690 c3        1 0NY     -0.118400
     25 H1         -0.6450   -0.3440    3.3660 h5        1 0NY      0.053100
     26 H2          1.5820    0.0270   -3.3920 ha        1 0NY      0.145000
     27 H3          2.8830    0.2010   -1.3370 ha        1 0NY      0.133000
     28 H4         -2.6670   -2.2350   -1.8890 h1        1 0NY      0.042033
     29 H5         -2.6170   -2.1010   -0.0570 h1        1 0NY      0.042033
     30 H6         -4.0460   -1.4120   -0.9880 h1        1 0NY      0.042033
     31 H7          0.2730   -0.7800   -5.0010 h1        1 0NY      0.047700
     32 H8         -1.3750   -0.1030   -5.4560 h1        1 0NY      0.047700
     33 H9         -0.1020    0.9950   -4.7070 h1        1 0NY      0.047700
     34 H10         3.7360   -0.0200    0.4380 hn        1 0NY      0.419800
     35 H11         3.5550    0.6960    3.3000 h1        1 0NY      0.085700
     36 H12         4.7960   -1.9330    2.1860 hc        1 0NY      0.048700
     37 H13         3.2870   -1.7980    3.1850 hc        1 0NY      0.048700
     38 H14         4.8830   -1.3140    3.8880 hc        1 0NY      0.048700
     39 H15         5.9940    0.7140    3.2630 hc        1 0NY      0.066200
     40 H16         6.0670    0.0940    1.5620 hc        1 0NY      0.066200
     41 H17         3.4820    2.8270    2.0920 hn        1 0NY      0.329700
     42 H18         7.5550    2.4590    0.9720 ha        1 0NY      0.161000
     43 H19         6.9080    6.0850    0.9930 hc        1 0NY      0.047700
     44 H20         6.2600    5.6300   -0.6380 hc        1 0NY      0.047700
     45 H21         7.8010    4.8790   -0.0330 hc        1 0NY      0.047700
@<TRIPOS>BOND
     1    1    2 ar  
     2    1    6 ar  
     3    1   10 ar  
     4    2    3 ar  
     5    2    9 ar  
     6    3    4 ar  
     7    3   15 1   
     8    4    5 ar  
     9    5    6 ar  
    10    5   25 1   
    11    7    8 ar  
    12    7   10 ar  
    13    7   13 1   
    14    8    9 ar  
    15    8   26 1   
    16    9   27 1   
    17   10   11 1   
    18   11   12 1   
    19   12   28 1   
    20   12   29 1   
    21   12   30 1   
    22   13   14 1   
    23   14   31 1   
    24   14   32 1   
    25   14   33 1   
    26   15   16 1   
    27   15   34 1   
    28   16   17 1   
    29   16   18 1   
    30   16   35 1   
    31   17   36 1   
    32   17   37 1   
    33   17   38 1   
    34   18   19 1   
    35   18   39 1   
    36   18   40 1   
    37   19   20 1   
    38   19   23 2   
    39   20   21 1   
    40   20   41 1   
    41   21   22 2   
    42   22   23 1   
    43   22   24 1   
    44   23   42 1   
    45   24   43 1   
    46   24   44 1   
    47   24   45 1   
@<TRIPOS>SUBSTRUCTURE
     1 0NY         1 TEMP              0 ****  ****    0 ROOT
