@<TRIPOS>MOLECULE
0NY
   45    47     1     0     0
SMALL
bcc


@<TRIPOS>ATOM
      1 C1         -0.2300   -0.2930    0.0670 ca        1 0NY      0.450600
      2 C2          1.1870   -0.0910   -0.0050 ca        1 0NY     -0.311600
      3 C3          1.9050   -0.0260    1.2740 ca        1 0NY      0.699200
      4 N1          1.2430   -0.1540    2.4470 nb        1 0NY     -0.790000
      5 C4         -0.1170   -0.3420    2.3680 ca        1 0NY      0.673900
      6 N2         -0.8800   -0.4280    1.2820 nb        1 0NY     -0.707000
      7 C5         -0.3120   -0.2520   -2.3840 ca        1 0NY      0.134100
      8 C6          1.0860   -0.0410   -2.4320 ca        1 0NY     -0.195000
      9 C7          1.8090    0.0430   -1.2640 ca        1 0NY     -0.066000
     10 C8         -0.9740   -0.3470   -1.1570 ca        1 0NY      0.005800
     11 O1         -2.3560   -0.3760   -1.1420 os        1 0NY     -0.308900
     12 C9         -2.9040   -1.6910   -1.0360 c3        1 0NY      0.118700
     13 O2         -1.1010   -0.3970   -3.5040 os        1 0NY     -0.306900
     14 C10        -0.5080   -0.0280   -4.7450 c3        1 0NY      0.110700
     15 N3          3.2730    0.2500    1.2680 nh        1 0NY     -0.846900
     16 C11         4.0850    0.1200    2.4660 c3        1 0NY      0.206500
     17 C12         4.3050   -1.3230    2.9270 c3        1 0NY     -0.124100
     18 C13         5.4700    0.7630    2.2660 c3        1 0NY     -0.022100
     19 C14         5.4550    2.1530    1.7760 cc        1 0NY     -0.110600
     20 N4          4.3700    3.0380    1.8370 na        1 0NY      0.004400
     21 N5          4.6570    4.2330    1.3320 nc        1 0NY     -0.514800
     22 C15         5.9670    4.1930    0.9350 cd        1 0NY      0.303600
     23 C16         6.5130    2.8810    1.2000 cd        1 0NY     -0.301300
     24 C17         6.7040    5.3210    0.3380 c3        1 0NY     -0.118400
     25 H1         -0.6260   -0.4400    3.3510 h5        1 0NY      0.053100
     26 H2          1.5930    0.0600   -3.4020 ha        1 0NY      0.145000
     27 H3          2.8910    0.2300   -1.3450 ha        1 0NY      0.133000
     28 H4         -2.5670   -2.1870   -0.0950 h1        1 0NY      0.042033
     29 H5         -2.6140   -2.2970   -1.9280 h1        1 0NY      0.042033
     30 H6         -4.0080   -1.5110   -1.0170 h1        1 0NY      0.042033
     31 H7         -1.3610   -0.0970   -5.4670 h1        1 0NY      0.047700
     32 H8         -0.1090    1.0140   -4.7050 h1        1 0NY      0.047700
     33 H9          0.2990   -0.7500   -5.0210 h1        1 0NY      0.047700
     34 H10         3.7480    0.0010    0.4270 hn        1 0NY      0.419800
     35 H11         3.5540    0.6740    3.2990 h1        1 0NY      0.085700
     36 H12         4.8440   -1.9150    2.1490 hc        1 0NY      0.048700
     37 H13         3.3320   -1.8220    3.1490 hc        1 0NY      0.048700
     38 H14         4.9190   -1.3190    3.8590 hc        1 0NY      0.048700
     39 H15         5.9930    0.7360    3.2620 hc        1 0NY      0.066200
     40 H16         6.0770    0.1430    1.5520 hc        1 0NY      0.066200
     41 H17         3.4420    2.8200    2.1210 hn        1 0NY      0.329700
     42 H18         7.5220    2.5440    1.0000 ha        1 0NY      0.161000
     43 H19         6.1720    5.7120   -0.5660 hc        1 0NY      0.047700
     44 H20         7.7250    4.9840    0.0350 hc        1 0NY      0.047700
     45 H21         6.8060    6.1580    1.0730 hc        1 0NY      0.047700
@<TRIPOS>BOND
     1    1    2 ar  
     2    1    6 ar  
     3    1   10 ar  
     4    2    3 ar  
     5    2    9 ar  
     6    3    4 ar  
     7    3   15 1   
     8    4    5 ar  
     9    5    6 ar  
    10    5   25 1   
    11    7    8 ar  
    12    7   10 ar  
    13    7   13 1   
    14    8    9 ar  
    15    8   26 1   
    16    9   27 1   
    17   10   11 1   
    18   11   12 1   
    19   12   28 1   
    20   12   29 1   
    21   12   30 1   
    22   13   14 1   
    23   14   31 1   
    24   14   32 1   
    25   14   33 1   
    26   15   16 1   
    27   15   34 1   
    28   16   17 1   
    29   16   18 1   
    30   16   35 1   
    31   17   36 1   
    32   17   37 1   
    33   17   38 1   
    34   18   19 1   
    35   18   39 1   
    36   18   40 1   
    37   19   20 1   
    38   19   23 2   
    39   20   21 1   
    40   20   41 1   
    41   21   22 2   
    42   22   23 1   
    43   22   24 1   
    44   23   42 1   
    45   24   43 1   
    46   24   44 1   
    47   24   45 1   
@<TRIPOS>SUBSTRUCTURE
     1 0NY         1 TEMP              0 ****  ****    0 ROOT
