@<TRIPOS>MOLECULE
0NY
   46    48     1     0     0
SMALL
bcc


@<TRIPOS>ATOM
      1 C1         -0.0730   -0.2400    0.0810 ca        1 0NY      0.434600
      2 C2          1.3590   -0.0660    0.0620 ca        1 0NY     -0.276600
      3 C3          1.9890   -0.0110    1.3640 ca        1 0NY      0.534200
      4 N1          1.3190   -0.1200    2.5090 nb        1 0NY     -0.676000
      5 C4         -0.0520   -0.3010    2.3950 ca        1 0NY      0.647900
      6 N2         -0.7610   -0.3650    1.2750 nb        1 0NY     -0.593000
      7 C5         -0.0560   -0.1820   -2.3720 ca        1 0NY      0.131100
      8 C6          1.3520   -0.0290   -2.3610 ca        1 0NY     -0.130000
      9 C7          2.0370    0.0360   -1.1700 ca        1 0NY     -0.124000
     10 C8         -0.7740   -0.2720   -1.1690 ca        1 0NY      0.055800
     11 O1         -2.1480   -0.2530   -1.1470 os        1 0NY     -0.298900
     12 C9         -2.7840   -1.4160   -1.6900 c3        1 0NY      0.112700
     13 O2         -0.8040   -0.2610   -3.5180 os        1 0NY     -0.298900
     14 C10        -0.1190   -0.0760   -4.7580 c3        1 0NY      0.103700
     15 N3          3.4570    0.1970    1.3980 n4        1 0NY     -0.764700
     16 C11         4.1380    0.0930    2.7450 c3        1 0NY      0.139500
     17 C12         4.2840   -1.3520    3.1950 c3        1 0NY     -0.128100
     18 C13         5.5270    0.7550    2.6820 c3        1 0NY     -0.039100
     19 C14         5.4670    2.1190    2.1290 cc        1 0NY     -0.183600
     20 N4          5.2200    3.2840    2.8690 na        1 0NY      0.010400
     21 N5          5.2250    4.3750    2.1140 nc        1 0NY     -0.469800
     22 C15         5.4540    3.9740    0.8240 cd        1 0NY      0.329600
     23 C16         5.6120    2.5360    0.7900 cd        1 0NY     -0.314300
     24 C17         5.5390    4.8750   -0.3400 c3        1 0NY     -0.133400
     25 H1         -0.5920   -0.3980    3.3650 h5        1 0NY      0.093100
     26 H2          1.9000    0.0500   -3.3140 ha        1 0NY      0.166000
     27 H3          3.1280    0.1740   -1.2090 ha        1 0NY      0.125000
     28 H4         -2.5230   -1.5380   -2.7690 h1        1 0NY      0.058367
     29 H5         -2.4960   -2.3210   -1.1040 h1        1 0NY      0.058367
     30 H6         -3.8720   -1.1850   -1.5630 h1        1 0NY      0.058367
     31 H7         -0.9490   -0.1370   -5.5090 h1        1 0NY      0.062033
     32 H8          0.3710    0.9260   -4.7910 h1        1 0NY      0.062033
     33 H9          0.6220   -0.8950   -4.9200 h1        1 0NY      0.062033
     34 H10         3.6390    1.1430    1.0140 hn        1 0NY      0.464800
     35 H11         3.5010    0.6630    3.4860 hx        1 0NY      0.129700
     36 H12         4.7670   -1.3560    4.2050 hc        1 0NY      0.078367
     37 H13         4.9320   -1.9360    2.4960 hc        1 0NY      0.078367
     38 H14         3.2930   -1.8600    3.2860 hc        1 0NY      0.078367
     39 H15         6.2270    0.1370    2.0560 hc        1 0NY      0.097200
     40 H16         5.9350    0.7540    3.7310 hc        1 0NY      0.097200
     41 H17         5.1610    3.3610    3.8600 hn        1 0NY      0.336700
     42 H18         5.8610    1.9370   -0.0780 ha        1 0NY      0.165000
     43 H19         6.4440    5.5310   -0.2560 hc        1 0NY      0.063700
     44 H20         5.6190    4.2750   -1.2790 hc        1 0NY      0.063700
     45 H21         4.6370    5.5340   -0.4050 hc        1 0NY      0.063700
     46 H32         3.8740   -0.5000    0.7690 hn        1 0NY      0.464800
@<TRIPOS>BOND
     1    1    2 ar  
     2    1    6 ar  
     3    1   10 ar  
     4    2    3 ar  
     5    2    9 ar  
     6    3    4 ar  
     7    3   15 1   
     8    4    5 ar  
     9    5    6 ar  
    10    5   25 1   
    11    7    8 ar  
    12    7   10 ar  
    13    7   13 1   
    14    8    9 ar  
    15    8   26 1   
    16    9   27 1   
    17   10   11 1   
    18   11   12 1   
    19   12   28 1   
    20   12   29 1   
    21   12   30 1   
    22   13   14 1   
    23   14   31 1   
    24   14   32 1   
    25   14   33 1   
    26   15   16 1   
    27   15   34 1   
    28   15   46 1   
    29   16   17 1   
    30   16   18 1   
    31   16   35 1   
    32   17   36 1   
    33   17   37 1   
    34   17   38 1   
    35   18   19 1   
    36   18   39 1   
    37   18   40 1   
    38   19   20 1   
    39   19   23 2   
    40   20   21 1   
    41   20   41 1   
    42   21   22 2   
    43   22   23 1   
    44   22   24 1   
    45   23   42 1   
    46   24   43 1   
    47   24   44 1   
    48   24   45 1   
@<TRIPOS>SUBSTRUCTURE
     1 0NY         1 TEMP              0 ****  ****    0 ROOT
