@<TRIPOS>MOLECULE
0NZ
   26    26     1     0     0
SMALL
bcc


@<TRIPOS>ATOM
      1 C1         -2.5610   -1.8050   -0.4480 c3        1 0NZ      0.355900
      2 C2         -3.6290   -0.7970   -0.0250 c3        1 0NZ     -0.116400
      3 C3         -3.1220    0.5960   -0.3480 c3        1 0NZ      0.051100
      4 C4         -1.7500    0.8610    0.3820 c3        1 0NZ      0.367800
      5 C5         -0.7740   -0.2270   -0.1560 c3        1 0NZ      0.058100
      6 C6          0.5850   -0.1680    0.5560 c3        1 0NZ      0.197400
      7 O1         -2.8540   -3.1010    0.0470 oh        1 0NZ     -0.648800
      8 O3         -4.0840    1.5580    0.0620 oh        1 0NZ     -0.657800
      9 O4         -1.3500    2.1010    0.2070 o         1 0NZ     -0.876500
     10 O5         -1.2880   -1.5550    0.1040 os        1 0NZ     -0.477600
     11 O6          1.6280   -0.1820   -0.3710 os        1 0NZ     -0.593200
     12 P           2.6430    1.1260   -0.3670 p5        1 0NZ      1.439800
     13 O1P         1.6090    2.2310   -0.9490 oh        1 0NZ     -0.813400
     14 O2P         2.9380    1.4400    1.0510 o         1 0NZ     -0.858500
     15 O3P         3.7030    0.8750   -1.3700 o         1 0NZ     -0.858500
     16 H1         -2.5070   -1.8990   -1.5690 h2        1 0NZ      0.035700
     17 H2         -4.5860   -1.0200   -0.5580 hc        1 0NZ      0.025200
     18 H3         -3.8200   -0.8870    1.0740 hc        1 0NZ      0.025200
     19 H4         -2.9870    0.7060   -1.4590 h1        1 0NZ      0.011700
     20 H5         -1.9440    0.5910    1.4770 h1        1 0NZ     -0.085300
     21 H6         -0.6360   -0.1170   -1.2640 h1        1 0NZ      0.041700
     22 H7          0.6330    0.7650    1.1850 h1        1 0NZ      0.033700
     23 H8          0.6890   -1.0720    1.2230 h1        1 0NZ      0.033700
     24 H9         -2.4290   -3.1790    0.9100 ho        1 0NZ      0.409000
     25 H10        -3.5560    2.3210    0.3510 ho        1 0NZ      0.427000
     26 H11         0.7380    2.2410   -0.5470 ho        1 0NZ      0.475000
@<TRIPOS>BOND
     1    1    2 1   
     2    1    7 1   
     3    1   10 1   
     4    1   16 1   
     5    2    3 1   
     6    2   17 1   
     7    2   18 1   
     8    3    4 1   
     9    3    8 1   
    10    3   19 1   
    11    4    5 1   
    12    4    9 1   
    13    4   20 1   
    14    5    6 1   
    15    5   10 1   
    16    5   21 1   
    17    6   11 1   
    18    6   22 1   
    19    6   23 1   
    20    7   24 1   
    21    8   25 1   
    22   11   12 1   
    23   12   13 1   
    24   12   14 1   
    25   12   15 1   
    26   13   26 1   
@<TRIPOS>SUBSTRUCTURE
     1 0NZ         1 TEMP              0 ****  ****    0 ROOT
