@<TRIPOS>MOLECULE
0NZ
   26    26     1     0     0
SMALL
bcc


@<TRIPOS>ATOM
      1 C1         -0.2390    0.0680   -2.0610 c3        1 0NZ      0.367900
      2 C2          1.1400    0.0680   -2.0610 c3        1 0NZ     -0.187400
      3 C3          1.7250    0.0680   -0.7790 c3        1 0NZ      0.163100
      4 C4          1.2000   -1.0130    0.1200 c3        1 0NZ      0.053100
      5 C5         -0.3520   -1.0170    0.2750 c3        1 0NZ      0.116100
      6 C6         -0.7770    0.0870    0.9380 c3        1 0NZ      0.182400
      7 O1         -0.7030    1.3630   -1.5710 oh        1 0NZ     -0.672800
      8 O3          1.4600    1.3930   -0.1350 oh        1 0NZ     -0.679800
      9 O4          1.6040   -2.2710   -0.4050 oh        1 0NZ     -0.636800
     10 O5         -0.8410   -1.0010   -1.2170 os        1 0NZ     -0.472600
     11 O6         -1.2020   -0.2790    2.2450 os        1 0NZ     -0.585200
     12 P          -2.3530    0.5800    2.9400 p5        1 0NZ      1.330900
     13 O1P        -1.9790    2.0430    2.9080 o         1 0NZ     -0.925167
     14 O2P        -2.5190    0.1340    4.3760 o         1 0NZ     -0.925167
     15 O3P        -3.6530    0.3760    2.1970 o         1 0NZ     -0.925167
     16 H1         -0.5510   -0.0480   -2.9790 h2        1 0NZ      0.027700
     17 H2          1.4480    0.8600   -2.5410 hc        1 0NZ      0.096200
     18 H3          1.4480   -0.7240   -2.5410 hc        1 0NZ      0.096200
     19 H4          2.6900   -0.0460   -0.8750 h1        1 0NZ      0.019700
     20 H5          1.6000   -0.9020    1.0040 h1        1 0NZ      0.148700
     21 H6         -0.6510   -1.8290    0.7270 h1        1 0NZ      0.039700
     22 H7         -0.0460    0.7300    1.0020 h1        1 0NZ      0.015700
     23 H8         -1.5230    0.4900    0.4540 h1        1 0NZ      0.015700
     24 H9         -1.2250    1.7410   -2.1810 ho        1 0NZ      0.466000
     25 H10         2.2240    1.8370   -0.0460 ho        1 0NZ      0.486000
     26 H11         2.0750   -2.7090    0.2070 ho        1 0NZ      0.387000
@<TRIPOS>BOND
     1    1    2 1   
     2    1    7 1   
     3    1   10 1   
     4    1   16 1   
     5    2    3 1   
     6    2   17 1   
     7    2   18 1   
     8    3    4 1   
     9    3    8 1   
    10    3   19 1   
    11    4    5 1   
    12    4    9 1   
    13    4   20 1   
    14    5    6 1   
    15    5   10 1   
    16    5   21 1   
    17    6   11 1   
    18    6   22 1   
    19    6   23 1   
    20    7   24 1   
    21    8   25 1   
    22    9   26 1   
    23   11   12 1   
    24   12   13 1   
    25   12   14 1   
    26   12   15 1   
@<TRIPOS>SUBSTRUCTURE
     1 0NZ         1 TEMP              0 ****  ****    0 ROOT
