@<TRIPOS>MOLECULE
0O1
   66    70     1     0     0
SMALL
bcc


@<TRIPOS>ATOM
      1 C1         -0.0150    0.2820    0.0560 c3        1 0O1      0.110800
      2 N1          1.4720    0.1020    0.0100 n4        1 0O1     -0.764000
      3 C2          2.0560   -0.0830    1.3700 c3        1 0O1      0.096800
      4 C3          3.5770   -0.2680    1.3510 c3        1 0O1     -0.042100
      5 C4          4.0850   -0.2390    2.7510 ca        1 0O1     -0.043300
      6 C5          4.4390   -1.4100    3.4770 ca        1 0O1      0.118400
      7 N2          4.4080   -2.6590    2.8420 nc        1 0O1     -0.582100
      8 C6          4.7980   -3.7160    3.5340 cd        1 0O1      0.519800
      9 N3          5.1950   -3.7430    4.8710 n         1 0O1     -0.505400
     10 C7          5.2240   -2.5170    5.5950 c         1 0O1      0.719100
     11 C8          4.8510   -1.3000    4.8430 ca        1 0O1     -0.136600
     12 C9          4.9340   -0.0860    5.5170 ca        1 0O1     -0.030000
     13 C10         4.6340    1.0820    4.8080 ca        1 0O1      0.175400
     14 C11         4.2280    0.9810    3.4070 ca        1 0O1     -0.107200
     15 N4          3.9520    2.2990    2.9690 na        1 0O1     -0.294300
     16 C12         4.3050    3.1450    4.1060 cc        1 0O1      0.687700
     17 N5          4.6640    2.4090    5.2230 nd        1 0O1     -0.607100
     18 N6          4.2360    4.5050    4.0570 nh        1 0O1     -0.798200
     19 C13         3.8630    5.2260    2.8650 c3        1 0O1      0.209800
     20 O1          5.5590   -2.5750    6.7780 o         1 0O1     -0.512500
     21 C14        -0.6040    0.5190   -1.3300 c3        1 0O1     -0.103700
     22 N7          4.8160   -5.0300    2.8030 n4        1 0O1     -0.800600
     23 C15         3.8570    6.7460    3.0700 c3        1 0O1     -0.043100
     24 C16         3.4940    7.4160    1.7920 ca        1 0O1     -0.113300
     25 C17         1.8710    8.5590    0.4060 ca        1 0O1     -0.123500
     26 C18         2.1970    7.9020    1.5910 ca        1 0O1     -0.125000
     27 C19         2.8360    8.7340   -0.5870 ca        1 0O1     -0.113000
     28 C20         4.4600    7.5950    0.7940 ca        1 0O1     -0.125000
     29 C21         4.1310    8.2510   -0.3910 ca        1 0O1     -0.123500
     30 C22        -2.1250    0.6770   -1.2270 c3        1 0O1     -0.082400
     31 C23        -0.0800    1.7950   -1.9880 c3        1 0O1     -0.082400
     32 C24        -2.5240    1.7420   -2.2410 c3        1 0O1     -0.080400
     33 C25        -1.2490    2.3940   -2.7600 c3        1 0O1     -0.080400
     34 H1         -0.4640   -0.6460    0.5130 hx        1 0O1      0.108200
     35 H2         -0.2340    1.1610    0.7290 hx        1 0O1      0.108200
     36 H3          1.6960   -0.7090   -0.5760 hn        1 0O1      0.449300
     37 H5          1.7860    0.8230    1.9890 hx        1 0O1      0.115200
     38 H6          1.5680   -0.9870    1.8360 hx        1 0O1      0.115200
     39 H7          4.0630    0.5590    0.7630 hc        1 0O1      0.074200
     40 H8          3.8400   -1.2290    0.8340 hc        1 0O1      0.074200
     41 H9          5.4750   -4.5780    5.3400 hn        1 0O1      0.359500
     42 H10         5.2390   -0.0460    6.5790 ha        1 0O1      0.209000
     43 H11         4.2120    2.5830    2.0530 hn        1 0O1      0.284700
     44 H13         4.3890    5.0130    4.9050 hn        1 0O1      0.489800
     45 H14         4.5930    4.9770    2.0400 h1        1 0O1      0.047200
     46 H15         2.8340    4.8990    2.5360 h1        1 0O1      0.047200
     47 H16        -0.3780   -0.3620   -1.9920 hc        1 0O1      0.071700
     48 H17         4.5040   -4.8980    1.8310 hn        1 0O1      0.481800
     49 H18         5.7750   -5.4010    2.7990 hn        1 0O1      0.481800
     50 H19         4.8720    7.0930    3.4030 hc        1 0O1      0.072200
     51 H20         3.1230    7.0210    3.8740 hc        1 0O1      0.072200
     52 H21         0.8540    8.9540    0.2600 ha        1 0O1      0.145000
     53 H22         1.4370    7.7850    2.3790 ha        1 0O1      0.132500
     54 H23         2.5810    9.2640   -1.5170 ha        1 0O1      0.148000
     55 H24         5.4870    7.2360    0.9550 ha        1 0O1      0.132500
     56 H25         4.8980    8.4030   -1.1650 ha        1 0O1      0.145000
     57 H26        -2.6330   -0.2960   -1.4430 hc        1 0O1      0.050200
     58 H27        -2.4240    0.9920   -0.1950 hc        1 0O1      0.050200
     59 H28         0.7760    1.5730   -2.6720 hc        1 0O1      0.050200
     60 H29         0.2760    2.5230   -1.2140 hc        1 0O1      0.050200
     61 H30        -3.0980    1.2820   -3.0850 hc        1 0O1      0.070200
     62 H31        -3.1930    2.5010   -1.7630 hc        1 0O1      0.070200
     63 H32        -1.1300    2.1980   -3.8560 hc        1 0O1      0.070200
     64 H33        -1.2820    3.5040   -2.6230 hc        1 0O1      0.070200
     65 H12         1.8870    0.9300   -0.4370 hn        1 0O1      0.449300
     66 H73         4.1890   -5.6950    3.2720 hn        1 0O1      0.481800
@<TRIPOS>BOND
     1    1    2 1   
     2    1   21 1   
     3    1   34 1   
     4    1   35 1   
     5    2    3 1   
     6    2   36 1   
     7    2   65 1   
     8    3    4 1   
     9    3   37 1   
    10    3   38 1   
    11    4    5 1   
    12    4   39 1   
    13    4   40 1   
    14    5    6 ar  
    15    5   14 ar  
    16    6    7 1   
    17    6   11 ar  
    18    7    8 2   
    19    8    9 1   
    20    8   22 1   
    21    9   10 1   
    22    9   41 1   
    23   10   11 1   
    24   10   20 2   
    25   11   12 ar  
    26   12   13 ar  
    27   12   42 1   
    28   13   14 ar  
    29   13   17 1   
    30   14   15 1   
    31   15   16 1   
    32   15   43 1   
    33   16   17 2   
    34   16   18 1   
    35   18   19 1   
    36   18   44 1   
    37   19   23 1   
    38   19   45 1   
    39   19   46 1   
    40   21   30 1   
    41   21   31 1   
    42   21   47 1   
    43   22   48 1   
    44   22   49 1   
    45   22   66 1   
    46   23   24 1   
    47   23   50 1   
    48   23   51 1   
    49   24   26 ar  
    50   24   28 ar  
    51   25   26 ar  
    52   25   27 ar  
    53   25   52 1   
    54   26   53 1   
    55   27   29 ar  
    56   27   54 1   
    57   28   29 ar  
    58   28   55 1   
    59   29   56 1   
    60   30   32 1   
    61   30   57 1   
    62   30   58 1   
    63   31   33 1   
    64   31   59 1   
    65   31   60 1   
    66   32   33 1   
    67   32   61 1   
    68   32   62 1   
    69   33   63 1   
    70   33   64 1   
@<TRIPOS>SUBSTRUCTURE
     1 0O1         1 TEMP              0 ****  ****    0 ROOT
