@<TRIPOS>MOLECULE
0O1
   64    57     1     0     0
SMALL
bcc


@<TRIPOS>ATOM
      1 C1          0.6410   -1.3370   -4.3650 c3        1 0O1     -0.066000
      2 N1         -0.5700   -1.7070   -3.6980 n3        1 0O1     -0.305000
      3 C2         -0.2570   -2.4360   -2.4990 c3        1 0O1     -0.072000
      4 C3         -1.4720   -2.3350   -1.4770 c3        1 0O1     -0.113000
      5 C4         -0.9450   -2.3740   -0.0360 c2        1 0O1     -0.079000
      6 C5         -0.5880   -3.6270    0.5370 c2        1 0O1      0.082000
      7 N2         -0.6040   -4.8430   -0.2890 n2        1 0O1     -0.254000
      8 C6         -0.1970   -6.1330    0.2900 c1        1 0O1      0.216000
      9 N3          0.2150   -6.1990    1.6690 n2        1 0O1     -0.347000
     10 C7          0.2280   -5.0140    2.4650 c1        1 0O1      0.357000
     11 C8         -0.1080   -3.6800    1.8360 c1        1 0O1     -0.195000
     12 C9          0.0240   -2.5240    2.5720 c1        1 0O1     -0.006000
     13 C10        -0.3300   -1.2810    2.0020 c1        1 0O1     -0.079000
     14 C11        -0.8120   -1.2190    0.7030 c1        1 0O1      0.010000
     15 N4         -1.0560    0.0490    0.4220 n1        1 0O1     -0.208500
     16 C12        -0.7350    0.8010    1.5320 c1        1 0O1      0.111000
     17 N5         -0.2920   -0.0350    2.4900 n1        1 0O1     -0.208500
     18 N6         -0.9040    2.2550    1.7640 n2        1 0O1     -0.251000
     19 C13         0.0720    2.9770    2.5620 c3        1 0O1     -0.056000
     20 O1          0.6050   -5.0560    3.5530 o         1 0O1     -0.348000
     21 C14         0.4620    0.0310   -5.0200 c3        1 0O1     -0.144000
     22 N7         -0.3850   -7.3390   -0.4580 n3        1 0O1     -0.322000
     23 C15        -0.4860    4.3800    2.9180 c3        1 0O1     -0.130000
     24 C16        -0.4130    4.5830    4.4420 c1        1 0O1     -0.078000
     25 C17         0.8060    5.2660    6.4240 c1        1 0O1     -0.125500
     26 C18         0.7190    5.1130    5.0100 c1        1 0O1     -0.125500
     27 C19        -0.2460    4.8840    7.2280 c1        1 0O1     -0.125500
     28 C20        -1.4660    4.1990    5.2390 c1        1 0O1     -0.124000
     29 C21        -1.3780    4.3540    6.6690 c1        1 0O1     -0.125500
     30 C22         0.7620    0.9750   -4.1620 c3        1 0O1     -0.153500
     31 C23         1.5230    0.2110   -6.3030 c3        1 0O1     -0.153500
     32 C24         1.3990    2.1470   -5.0400 c3        1 0O1     -0.158000
     33 C25         1.6720    1.5120   -6.4720 c3        1 0O1     -0.158000
     34 H1          1.3580   -1.2950   -3.7260 h1        1 0O1      0.092000
     35 H2          0.8540   -2.0110   -5.0570 h1        1 0O1      0.092000
     36 H3         -1.0260   -0.9780   -3.4890 hn        1 0O1      0.150000
     37 H5          0.5350   -2.0600   -2.0940 h1        1 0O1      0.071000
     38 H6         -0.0960   -3.3900   -2.7270 h1        1 0O1      0.071000
     39 H7         -1.9350   -1.5240   -1.6210 hc        1 0O1      0.099500
     40 H8         -2.0420   -3.0410   -1.6110 hc        1 0O1      0.099500
     41 H9          0.4780   -7.0320    2.0470 hn        1 0O1      0.249000
     42 H10         0.4780   -2.5570    3.5340 ha        1 0O1      0.174000
     43 H11        -1.3790    0.3700   -0.3620 DU        1 0O1      0.248000
     44 H13        -1.5570    2.7170    1.3160 hn        1 0O1      0.190000
     45 H14         0.8980    3.0720    2.0540 h1        1 0O1      0.104500
     46 H15         0.2550    2.4770    3.3910 h1        1 0O1      0.104500
     47 H16        -0.4620    0.1380   -5.3270 hc        1 0O1      0.084000
     48 H17        -0.0020   -8.0830   -0.1920 hn        1 0O1      0.207000
     49 H18        -0.9040   -7.3270   -1.2720 hn        1 0O1      0.207000
     50 H19        -1.4340    4.4470    2.6210 hc        1 0O1      0.092500
     51 H20         0.0880    5.1180    2.4330 hc        1 0O1      0.092500
     52 H21         1.5760    5.6270    6.8080 ha        1 0O1      0.133000
     53 H22         1.4110    5.3640    4.4890 ha        1 0O1      0.133000
     54 H23        -0.1810    4.9920    8.2140 ha        1 0O1      0.133000
     55 H24        -2.2860    3.8130    4.8300 ha        1 0O1      0.131000
     56 H25        -2.0970    4.0920    7.2160 ha        1 0O1      0.133000
     57 H26         1.4530    0.6270   -3.4690 hc        1 0O1      0.081000
     58 H27        -0.0430    1.2870   -3.7120 hc        1 0O1      0.081000
     59 H28         1.1520   -0.1910   -7.1100 hc        1 0O1      0.081000
     60 H29         2.3650   -0.1940   -6.0920 hc        1 0O1      0.081000
     61 H30         2.3070    2.4790   -4.6120 hc        1 0O1      0.080500
     62 H31         0.7540    2.9060   -5.1160 hc        1 0O1      0.080500
     63 H32         2.5690    1.7140   -6.7600 hc        1 0O1      0.080500
     64 H33         1.0270    1.8440   -7.1140 hc        1 0O1      0.080500
@<TRIPOS>BOND
     1    1    2 1   
     2    1   21 1   
     3    1   34 1   
     4    1   35 1   
     5    2    3 1   
     6    2   36 1   
     7    3    4 1   
     8    3   37 1   
     9    3   38 1   
    10    4    5 1   
    11    4   39 1   
    12    4   40 1   
    13    5    6 1   
    14    5   14 1   
    15    6    7 1   
    16    6   11 1   
    17    7    8 1   
    18    8   22 1   
    19    9   10 1   
    20    9   41 1   
    21   10   20 1   
    22   12   13 1   
    23   12   42 1   
    24   15   16 1   
    25   16   17 1   
    26   18   19 1   
    27   18   44 1   
    28   19   23 1   
    29   19   45 1   
    30   19   46 1   
    31   21   30 1   
    32   21   31 1   
    33   21   47 1   
    34   22   48 1   
    35   22   49 1   
    36   23   24 1   
    37   23   50 1   
    38   23   51 1   
    39   24   28 1   
    40   25   26 1   
    41   25   52 1   
    42   26   53 1   
    43   27   29 1   
    44   27   54 1   
    45   28   55 1   
    46   29   56 1   
    47   30   32 1   
    48   30   57 1   
    49   30   58 1   
    50   31   33 1   
    51   31   59 1   
    52   31   60 1   
    53   32   33 1   
    54   32   61 1   
    55   32   62 1   
    56   33   63 1   
    57   33   64 1   
@<TRIPOS>SUBSTRUCTURE
     1 0O1         1 TEMP              0 ****  ****    0 ROOT
