@<TRIPOS>MOLECULE
0O1
   67    71     1     0     0
SMALL
bcc


@<TRIPOS>ATOM
      1 C1         -0.8470   -1.0870    0.1510 c3        1 0O1      0.113800
      2 N1          0.5220   -0.5620   -0.1790 n4        1 0O1     -0.767000
      3 C2          1.3510   -0.3450    1.0410 c3        1 0O1      0.101800
      4 C3          2.7490    0.2030    0.7330 c3        1 0O1     -0.045100
      5 C4          3.5160    0.4120    1.9930 ca        1 0O1     -0.080300
      6 C5          4.2610   -0.6220    2.6150 ca        1 0O1      0.224400
      7 N2          4.3300   -1.8900    2.0050 nc        1 0O1     -0.632100
      8 C6          5.0920   -2.8150    2.5750 cd        1 0O1      0.600800
      9 N3          5.7910   -2.7020    3.7670 n         1 0O1     -0.493400
     10 C7          5.7370   -1.4640    4.4780 c         1 0O1      0.718100
     11 C8          4.9610   -0.3790    3.8410 ca        1 0O1     -0.188600
     12 C9          4.9690    0.8600    4.4770 ca        1 0O1      0.070000
     13 C10         4.2800    1.9050    3.8540 ca        1 0O1      0.060400
     14 C11         3.5660    1.6780    2.6070 ca        1 0O1     -0.005200
     15 N4          2.9930    2.9100    2.2590 na        1 0O1     -0.267300
     16 C12         3.4260    3.8310    3.2680 cc        1 0O1      0.455700
     17 N5          4.1640    3.2510    4.2430 nd        1 0O1     -0.435100
     18 N6          3.0660    5.2530    3.2720 n4        1 0O1     -0.696000
     19 C13         4.2510    6.1330    2.9390 c3        1 0O1      0.111800
     20 O1          6.3400   -1.3970    5.5470 o         1 0O1     -0.470500
     21 C14        -1.7000   -1.2690   -1.1000 c3        1 0O1     -0.105700
     22 N7          5.2070   -4.1320    1.8510 n4        1 0O1     -0.812600
     23 C15         3.8700    7.6140    2.9630 c3        1 0O1     -0.044100
     24 C16         5.0900    8.4060    2.6480 ca        1 0O1     -0.151300
     25 C17         6.4280    9.6530    1.0650 ca        1 0O1     -0.112500
     26 C18         5.3100    8.8700    1.3450 ca        1 0O1     -0.114000
     27 C19         7.3300    9.9760    2.0810 ca        1 0O1     -0.082000
     28 C20         5.9950    8.7320    3.6660 ca        1 0O1     -0.114000
     29 C21         7.1120    9.5150    3.3800 ca        1 0O1     -0.112500
     30 C22        -3.0800   -1.8130   -0.7090 c3        1 0O1     -0.081400
     31 C23        -1.9450    0.0400   -1.8490 c3        1 0O1     -0.081400
     32 C24        -4.0900   -1.1380   -1.6280 c3        1 0O1     -0.080900
     33 C25        -3.3700   -0.0320   -2.3860 c3        1 0O1     -0.080900
     34 H1         -0.7230   -2.0730    0.6820 hx        1 0O1      0.107700
     35 H2         -1.3370   -0.3510    0.8520 hx        1 0O1      0.107700
     36 H3          0.9920   -1.2270   -0.8050 hn        1 0O1      0.453300
     37 H5          1.4390   -1.3330    1.5780 hx        1 0O1      0.110200
     38 H6          0.7940    0.3700    1.7120 hx        1 0O1      0.110200
     39 H7          3.3020   -0.5070    0.0580 hc        1 0O1      0.079700
     40 H8          2.6630    1.1710    0.1690 hc        1 0O1      0.079700
     41 H9          6.3440   -3.4420    4.1580 hn        1 0O1      0.379500
     42 H10         5.5110    1.0100    5.4340 ha        1 0O1      0.226000
     43 H11         2.6760    3.1610    1.3550 hn        1 0O1      0.325700
     44 H13         2.7320    5.4980    4.2220 hn        1 0O1      0.479300
     45 H14         5.0580    5.9290    3.7020 hx        1 0O1      0.121200
     46 H15         4.6230    5.8380    1.9180 hx        1 0O1      0.121200
     47 H16        -1.2060   -2.0080   -1.7910 hc        1 0O1      0.075700
     48 H17         6.1960   -4.3060    1.6140 hn        1 0O1      0.495800
     49 H18         4.6560   -4.1120    0.9800 hn        1 0O1      0.495800
     50 H19         3.4830    7.9040    3.9780 hc        1 0O1      0.075700
     51 H20         3.0650    7.8270    2.2090 hc        1 0O1      0.075700
     52 H21         6.5930   10.0290    0.0430 ha        1 0O1      0.161000
     53 H22         4.5920    8.6400    0.5450 ha        1 0O1      0.130000
     54 H23         8.2090   10.6040    1.8590 ha        1 0O1      0.166000
     55 H24         5.8160    8.3910    4.6970 ha        1 0O1      0.130000
     56 H25         7.8170    9.7800    4.1850 ha        1 0O1      0.161000
     57 H26        -3.1070   -2.9250   -0.8270 hc        1 0O1      0.049450
     58 H27        -3.3120   -1.5810    0.3610 hc        1 0O1      0.049450
     59 H28        -1.2130    0.1710   -2.6840 hc        1 0O1      0.049450
     60 H29        -1.8430    0.9160   -1.1590 hc        1 0O1      0.049450
     61 H30        -4.9410   -0.7230   -1.0310 hc        1 0O1      0.076450
     62 H31        -4.5240   -1.8830   -2.3440 hc        1 0O1      0.076450
     63 H32        -3.3580   -0.2540   -3.4840 hc        1 0O1      0.076450
     64 H33        -3.8890    0.9510   -2.2530 hc        1 0O1      0.076450
     65 H12         0.4120    0.3210   -0.6950 hn        1 0O1      0.453300
     66 H62         2.3030    5.4350    2.6080 hn        1 0O1      0.479300
     67 H73         4.8580   -4.8930    2.4520 hn        1 0O1      0.495800
@<TRIPOS>BOND
     1    1    2 1   
     2    1   21 1   
     3    1   34 1   
     4    1   35 1   
     5    2    3 1   
     6    2   36 1   
     7    2   65 1   
     8    3    4 1   
     9    3   37 1   
    10    3   38 1   
    11    4    5 1   
    12    4   39 1   
    13    4   40 1   
    14    5    6 ar  
    15    5   14 ar  
    16    6    7 1   
    17    6   11 ar  
    18    7    8 2   
    19    8    9 1   
    20    8   22 1   
    21    9   10 1   
    22    9   41 1   
    23   10   11 1   
    24   10   20 2   
    25   11   12 ar  
    26   12   13 ar  
    27   12   42 1   
    28   13   14 ar  
    29   13   17 1   
    30   14   15 1   
    31   15   16 1   
    32   15   43 1   
    33   16   17 2   
    34   16   18 1   
    35   18   19 1   
    36   18   44 1   
    37   18   66 1   
    38   19   23 1   
    39   19   45 1   
    40   19   46 1   
    41   21   30 1   
    42   21   31 1   
    43   21   47 1   
    44   22   48 1   
    45   22   49 1   
    46   22   67 1   
    47   23   24 1   
    48   23   50 1   
    49   23   51 1   
    50   24   26 ar  
    51   24   28 ar  
    52   25   26 ar  
    53   25   27 ar  
    54   25   52 1   
    55   26   53 1   
    56   27   29 ar  
    57   27   54 1   
    58   28   29 ar  
    59   28   55 1   
    60   29   56 1   
    61   30   32 1   
    62   30   57 1   
    63   30   58 1   
    64   31   33 1   
    65   31   59 1   
    66   31   60 1   
    67   32   33 1   
    68   32   61 1   
    69   32   62 1   
    70   33   63 1   
    71   33   64 1   
@<TRIPOS>SUBSTRUCTURE
     1 0O1         1 TEMP              0 ****  ****    0 ROOT
