@<TRIPOS>MOLECULE
0O1
   66    70     1     0     0
SMALL
bcc


@<TRIPOS>ATOM
      1 C1         -0.0070    0.2800    0.0510 c3        1 0O1      0.110800
      2 N1          1.4810    0.0990    0.0090 ny        1 0O1     -0.764000
      3 C2          2.0610   -0.0860    1.3710 c3        1 0O1      0.096800
      4 C3          3.5820   -0.2700    1.3550 c3        1 0O1     -0.043100
      5 C4          4.0860   -0.2380    2.7570 ca        1 0O1     -0.043300
      6 C5          4.4390   -1.4070    3.4860 ca        1 0O1      0.118400
      7 N2          4.4110   -2.6570    2.8520 nc        1 0O1     -0.582100
      8 C6          4.8000   -3.7130    3.5470 cd        1 0O1      0.519800
      9 N3          5.1940   -3.7380    4.8850 ns        1 0O1     -0.505400
     10 C7          5.2200   -2.5100    5.6070 c         1 0O1      0.719100
     11 C8          4.8480   -1.2950    4.8530 ca        1 0O1     -0.136600
     12 C9          4.9280   -0.0800    5.5250 ca        1 0O1     -0.030000
     13 C10         4.6290    1.0870    4.8130 ca        1 0O1      0.175400
     14 C11         4.2270    0.9830    3.4120 ca        1 0O1     -0.107200
     15 N4          3.9500    2.3000    2.9710 na        1 0O1     -0.294300
     16 C12         4.3000    3.1480    4.1080 cc        1 0O1      0.687700
     17 N5          4.6570    2.4140    5.2260 nd        1 0O1     -0.607100
     18 N6          4.2300    4.5080    4.0560 nu        1 0O1     -0.798200
     19 C13         3.8560    5.2270    2.8630 c3        1 0O1      0.209800
     20 O1          5.5530   -2.5660    6.7920 o         1 0O1     -0.512500
     21 C14        -0.5920    0.5170   -1.3370 c3        1 0O1     -0.103700
     22 N7          4.8210   -5.0280    2.8180 nz        1 0O1     -0.800600
     23 C15         3.8460    6.7470    3.0660 c3        1 0O1     -0.043100
     24 C16         3.4800    7.4140    1.7870 ca        1 0O1     -0.113300
     25 C17         1.8520    8.5490    0.4000 ca        1 0O1     -0.123500
     26 C18         2.1810    7.8950    1.5870 ca        1 0O1     -0.125000
     27 C19         2.8160    8.7270   -0.5920 ca        1 0O1     -0.113000
     28 C20         4.4450    7.5970    0.7890 ca        1 0O1     -0.125000
     29 C21         4.1130    8.2510   -0.3960 ca        1 0O1     -0.123500
     30 C22        -2.1130    0.6760   -1.2380 c3        1 0O1     -0.082400
     31 C23        -0.0650    1.7920   -1.9940 c3        1 0O1     -0.082400
     32 C24        -2.5080    1.7420   -2.2520 c3        1 0O1     -0.080400
     33 C25        -1.2320    2.3930   -2.7680 c3        1 0O1     -0.080400
     34 H1         -0.4570   -0.6480    0.5070 hx        1 0O1      0.108200
     35 H2         -0.2270    1.1590    0.7230 hx        1 0O1      0.108200
     36 H3          1.8970    0.9270   -0.4380 hn        1 0O1      0.449300
     37 H5          1.5720   -0.9900    1.8360 hx        1 0O1      0.115200
     38 H6          1.7880    0.8200    1.9880 hx        1 0O1      0.115200
     39 H7          3.8470   -1.2310    0.8410 hc        1 0O1      0.074200
     40 H8          4.0690    0.5570    0.7680 hc        1 0O1      0.074200
     41 H9          5.4730   -4.5720    5.3560 hn        1 0O1      0.359500
     42 H10         5.2310   -0.0380    6.5880 ha        1 0O1      0.209000
     43 H11         4.2120    2.5840    2.0550 hn        1 0O1      0.284700
     44 H13         4.3800    5.0180    4.9040 hn        1 0O1      0.489800
     45 H14         2.8290    4.8970    2.5330 h1        1 0O1      0.047200
     46 H15         4.5870    4.9780    2.0390 h1        1 0O1      0.047200
     47 H16        -0.3650   -0.3640   -1.9980 hc        1 0O1      0.071700
     48 H17         4.1930   -5.6930    3.2870 hn        1 0O1      0.481800
     49 H18         5.7810   -5.3990    2.8170 hn        1 0O1      0.481800
     50 H19         4.8600    7.0970    3.3980 hc        1 0O1      0.072200
     51 H20         3.1120    7.0210    3.8700 hc        1 0O1      0.072200
     52 H21         0.8330    8.9390    0.2540 ha        1 0O1      0.145000
     53 H22         1.4220    7.7750    2.3740 ha        1 0O1      0.132500
     54 H23         2.5590    9.2560   -1.5230 ha        1 0O1      0.148000
     55 H24         5.4740    7.2420    0.9510 ha        1 0O1      0.132500
     56 H25         4.8800    8.4050   -1.1710 ha        1 0O1      0.145000
     57 H26        -2.6210   -0.2960   -1.4550 hc        1 0O1      0.050200
     58 H27        -2.4150    0.9910   -0.2060 hc        1 0O1      0.050200
     59 H28         0.7930    1.5700   -2.6760 hc        1 0O1      0.050200
     60 H29         0.2900    2.5200   -1.2190 hc        1 0O1      0.050200
     61 H30        -3.0810    1.2830   -3.0970 hc        1 0O1      0.070200
     62 H31        -3.1770    2.5020   -1.7750 hc        1 0O1      0.070200
     63 H32        -1.1100    2.1960   -3.8640 hc        1 0O1      0.070200
     64 H33        -1.2630    3.5020   -2.6320 hc        1 0O1      0.070200
     65 H12         1.7050   -0.7130   -0.5760 hn        1 0O1      0.449300
     66 H73         4.5120   -4.8970    1.8450 hn        1 0O1      0.481800
@<TRIPOS>BOND
     1    1    2 1   
     2    1   21 1   
     3    1   34 1   
     4    1   35 1   
     5    2    3 1   
     6    2   36 1   
     7    2   65 1   
     8    3    4 1   
     9    3   37 1   
    10    3   38 1   
    11    4    5 1   
    12    4   39 1   
    13    4   40 1   
    14    5    6 ar  
    15    5   14 ar  
    16    6    7 1   
    17    6   11 ar  
    18    7    8 2   
    19    8    9 1   
    20    8   22 1   
    21    9   10 1   
    22    9   41 1   
    23   10   11 1   
    24   10   20 2   
    25   11   12 ar  
    26   12   13 ar  
    27   12   42 1   
    28   13   14 ar  
    29   13   17 1   
    30   14   15 1   
    31   15   16 1   
    32   15   43 1   
    33   16   17 2   
    34   16   18 1   
    35   18   19 1   
    36   18   44 1   
    37   19   23 1   
    38   19   45 1   
    39   19   46 1   
    40   21   30 1   
    41   21   31 1   
    42   21   47 1   
    43   22   48 1   
    44   22   49 1   
    45   22   66 1   
    46   23   24 1   
    47   23   50 1   
    48   23   51 1   
    49   24   26 ar  
    50   24   28 ar  
    51   25   26 ar  
    52   25   27 ar  
    53   25   52 1   
    54   26   53 1   
    55   27   29 ar  
    56   27   54 1   
    57   28   29 ar  
    58   28   55 1   
    59   29   56 1   
    60   30   32 1   
    61   30   57 1   
    62   30   58 1   
    63   31   33 1   
    64   31   59 1   
    65   31   60 1   
    66   32   33 1   
    67   32   61 1   
    68   32   62 1   
    69   33   63 1   
    70   33   64 1   
@<TRIPOS>SUBSTRUCTURE
     1 0O1         1 TEMP              0 ****  ****    0 ROOT
