@<TRIPOS>MOLECULE
0O1
   64    68     1     0     0
SMALL
bcc


@<TRIPOS>ATOM
      1 C1         -0.6510    4.0900    0.8260 c3        1 0O1      0.168800
      2 N1         -0.6040    3.0690   -0.2030 n3        1 0O1     -0.828200
      3 C2         -1.2810    1.8470    0.1870 c3        1 0O1      0.161800
      4 C3         -1.4070    0.8450   -0.9660 c3        1 0O1     -0.028100
      5 C4         -1.9040   -0.4620   -0.4610 ca        1 0O1     -0.089300
      6 C5         -3.2700   -0.8410   -0.5010 ca        1 0O1      0.218400
      7 N2         -4.2050    0.0530   -1.0270 nc        1 0O1     -0.685100
      8 C6         -5.4960   -0.2930   -1.0430 cd        1 0O1      0.661800
      9 N3         -5.9740   -1.5520   -0.6140 n         1 0O1     -0.508400
     10 C7         -5.0900   -2.4960   -0.0650 c         1 0O1      0.720100
     11 C8         -3.6660   -2.1260   -0.0110 ca        1 0O1     -0.215600
     12 C9         -2.7640   -3.0460    0.5280 ca        1 0O1     -0.004000
     13 C10        -1.4220   -2.6880    0.5880 ca        1 0O1      0.060400
     14 C11        -1.0100   -1.3850    0.0880 ca        1 0O1     -0.028200
     15 N4          0.3790   -1.3280    0.2480 na        1 0O1     -0.294300
     16 C12         0.7550   -2.5500    0.8970 cc        1 0O1      0.594700
     17 N5         -0.3020   -3.3950    1.0720 nd        1 0O1     -0.599100
     18 N6          2.0750   -2.7720    1.3500 nh        1 0O1     -0.766200
     19 C13         3.1380   -2.3230    0.4690 c3        1 0O1      0.172800
     20 O1         -5.5670   -3.5760    0.3280 o         1 0O1     -0.623500
     21 C14        -0.2030    5.4670    0.3370 c3        1 0O1     -0.068700
     22 N7         -6.4700    0.6570   -1.4530 nh        1 0O1     -0.883800
     23 C15         4.4890   -2.9660    0.8000 c3        1 0O1     -0.044100
     24 C16         5.5520   -2.3950   -0.0710 ca        1 0O1     -0.088300
     25 C17         7.0970   -0.6030   -0.5900 ca        1 0O1     -0.127000
     26 C18         6.0940   -1.1360    0.2170 ca        1 0O1     -0.124000
     27 C19         7.5670   -1.3210   -1.6900 ca        1 0O1     -0.126000
     28 C20         6.0280   -3.1120   -1.1740 ca        1 0O1     -0.124000
     29 C21         7.0320   -2.5760   -1.9800 ca        1 0O1     -0.127000
     30 C22        -0.2990    6.5000    1.4610 c3        1 0O1     -0.073900
     31 C23         1.2480    5.4870   -0.1390 c3        1 0O1     -0.073900
     32 C24         0.8720    7.4570    1.2840 c3        1 0O1     -0.079900
     33 C25         1.8340    6.8290    0.2820 c3        1 0O1     -0.079900
     34 H1         -1.6860    4.2020    1.2690 h1        1 0O1      0.031200
     35 H2          0.0300    3.7520    1.6590 h1        1 0O1      0.031200
     36 H3         -0.9790    3.4190   -1.0650 hn        1 0O1      0.355800
     37 H5         -0.6760    1.3820    1.0160 h1        1 0O1      0.034700
     38 H6         -2.3160    2.0390    0.5990 h1        1 0O1      0.034700
     39 H7         -2.0920    1.2600   -1.7510 hc        1 0O1      0.059200
     40 H8         -0.4070    0.7010   -1.4590 hc        1 0O1      0.059200
     41 H9         -6.9490   -1.7490   -0.5940 hn        1 0O1      0.335500
     42 H10        -3.1200   -4.0240    0.8910 ha        1 0O1      0.174000
     43 H11         0.9210   -0.5040    0.2120 hn        1 0O1      0.312700
     44 H13         2.1990   -3.7160    1.6690 hn        1 0O1      0.417800
     45 H14         2.9020   -2.5260   -0.6160 h1        1 0O1      0.049200
     46 H15         3.2310   -1.2060    0.5950 h1        1 0O1      0.049200
     47 H16        -0.8690    5.7910   -0.5090 hc        1 0O1      0.044700
     48 H17        -6.0780    1.4970   -1.8260 hn        1 0O1      0.410300
     49 H18        -7.1970    0.2790   -2.0220 hn        1 0O1      0.410300
     50 H19         4.7460   -2.7810    1.8770 hc        1 0O1      0.059200
     51 H20         4.4270   -4.0780    0.6540 hc        1 0O1      0.059200
     52 H21         7.5180    0.3870   -0.3580 ha        1 0O1      0.134000
     53 H22         5.7260   -0.5700    1.0850 ha        1 0O1      0.133000
     54 H23         8.3600   -0.9000   -2.3250 ha        1 0O1      0.133000
     55 H24         5.6100   -4.1030   -1.4060 ha        1 0O1      0.133000
     56 H25         7.4020   -3.1460   -2.8450 ha        1 0O1      0.134000
     57 H26        -1.2750    7.0430    1.4160 hc        1 0O1      0.044700
     58 H27        -0.2410    5.9980    2.4600 hc        1 0O1      0.044700
     59 H28         1.8210    4.6480    0.3290 hc        1 0O1      0.044700
     60 H29         1.3020    5.3510   -1.2460 hc        1 0O1      0.044700
     61 H30         0.5130    8.4480    0.9090 hc        1 0O1      0.039700
     62 H31         1.3810    7.6380    2.2630 hc        1 0O1      0.039700
     63 H32         2.8460    6.6900    0.7370 hc        1 0O1      0.039700
     64 H33         1.9590    7.4970   -0.6070 hc        1 0O1      0.039700
@<TRIPOS>BOND
     1    1    2 1   
     2    1   21 1   
     3    1   34 1   
     4    1   35 1   
     5    2    3 1   
     6    2   36 1   
     7    3    4 1   
     8    3   37 1   
     9    3   38 1   
    10    4    5 1   
    11    4   39 1   
    12    4   40 1   
    13    5    6 ar  
    14    5   14 ar  
    15    6    7 1   
    16    6   11 ar  
    17    7    8 2   
    18    8    9 1   
    19    8   22 1   
    20    9   10 1   
    21    9   41 1   
    22   10   11 1   
    23   10   20 2   
    24   11   12 ar  
    25   12   13 ar  
    26   12   42 1   
    27   13   14 ar  
    28   13   17 1   
    29   14   15 1   
    30   15   16 1   
    31   15   43 1   
    32   16   17 2   
    33   16   18 1   
    34   18   19 1   
    35   18   44 1   
    36   19   23 1   
    37   19   45 1   
    38   19   46 1   
    39   21   30 1   
    40   21   31 1   
    41   21   47 1   
    42   22   48 1   
    43   22   49 1   
    44   23   24 1   
    45   23   50 1   
    46   23   51 1   
    47   24   26 ar  
    48   24   28 ar  
    49   25   26 ar  
    50   25   27 ar  
    51   25   52 1   
    52   26   53 1   
    53   27   29 ar  
    54   27   54 1   
    55   28   29 ar  
    56   28   55 1   
    57   29   56 1   
    58   30   32 1   
    59   30   57 1   
    60   30   58 1   
    61   31   33 1   
    62   31   59 1   
    63   31   60 1   
    64   32   33 1   
    65   32   61 1   
    66   32   62 1   
    67   33   63 1   
    68   33   64 1   
@<TRIPOS>SUBSTRUCTURE
     1 0O1         1 TEMP              0 ****  ****    0 ROOT
