@<TRIPOS>MOLECULE
0O3
   24    23     1     0     0
SMALL
bcc


@<TRIPOS>ATOM
      1 O20         0.2100    0.8910   -0.3960 o         1 0O3     -0.958167
      2 P17         1.4610    0.1650    0.0140 p5        1 0O3      1.459900
      3 O19         1.6950    0.1220    1.4980 o         1 0O3     -0.958167
      4 O18         1.6920   -1.1410   -0.6970 o         1 0O3     -0.958167
      5 O16         2.7910    1.1910   -0.6120 os        1 0O3     -0.799800
      6 P13         3.9600    2.0220   -1.1970 p5        1 0O3      1.575800
      7 O15         3.8490    2.4290   -2.6300 o         1 0O3     -0.931500
      8 O14         5.3350    1.6640   -0.7390 o         1 0O3     -0.931500
      9 O29         3.7570    3.5660   -0.4410 os        1 0O3     -0.552200
     10 C28         4.6810    4.4940   -0.8300 c3        1 0O3      0.264400
     11 C27         4.0310    5.5690   -1.7360 c3        1 0O3     -0.126200
     12 C30         4.9060    6.7530   -1.9240 c2        1 0O3     -0.091400
     13 C1          5.6810    6.9300   -3.0000 c2        1 0O3     -0.293000
     14 C13         4.8640    7.7460   -0.8050 c3        1 0O3      0.148600
     15 O3          5.9760    8.6330   -0.7620 oh        1 0O3     -0.643800
     16 H4          5.5380    4.0190   -1.3840 h1        1 0O3     -0.020800
     17 H5          5.0910    5.0280    0.0830 h1        1 0O3     -0.020800
     18 H6          3.7970    5.0740   -2.7170 hc        1 0O3      0.070700
     19 H7          3.0620    5.8800   -1.2680 hc        1 0O3      0.070700
     20 H8          5.7160    6.1910   -3.8090 ha        1 0O3      0.097000
     21 H9          6.3270    7.8080   -3.1260 ha        1 0O3      0.097000
     22 H10         4.7940    7.2030    0.1790 h1        1 0O3      0.052700
     23 H11         3.9720    8.4200   -0.9180 h1        1 0O3      0.052700
     24 H12         6.7640    8.0890   -0.8740 ho        1 0O3      0.398000
@<TRIPOS>BOND
     1    1    2 1   
     2    2    3 1   
     3    2    4 1   
     4    2    5 1   
     5    5    6 1   
     6    6    7 1   
     7    6    8 1   
     8    6    9 1   
     9    9   10 1   
    10   10   11 1   
    11   10   16 1   
    12   10   17 1   
    13   11   12 1   
    14   11   18 1   
    15   11   19 1   
    16   12   13 2   
    17   12   14 1   
    18   13   20 1   
    19   13   21 1   
    20   14   15 1   
    21   14   22 1   
    22   14   23 1   
    23   15   24 1   
@<TRIPOS>SUBSTRUCTURE
     1 0O3         1 TEMP              0 ****  ****    0 ROOT
