@<TRIPOS>MOLECULE
0O3
   24    20     1     0     0
SMALL
bcc


@<TRIPOS>ATOM
      1 O20        -1.9310   -5.9790   -0.3430 o         1 0O3     -1.274333
      2 P17        -1.7830   -4.8520    0.6820 p3        1 0O3      2.648000
      3 O19        -3.1160   -4.5580    1.2940 o         1 0O3     -1.274333
      4 O18        -0.7890   -5.2870    1.7880 o         1 0O3     -1.274333
      5 O16        -1.2430   -3.5710   -0.0250 o         1 0O3     -0.942167
      6 P13        -0.8570   -2.2830    0.7270 p5        1 0O3      1.743500
      7 O15        -2.0130   -1.8210    1.5480 o         1 0O3     -0.942167
      8 O14         0.3580   -2.5710    1.6550 o         1 0O3     -0.942167
      9 O29        -0.4770   -1.1850   -0.3010 os        1 0O3     -0.725000
     10 C28        -0.0800    0.1300    0.1850 c3        1 0O3      0.101000
     11 C27         0.1580    1.0330   -0.9950 c3        1 0O3     -0.185000
     12 C30         0.6010    2.3800   -0.5240 c1        1 0O3     -0.032000
     13 C1         -0.3130    3.2690   -0.0370 c1        1 0O3     -0.348000
     14 C13         2.1140    2.7710   -0.5910 c2        1 0O3      0.022000
     15 O3          2.3040    3.8210   -1.5720 oh        1 0O3     -0.398000
     16 H4         -0.7840    0.4970    0.7390 h1        1 0O3      0.025000
     17 H5          0.7320    0.0530    0.7020 h1        1 0O3      0.025000
     18 H6         -0.6600    1.1230   -1.5000 hc        1 0O3      0.082500
     19 H7          0.8620    0.6390   -1.5740 hc        1 0O3      0.082500
     20 H8         -1.2380    3.0300    0.0040 DU        1 0O3      0.076000
     21 H9         -0.0230    4.1470    0.2680 ha        1 0O3      0.068000
     22 H10         2.3860    3.0660    0.2220 h4        1 0O3      0.082000
     23 H11         2.6280    2.0080   -0.8400 h4        1 0O3      0.082000
     24 H12         3.1630    4.1420   -1.5120 ho        1 0O3      0.300000
@<TRIPOS>BOND
     1    1    2 1   
     2    2    3 1   
     3    2    4 1   
     4    5    6 1   
     5    6    7 1   
     6    6    8 1   
     7    6    9 1   
     8    9   10 1   
     9   10   11 1   
    10   10   16 1   
    11   10   17 1   
    12   11   12 1   
    13   11   18 1   
    14   11   19 1   
    15   12   13 1   
    16   13   21 1   
    17   14   15 1   
    18   14   22 1   
    19   14   23 1   
    20   15   24 1   
@<TRIPOS>SUBSTRUCTURE
     1 0O3         1 TEMP              0 ****  ****    0 ROOT
