@<TRIPOS>MOLECULE
0O3
   24    23     1     0     0
SMALL
bcc


@<TRIPOS>ATOM
      1 O20        -3.2700    0.9400   -1.7300 o         1 0O3     -0.958167
      2 P17        -3.4130    0.5000   -0.3000 p5        1 0O3      1.459900
      3 O19        -3.6070    1.6250    0.6790 o         1 0O3     -0.958167
      4 O18        -4.3260   -0.6780   -0.0920 o         1 0O3     -0.958167
      5 O16        -1.8050   -0.1750    0.1160 os        1 0O3     -0.799800
      6 P13        -0.4480   -0.8230    0.4850 p5        1 0O3      1.575800
      7 O15         0.1110   -1.8170   -0.4800 o         1 0O3     -0.931500
      8 O14        -0.2210   -1.1340    1.9270 o         1 0O3     -0.931500
      9 O29         0.6790    0.4710    0.2510 os        1 0O3     -0.552200
     10 C28         1.9760    0.1220    0.5000 c3        1 0O3      0.264400
     11 C27         2.7840    0.0340   -0.8180 c3        1 0O3     -0.126200
     12 C30         4.2470   -0.0330   -0.5800 c2        1 0O3     -0.091400
     13 C1          4.9390   -1.1780   -0.5820 c2        1 0O3     -0.293000
     14 C13         4.9020    1.2890   -0.3280 c3        1 0O3      0.148600
     15 O3          6.1720    1.2060    0.3100 oh        1 0O3     -0.643800
     16 H4          2.4670    0.9170    1.1430 h1        1 0O3     -0.020800
     17 H5          2.0440   -0.8660    1.0360 h1        1 0O3     -0.020800
     18 H6          2.4170   -0.8730   -1.3700 hc        1 0O3      0.070700
     19 H7          2.5390    0.9360   -1.4380 hc        1 0O3      0.070700
     20 H8          6.0200   -1.2160   -0.4000 ha        1 0O3      0.097000
     21 H9          4.4490   -2.1440   -0.7540 ha        1 0O3      0.097000
     22 H10         5.1110    1.8100   -1.3020 h1        1 0O3      0.052700
     23 H11         4.2230    1.9330    0.2970 h1        1 0O3      0.052700
     24 H12         6.0690    0.5880    1.0430 ho        1 0O3      0.398000
@<TRIPOS>BOND
     1    1    2 1   
     2    2    3 1   
     3    2    4 1   
     4    2    5 1   
     5    5    6 1   
     6    6    7 1   
     7    6    8 1   
     8    6    9 1   
     9    9   10 1   
    10   10   11 1   
    11   10   16 1   
    12   10   17 1   
    13   11   12 1   
    14   11   18 1   
    15   11   19 1   
    16   12   13 2   
    17   12   14 1   
    18   13   20 1   
    19   13   21 1   
    20   14   15 1   
    21   14   22 1   
    22   14   23 1   
    23   15   24 1   
@<TRIPOS>SUBSTRUCTURE
     1 0O3         1 TEMP              0 ****  ****    0 ROOT
