@<TRIPOS>MOLECULE
0O3
   24    23     1     0     0
SMALL
bcc


@<TRIPOS>ATOM
      1 O20         0.2090    0.8810   -0.4390 o         1 0O3     -0.958167
      2 P17         1.4530    0.1690    0.0140 p5        1 0O3      1.459900
      3 O19         1.6490    0.1500    1.5050 o         1 0O3     -0.958167
      4 O18         1.7100   -1.1460   -0.6700 o         1 0O3     -0.958167
      5 O16         2.7930    1.1930   -0.5940 os        1 0O3     -0.799800
      6 P13         3.9720    2.0210   -1.1620 p5        1 0O3      1.575800
      7 O15         3.8950    2.4060   -2.6030 o         1 0O3     -0.931500
      8 O14         5.3360    1.6790   -0.6630 o         1 0O3     -0.931500
      9 O29         3.7410    3.5760   -0.4360 os        1 0O3     -0.552200
     10 C28         4.6700    4.5030   -0.8150 c3        1 0O3      0.264400
     11 C27         4.0400    5.5600   -1.7550 c3        1 0O3     -0.126200
     12 C30         4.9150    6.7440   -1.9410 c2        1 0O3     -0.091400
     13 C1          5.7160    6.9070   -2.9990 c2        1 0O3     -0.293000
     14 C13         4.8400    7.7560   -0.8400 c3        1 0O3      0.148600
     15 O3          5.9480    8.6490   -0.7840 oh        1 0O3     -0.643800
     16 H4          5.5450    4.0240   -1.3390 h1        1 0O3     -0.020800
     17 H5          5.0540    5.0530    0.1000 h1        1 0O3     -0.020800
     18 H6          3.0580    5.8750   -1.3160 hc        1 0O3      0.070700
     19 H7          3.8320    5.0480   -2.7330 hc        1 0O3      0.070700
     20 H8          5.7740    6.1540   -3.7950 ha        1 0O3      0.097000
     21 H9          6.3620    7.7840   -3.1240 ha        1 0O3      0.097000
     22 H10         4.7480    7.2290    0.1510 h1        1 0O3      0.052700
     23 H11         3.9490    8.4250   -0.9870 h1        1 0O3      0.052700
     24 H12         6.7400    8.1060   -0.8670 ho        1 0O3      0.398000
@<TRIPOS>BOND
     1    1    2 1   
     2    2    3 1   
     3    2    4 1   
     4    2    5 1   
     5    5    6 1   
     6    6    7 1   
     7    6    8 1   
     8    6    9 1   
     9    9   10 1   
    10   10   11 1   
    11   10   16 1   
    12   10   17 1   
    13   11   12 1   
    14   11   18 1   
    15   11   19 1   
    16   12   13 2   
    17   12   14 1   
    18   13   20 1   
    19   13   21 1   
    20   14   15 1   
    21   14   22 1   
    22   14   23 1   
    23   15   24 1   
@<TRIPOS>SUBSTRUCTURE
     1 0O3         1 TEMP              0 ****  ****    0 ROOT
