@<TRIPOS>MOLECULE
0O3
   24    23     1     0     0
SMALL
bcc


@<TRIPOS>ATOM
      1 O20         0.2350    0.8590   -0.4040 o         1 0O3     -0.958167
      2 P17         1.4870    0.1560    0.0430 p5        1 0O3      1.459900
      3 O19         1.6930    0.1420    1.5320 o         1 0O3     -0.958167
      4 O18         1.7460   -1.1590   -0.6400 o         1 0O3     -0.958167
      5 O16         2.8160    1.1860   -0.5770 os        1 0O3     -0.799800
      6 P13         3.9870    2.0200   -1.1550 p5        1 0O3      1.575800
      7 O15         3.8980    2.4010   -2.5970 o         1 0O3     -0.931500
      8 O14         5.3560    1.6870   -0.6650 o         1 0O3     -0.931500
      9 O29         3.7520    3.5750   -0.4310 os        1 0O3     -0.552200
     10 C28         4.6730    4.5070   -0.8180 c3        1 0O3      0.264400
     11 C27         4.0300    5.5580   -1.7570 c3        1 0O3     -0.126200
     12 C30         4.8970    6.7470   -1.9510 c2        1 0O3     -0.091400
     13 C1          5.6910    6.9120   -3.0150 c2        1 0O3     -0.293000
     14 C13         4.8230    7.7600   -0.8520 c3        1 0O3      0.148600
     15 O3          5.9260    8.6600   -0.8050 oh        1 0O3     -0.643800
     16 H4          5.5460    4.0320   -1.3470 h1        1 0O3     -0.020800
     17 H5          5.0590    5.0620    0.0920 h1        1 0O3     -0.020800
     18 H6          3.0490    5.8680   -1.3130 hc        1 0O3      0.070700
     19 H7          3.8190    5.0430   -2.7330 hc        1 0O3      0.070700
     20 H8          5.7480    6.1570   -3.8090 ha        1 0O3      0.097000
     21 H9          6.3300    7.7930   -3.1450 ha        1 0O3      0.097000
     22 H10         4.7400    7.2350    0.1410 h1        1 0O3      0.052700
     23 H11         3.9270    8.4240   -0.9950 h1        1 0O3      0.052700
     24 H12         6.7210    8.1210   -0.8910 ho        1 0O3      0.398000
@<TRIPOS>BOND
     1    1    2 1   
     2    2    3 1   
     3    2    4 1   
     4    2    5 1   
     5    5    6 1   
     6    6    7 1   
     7    6    8 1   
     8    6    9 1   
     9    9   10 1   
    10   10   11 1   
    11   10   16 1   
    12   10   17 1   
    13   11   12 1   
    14   11   18 1   
    15   11   19 1   
    16   12   13 2   
    17   12   14 1   
    18   13   20 1   
    19   13   21 1   
    20   14   15 1   
    21   14   22 1   
    22   14   23 1   
    23   15   24 1   
@<TRIPOS>SUBSTRUCTURE
     1 0O3         1 TEMP              0 ****  ****    0 ROOT
