@<TRIPOS>MOLECULE
0O4
   50    53     1     0     0
SMALL
bcc


@<TRIPOS>ATOM
      1 O1         -1.7880   -1.9400    0.4870 o         1 0O4     -0.602100
      2 C2         -1.4600   -0.7490    0.6620 c         1 0O4      0.668700
      3 N3         -2.3960    0.2140    0.9900 n         1 0O4     -0.566900
      4 C4         -3.8040   -0.0570    1.0260 c3        1 0O4      0.087000
      5 C5         -4.5530    0.4450   -0.2340 c3        1 0O4      0.142800
      6 N6         -5.9990    0.3940   -0.0760 n3        1 0O4     -0.724600
      7 C11        -6.6770    1.1390   -1.1320 c3        1 0O4      0.130300
      8 C10        -8.2030    1.0370   -1.0360 c3        1 0O4      0.126400
      9 O9         -8.6360   -0.3170   -0.9820 os        1 0O4     -0.414600
     10 C8         -8.0380   -1.0260    0.0970 c3        1 0O4      0.126400
     11 C7         -6.5070   -0.9690    0.0380 c3        1 0O4      0.130300
     12 C12        -0.0350   -0.3150    0.5840 ca        1 0O4     -0.133600
     13 C13         0.3390    0.8830   -0.0320 ca        1 0O4     -0.097500
     14 C17         0.9430   -1.1550    1.1280 ca        1 0O4     -0.097500
     15 C16         2.2870   -0.7960    1.0630 ca        1 0O4     -0.113000
     16 C15         2.6630    0.4030    0.4430 cp        1 0O4     -0.125500
     17 C14         1.6840    1.2430   -0.0990 ca        1 0O4     -0.113000
     18 C18         4.0880    0.7940    0.3810 cp        1 0O4      0.476800
     19 N19         4.4520    1.9340    0.9730 nb        1 0O4     -0.657000
     20 C20         5.7690    2.2910    0.9310 ca        1 0O4      0.384200
     21 C27         5.0220   -0.0590   -0.3150 ca        1 0O4     -0.145300
     22 C26         4.6400   -1.2530   -0.9810 ca        1 0O4     -0.103000
     23 C25         5.5770   -2.0210   -1.6290 ca        1 0O4     -0.131000
     24 C22         6.3860    0.3360   -0.3400 ca        1 0O4     -0.014000
     25 C21         6.7540    1.5450    0.3090 ca        1 0O4     -0.225300
     26 C23         7.3360   -0.4790   -1.0140 ca        1 0O4     -0.127000
     27 C24         6.9380   -1.6330   -1.6430 ca        1 0O4     -0.110000
     28 H1         -2.1090    1.1610    1.0530 hn        1 0O4      0.311500
     29 H2         -3.9530   -1.1700    1.1260 h1        1 0O4      0.070200
     30 H3         -4.2340    0.4470    1.9380 h1        1 0O4      0.070200
     31 H4         -4.2740    1.5200   -0.4220 h1        1 0O4      0.036700
     32 H5         -4.2050   -0.1590   -1.1230 h1        1 0O4      0.036700
     33 H7         -6.3860    2.2220   -1.0300 h1        1 0O4      0.042950
     34 H8         -6.3600    0.7890   -2.1570 h1        1 0O4      0.042950
     35 H9         -8.5820    1.5890   -0.1370 h1        1 0O4      0.053950
     36 H10        -8.6750    1.4440   -1.9680 h1        1 0O4      0.053950
     37 H11        -8.4130   -0.6130    1.0700 h1        1 0O4      0.053950
     38 H12        -8.3890   -2.0830   -0.0350 h1        1 0O4      0.053950
     39 H13        -6.1580   -1.6150   -0.8200 h1        1 0O4      0.042950
     40 H14        -6.1010   -1.4070    0.9920 h1        1 0O4      0.042950
     41 H15        -0.4180    1.5440   -0.4810 ha        1 0O4      0.145500
     42 H16         0.6400   -2.1040    1.5990 ha        1 0O4      0.145500
     43 H17         3.0550   -1.4520    1.5000 ha        1 0O4      0.147500
     44 H18         1.9760    2.1910   -0.5750 ha        1 0O4      0.147500
     45 H19         6.0000    3.2410    1.4460 h4        1 0O4      0.025100
     46 H20         3.5790   -1.5500   -0.9740 ha        1 0O4      0.147000
     47 H21         5.2800   -2.9460   -2.1460 ha        1 0O4      0.138000
     48 H22         7.8020    1.8700    0.3070 ha        1 0O4      0.145000
     49 H23         8.3900   -0.1630   -1.0200 ha        1 0O4      0.138000
     50 H24         7.6690   -2.2670   -2.1660 ha        1 0O4      0.137000
@<TRIPOS>BOND
     1    1    2 2   
     2    2    3 1   
     3    2   12 1   
     4    3    4 1   
     5    3   28 1   
     6    4    5 1   
     7    4   29 1   
     8    4   30 1   
     9    5    6 1   
    10    5   31 1   
    11    5   32 1   
    12    6    7 1   
    13    6   11 1   
    14    7    8 1   
    15    7   33 1   
    16    7   34 1   
    17    8    9 1   
    18    8   35 1   
    19    8   36 1   
    20    9   10 1   
    21   10   11 1   
    22   10   37 1   
    23   10   38 1   
    24   11   39 1   
    25   11   40 1   
    26   12   13 ar  
    27   12   14 ar  
    28   13   17 ar  
    29   13   41 1   
    30   14   15 ar  
    31   14   42 1   
    32   15   16 ar  
    33   15   43 1   
    34   16   17 ar  
    35   16   18 1   
    36   17   44 1   
    37   18   19 ar  
    38   18   21 ar  
    39   19   20 ar  
    40   20   25 ar  
    41   20   45 1   
    42   21   22 ar  
    43   21   24 ar  
    44   22   23 ar  
    45   22   46 1   
    46   23   27 ar  
    47   23   47 1   
    48   24   25 ar  
    49   24   26 ar  
    50   25   48 1   
    51   26   27 ar  
    52   26   49 1   
    53   27   50 1   
@<TRIPOS>SUBSTRUCTURE
     1 0O4         1 TEMP              0 ****  ****    0 ROOT
