@<TRIPOS>MOLECULE
0O4
   51    54     1     0     0
SMALL
bcc


@<TRIPOS>ATOM
      1 O1          0.0450    3.3180    0.0260 o         1 0O4     -0.437100
      2 C2          1.0690    2.6460    0.0610 c         1 0O4      0.578700
      3 N3          1.7420    2.6490    1.4270 n4        1 0O4     -0.677800
      4 C4          1.4590    1.3870    2.1690 c3        1 0O4      0.089800
      5 C5          2.0850    1.3990    3.5870 c3        1 0O4      0.167800
      6 N6          1.8410    0.1250    4.2300 n3        1 0O4     -0.743600
      7 C11         2.9960   -0.3840    4.9630 c3        1 0O4      0.134800
      8 C10         2.6970   -1.7180    5.6620 c3        1 0O4      0.125900
      9 O9          1.5300   -1.6290    6.4690 os        1 0O4     -0.396600
     10 C8          0.3890   -1.2440    5.7140 c3        1 0O4      0.125900
     11 C7          0.6140    0.1060    5.0180 c3        1 0O4      0.134800
     12 C12         1.6930    1.8800   -1.0080 ca        1 0O4     -0.209600
     13 C13         2.9310    1.2240   -0.8950 ca        1 0O4     -0.064500
     14 C17         0.9810    1.8130   -2.2230 ca        1 0O4     -0.064500
     15 C16         1.4980    1.0990   -3.2980 ca        1 0O4     -0.113000
     16 C15         2.7320    0.4450   -3.1840 cp        1 0O4     -0.034500
     17 C14         3.4420    0.5130   -1.9720 ca        1 0O4     -0.113000
     18 C18         3.2700   -0.3510   -4.3070 cp        1 0O4      0.424800
     19 N19         3.5540   -1.6340   -4.0580 nb        1 0O4     -0.644000
     20 C20         4.0190   -2.4010   -5.0840 ca        1 0O4      0.378200
     21 C27         3.4620    0.2640   -5.5940 ca        1 0O4     -0.130300
     22 C26         3.2160    1.6370   -5.8590 ca        1 0O4     -0.130000
     23 C25         3.4230    2.1550   -7.1130 ca        1 0O4     -0.105000
     24 C22         3.9460   -0.5620   -6.6470 ca        1 0O4     -0.018000
     25 C21         4.2210   -1.9260   -6.3700 ca        1 0O4     -0.190300
     26 C23         4.1470   -0.0010   -7.9380 ca        1 0O4     -0.111000
     27 C24         3.8890    1.3280   -8.1660 ca        1 0O4     -0.106000
     28 H1          1.3800    3.4450    1.9690 hn        1 0O4      0.454300
     29 H2          0.3390    1.2730    2.2410 hx        1 0O4      0.117200
     30 H3          1.8710    0.5260    1.5660 hx        1 0O4      0.117200
     31 H4          1.6460    2.2640    4.1650 h1        1 0O4      0.051200
     32 H5          3.1950    1.5760    3.4910 h1        1 0O4      0.051200
     33 H7          3.3460    0.3560    5.7400 h1        1 0O4      0.046200
     34 H8          3.8320   -0.5470    4.2280 h1        1 0O4      0.046200
     35 H9          2.5800   -2.5410    4.9100 h1        1 0O4      0.068450
     36 H10         3.5210   -1.9630    6.3840 h1        1 0O4      0.068450
     37 H11         0.1400   -2.0400    4.9650 h1        1 0O4      0.068450
     38 H12        -0.4330   -1.1520    6.4720 h1        1 0O4      0.068450
     39 H13        -0.2480    0.2980    4.3210 h1        1 0O4      0.046200
     40 H14         0.6180    0.9160    5.8050 h1        1 0O4      0.046200
     41 H15         3.5220    1.2480    0.0330 ha        1 0O4      0.148000
     42 H16         0.0070    2.3250   -2.3150 ha        1 0O4      0.148000
     43 H17         0.9300    1.0380   -4.2420 ha        1 0O4      0.176500
     44 H18         4.4080   -0.0130   -1.8780 ha        1 0O4      0.176500
     45 H19         4.2230   -3.4540   -4.8140 h4        1 0O4      0.038100
     46 H20         2.8660    2.2860   -5.0420 ha        1 0O4      0.130000
     47 H21         3.2330    3.2200   -7.3180 ha        1 0O4      0.145000
     48 H22         4.5910   -2.5850   -7.1680 ha        1 0O4      0.160000
     49 H23         4.5160   -0.6540   -8.7450 ha        1 0O4      0.151000
     50 H24         4.0420    1.7680   -9.1640 ha        1 0O4      0.151000
     51 H32         2.7530    2.7660    1.3150 hn        1 0O4      0.454300
@<TRIPOS>BOND
     1    1    2 2   
     2    2    3 1   
     3    2   12 1   
     4    3    4 1   
     5    3   28 1   
     6    3   51 1   
     7    4    5 1   
     8    4   29 1   
     9    4   30 1   
    10    5    6 1   
    11    5   31 1   
    12    5   32 1   
    13    6    7 1   
    14    6   11 1   
    15    7    8 1   
    16    7   33 1   
    17    7   34 1   
    18    8    9 1   
    19    8   35 1   
    20    8   36 1   
    21    9   10 1   
    22   10   11 1   
    23   10   37 1   
    24   10   38 1   
    25   11   39 1   
    26   11   40 1   
    27   12   13 ar  
    28   12   14 ar  
    29   13   17 ar  
    30   13   41 1   
    31   14   15 ar  
    32   14   42 1   
    33   15   16 ar  
    34   15   43 1   
    35   16   17 ar  
    36   16   18 1   
    37   17   44 1   
    38   18   19 ar  
    39   18   21 ar  
    40   19   20 ar  
    41   20   25 ar  
    42   20   45 1   
    43   21   22 ar  
    44   21   24 ar  
    45   22   23 ar  
    46   22   46 1   
    47   23   27 ar  
    48   23   47 1   
    49   24   25 ar  
    50   24   26 ar  
    51   25   48 1   
    52   26   27 ar  
    53   26   49 1   
    54   27   50 1   
@<TRIPOS>SUBSTRUCTURE
     1 0O4         1 TEMP              0 ****  ****    0 ROOT
