@<TRIPOS>MOLECULE
0O4
   51    54     1     0     0
SMALL
bcc


@<TRIPOS>ATOM
      1 O1          0.1010    3.3530    0.0420 o         1 0O4     -0.437100
      2 C2          1.1120    2.6610    0.0720 c         1 0O4      0.578700
      3 N3          1.7850    2.6420    1.4380 ny        1 0O4     -0.677800
      4 C4          1.4720    1.3850    2.1750 c3        1 0O4      0.089800
      5 C5          2.0990    1.3760    3.5930 c3        1 0O4      0.166800
      6 N6          1.8260    0.1060    4.2310 n3        1 0O4     -0.743600
      7 C11         2.9680   -0.4320    4.9630 c3        1 0O4      0.134800
      8 C10         2.6380   -1.7610    5.6570 c3        1 0O4      0.125900
      9 O9          1.4740   -1.6480    6.4630 os        1 0O4     -0.396600
     10 C8          0.3420   -1.2340    5.7100 c3        1 0O4      0.125900
     11 C7          0.5980    0.1120    5.0190 c3        1 0O4      0.134800
     12 C12         1.7210    1.8910   -1.0020 ca        1 0O4     -0.209600
     13 C13         2.9400    1.2000   -0.8910 ca        1 0O4     -0.064500
     14 C17         1.0130    1.8560   -2.2210 ca        1 0O4     -0.064500
     15 C16         1.5160    1.1390   -3.3020 ca        1 0O4     -0.113000
     16 C15         2.7320    0.4520   -3.1890 cp        1 0O4     -0.034500
     17 C14         3.4380    0.4870   -1.9730 ca        1 0O4     -0.113000
     18 C18         3.2540   -0.3460   -4.3180 cp        1 0O4      0.424800
     19 N19         3.5010   -1.6390   -4.0820 nb        1 0O4     -0.644000
     20 C20         3.9510   -2.4070   -5.1140 ca        1 0O4      0.378200
     21 C27         3.4690    0.2780   -5.5970 ca        1 0O4     -0.130300
     22 C26         3.2620    1.6600   -5.8470 ca        1 0O4     -0.130000
     23 C25         3.4900    2.1860   -7.0950 ca        1 0O4     -0.105000
     24 C22         3.9370   -0.5490   -6.6560 ca        1 0O4     -0.018000
     25 C21         4.1730   -1.9230   -6.3930 ca        1 0O4     -0.190300
     26 C23         4.1600    0.0210   -7.9400 ca        1 0O4     -0.111000
     27 C24         3.9390    1.3580   -8.1540 ca        1 0O4     -0.106000
     28 H1          2.7990    2.7350    1.3250 hn        1 0O4      0.454300
     29 H2          0.3500    1.2990    2.2480 hx        1 0O4      0.117200
     30 H3          1.8620    0.5170    1.5690 hx        1 0O4      0.117200
     31 H4          1.6810    2.2490    4.1750 h1        1 0O4      0.051200
     32 H5          3.2120    1.5280    3.4970 h1        1 0O4      0.051200
     33 H7          3.8000   -0.6120    4.2270 h1        1 0O4      0.046200
     34 H8          3.3350    0.2970    5.7420 h1        1 0O4      0.046200
     35 H9          3.4560   -2.0290    6.3770 h1        1 0O4      0.068450
     36 H10         2.5020   -2.5790    4.9010 h1        1 0O4      0.068450
     37 H11        -0.4770   -1.1260    6.4680 h1        1 0O4      0.068450
     38 H12         0.0750   -2.0220    4.9580 h1        1 0O4      0.068450
     39 H13        -0.2590    0.3280    4.3230 h1        1 0O4      0.046200
     40 H14         0.6210    0.9190    5.8090 h1        1 0O4      0.046200
     41 H15         3.5260    1.1980    0.0400 ha        1 0O4      0.148000
     42 H16         0.0530    2.3940   -2.3120 ha        1 0O4      0.148000
     43 H17         0.9510    1.1050   -4.2490 ha        1 0O4      0.176500
     44 H18         4.3880   -0.0650   -1.8800 ha        1 0O4      0.176500
     45 H19         4.1260   -3.4680   -4.8550 h4        1 0O4      0.038100
     46 H20         2.9250    2.3090   -5.0250 ha        1 0O4      0.130000
     47 H21         3.3300    3.2580   -7.2880 ha        1 0O4      0.145000
     48 H22         4.5290   -2.5830   -7.1970 ha        1 0O4      0.160000
     49 H23         4.5160   -0.6330   -8.7520 ha        1 0O4      0.151000
     50 H24         4.1100    1.8060   -9.1460 ha        1 0O4      0.151000
     51 H32         1.4430    3.4450    1.9840 hn        1 0O4      0.454300
@<TRIPOS>BOND
     1    1    2 2   
     2    2    3 1   
     3    2   12 1   
     4    3    4 1   
     5    3   28 1   
     6    3   51 1   
     7    4    5 1   
     8    4   29 1   
     9    4   30 1   
    10    5    6 1   
    11    5   31 1   
    12    5   32 1   
    13    6    7 1   
    14    6   11 1   
    15    7    8 1   
    16    7   33 1   
    17    7   34 1   
    18    8    9 1   
    19    8   35 1   
    20    8   36 1   
    21    9   10 1   
    22   10   11 1   
    23   10   37 1   
    24   10   38 1   
    25   11   39 1   
    26   11   40 1   
    27   12   13 ar  
    28   12   14 ar  
    29   13   17 ar  
    30   13   41 1   
    31   14   15 ar  
    32   14   42 1   
    33   15   16 ar  
    34   15   43 1   
    35   16   17 ar  
    36   16   18 1   
    37   17   44 1   
    38   18   19 ar  
    39   18   21 ar  
    40   19   20 ar  
    41   20   25 ar  
    42   20   45 1   
    43   21   22 ar  
    44   21   24 ar  
    45   22   23 ar  
    46   22   46 1   
    47   23   27 ar  
    48   23   47 1   
    49   24   25 ar  
    50   24   26 ar  
    51   25   48 1   
    52   26   27 ar  
    53   26   49 1   
    54   27   50 1   
@<TRIPOS>SUBSTRUCTURE
     1 0O4         1 TEMP              0 ****  ****    0 ROOT
