@<TRIPOS>MOLECULE
0O4
   50    45     1     0     0
SMALL
bcc


@<TRIPOS>ATOM
      1 O1         -0.4160    2.6450    2.0730 o         1 0O4     -0.356000
      2 C2          0.0370    1.5530    1.6230 c1        1 0O4      0.340000
      3 N3         -0.3330    0.2910    2.2680 n2        1 0O4     -0.376000
      4 C4         -1.2740    0.2920    3.3650 c3        1 0O4     -0.030000
      5 C5         -2.1050   -1.0460    3.3500 c3        1 0O4     -0.091000
      6 N6         -3.3880   -0.8140    3.9440 n3        1 0O4     -0.251000
      7 C11        -4.4150   -1.2830    3.0700 c3        1 0O4     -0.103000
      8 C10        -5.7800   -1.1930    3.6890 c3        1 0O4     -0.024000
      9 O9         -5.8350   -1.8070    4.9860 os        1 0O4     -0.272000
     10 C8         -4.8130   -1.3390    5.8600 c3        1 0O4     -0.024000
     11 C7         -3.4390   -1.4300    5.2390 c3        1 0O4     -0.103000
     12 C12         0.8240    1.5330    0.2640 c1        1 0O4     -0.117000
     13 C13         2.2060    1.5560    0.2640 c1        1 0O4     -0.114333
     14 C17         0.1330    1.4730   -0.9330 c1        1 0O4     -0.085000
     15 C16         0.8350    1.4360   -2.1500 c1        1 0O4     -0.124000
     16 C15         2.2090    1.4580   -2.1500 c1        1 0O4     -0.018000
     17 C14         2.9050    1.5180   -0.9440 c1        1 0O4     -0.114333
     18 C18         2.9590    1.3060   -3.4390 c2        1 0O4      0.042000
     19 N19         3.3070    2.5660   -3.7670 n2        1 0O4     -0.129000
     20 C20         4.0110    2.8140   -4.9350 c1        1 0O4     -0.080000
     21 C27         3.3070    0.2330   -4.2800 c1        1 0O4     -0.080000
     22 C26         2.9230   -1.0850   -3.9370 c1        1 0O4     -0.114333
     23 C25         3.2450   -2.1260   -4.7570 c1        1 0O4     -0.114333
     24 C22         4.0010    0.4660   -5.4340 c1        1 0O4     -0.014000
     25 C21         4.3590    1.7640   -5.7710 c1        1 0O4     -0.161000
     26 C23         4.3280   -0.5970   -6.2690 c1        1 0O4     -0.114333
     27 C24         3.9460   -1.8960   -5.9250 c1        1 0O4     -0.114333
     28 H1          0.1140   -0.4730    2.0560 hn        1 0O4      0.219000
     29 H2         -0.8080    0.3620    4.1770 h1        1 0O4      0.110000
     30 H3         -1.8790    1.0500    3.2720 h1        1 0O4      0.110000
     31 H4         -1.6130   -1.7560    3.8760 h1        1 0O4      0.075000
     32 H5         -2.2220   -1.3450    2.4300 h1        1 0O4      0.075000
     33 H7         -4.2370   -2.1920    2.8480 h1        1 0O4      0.079750
     34 H8         -4.4040   -0.7370    2.2350 h1        1 0O4      0.079750
     35 H9         -6.4280   -1.6440    3.0970 h1        1 0O4      0.094000
     36 H10        -6.0280   -0.2570    3.7700 h1        1 0O4      0.094000
     37 H11        -4.8280   -1.8730    6.6730 h1        1 0O4      0.094000
     38 H12        -5.0030   -0.3690    6.0990 h1        1 0O4      0.094000
     39 H13        -2.8150   -0.9980    5.8100 h1        1 0O4      0.079750
     40 H14        -3.1890   -2.3790    5.1540 h1        1 0O4      0.079750
     41 H15         2.6850    1.5970    1.0950 ha        1 0O4      0.140667
     42 H16        -0.8440    1.4580   -0.9330 ha        1 0O4      0.158000
     43 H17         0.3490    1.3930   -2.9910 ha        1 0O4      0.146000
     44 H18         3.8750    1.5350   -0.9430 ha        1 0O4      0.140667
     45 H19         4.2620    3.7310   -5.1690 ha        1 0O4      0.162000
     46 H20         2.4180   -1.2530   -3.0980 ha        1 0O4      0.140667
     47 H21         2.9870   -3.0040   -4.5260 ha        1 0O4      0.140667
     48 H22         4.8740    1.9450   -6.6280 ha        1 0O4      0.145000
     49 H23         4.8240   -0.4360   -7.0950 ha        1 0O4      0.140667
     50 H24         4.1750   -2.6440   -6.5120 ha        1 0O4      0.140667
@<TRIPOS>BOND
     1    1    2 1   
     2    2   12 1   
     3    3    4 1   
     4    3   28 1   
     5    4    5 1   
     6    4   29 1   
     7    4   30 1   
     8    5    6 1   
     9    5   31 1   
    10    5   32 1   
    11    6    7 1   
    12    6   11 1   
    13    7    8 1   
    14    7   33 1   
    15    7   34 1   
    16    8    9 1   
    17    8   35 1   
    18    8   36 1   
    19    9   10 1   
    20   10   11 1   
    21   10   37 1   
    22   10   38 1   
    23   11   39 1   
    24   11   40 1   
    25   12   14 1   
    26   13   17 1   
    27   13   41 1   
    28   14   42 1   
    29   15   16 1   
    30   15   43 1   
    31   16   18 1   
    32   17   44 1   
    33   18   19 1   
    34   18   21 1   
    35   19   20 1   
    36   20   45 1   
    37   21   24 1   
    38   22   23 1   
    39   22   46 1   
    40   23   47 1   
    41   24   25 1   
    42   25   48 1   
    43   26   27 1   
    44   26   49 1   
    45   27   50 1   
@<TRIPOS>SUBSTRUCTURE
     1 0O4         1 TEMP              0 ****  ****    0 ROOT
