@<TRIPOS>MOLECULE
0O4
   51    54     1     0     0
SMALL
bcc


@<TRIPOS>ATOM
      1 O1          0.1310    3.3790    0.0290 o         1 0O4     -0.437100
      2 C2          1.1350    2.6780    0.0630 c         1 0O4      0.578700
      3 N3          1.8080    2.6590    1.4280 n4        1 0O4     -0.677800
      4 C4          1.4840    1.4070    2.1710 c3        1 0O4      0.089800
      5 C5          2.1120    1.3990    3.5890 c3        1 0O4      0.166800
      6 N6          1.8270    0.1350    4.2330 n3        1 0O4     -0.743600
      7 C11         2.9640   -0.4090    4.9670 c3        1 0O4      0.134800
      8 C10         2.6230   -1.7320    5.6670 c3        1 0O4      0.125900
      9 O9          1.4590   -1.6060    6.4730 os        1 0O4     -0.396600
     10 C8          0.3320   -1.1860    5.7170 c3        1 0O4      0.125900
     11 C7          0.6000    0.1550    5.0200 c3        1 0O4      0.134800
     12 C12         1.7350    1.8970   -1.0090 ca        1 0O4     -0.209600
     13 C13         2.9490    1.1970   -0.8950 ca        1 0O4     -0.064500
     14 C17         1.0260    1.8600   -2.2250 ca        1 0O4     -0.064500
     15 C16         1.5210    1.1330   -3.3030 ca        1 0O4     -0.113000
     16 C15         2.7310    0.4370   -3.1880 cp        1 0O4     -0.034500
     17 C14         3.4390    0.4740   -1.9740 ca        1 0O4     -0.113000
     18 C18         3.2450   -0.3710   -4.3130 cp        1 0O4      0.424800
     19 N19         3.4820   -1.6660   -4.0700 nb        1 0O4     -0.644000
     20 C20         3.9240   -2.4430   -5.0980 ca        1 0O4      0.378200
     21 C27         3.4630    0.2420   -5.5960 ca        1 0O4     -0.130300
     22 C26         3.2670    1.6250   -5.8540 ca        1 0O4     -0.130000
     23 C25         3.4960    2.1420   -7.1060 ca        1 0O4     -0.105000
     24 C22         3.9220   -0.5940   -6.6520 ca        1 0O4     -0.018000
     25 C21         4.1470   -1.9680   -6.3810 ca        1 0O4     -0.190300
     26 C23         4.1470   -0.0330   -7.9400 ca        1 0O4     -0.111000
     27 C24         3.9360    1.3040   -8.1610 ca        1 0O4     -0.106000
     28 H1          2.8220    2.7430    1.3150 hn        1 0O4      0.454300
     29 H2          1.8670    0.5340    1.5680 hx        1 0O4      0.117200
     30 H3          0.3620    1.3310    2.2440 hx        1 0O4      0.117200
     31 H4          1.7010    2.2790    4.1670 h1        1 0O4      0.051200
     32 H5          3.2260    1.5410    3.4920 h1        1 0O4      0.051200
     33 H7          3.3370    0.3200    5.7440 h1        1 0O4      0.046200
     34 H8          3.7950   -0.6000    4.2320 h1        1 0O4      0.046200
     35 H9          3.4380   -2.0030    6.3890 h1        1 0O4      0.068450
     36 H10         2.4800   -2.5530    4.9160 h1        1 0O4      0.068450
     37 H11         0.0580   -1.9740    4.9680 h1        1 0O4      0.068450
     38 H12        -0.4880   -1.0670    6.4740 h1        1 0O4      0.068450
     39 H13         0.6290    0.9660    5.8060 h1        1 0O4      0.046200
     40 H14        -0.2560    0.3750    4.3220 h1        1 0O4      0.046200
     41 H15         3.5370    1.1950    0.0350 ha        1 0O4      0.148000
     42 H16         0.0700    2.4060   -2.3180 ha        1 0O4      0.148000
     43 H17         0.9540    1.0980   -4.2490 ha        1 0O4      0.176500
     44 H18         4.3850   -0.0860   -1.8790 ha        1 0O4      0.176500
     45 H19         4.0900   -3.5030   -4.8330 h4        1 0O4      0.038100
     46 H20         2.9360    2.2810   -5.0360 ha        1 0O4      0.130000
     47 H21         3.3440    3.2140   -7.3050 ha        1 0O4      0.145000
     48 H22         4.4970   -2.6360   -7.1820 ha        1 0O4      0.160000
     49 H23         4.4950   -0.6950   -8.7480 ha        1 0O4      0.151000
     50 H24         4.1090    1.7440   -9.1550 ha        1 0O4      0.151000
     51 H32         1.4730    3.4670    1.9700 hn        1 0O4      0.454300
@<TRIPOS>BOND
     1    1    2 2   
     2    2    3 1   
     3    2   12 1   
     4    3    4 1   
     5    3   28 1   
     6    3   51 1   
     7    4    5 1   
     8    4   29 1   
     9    4   30 1   
    10    5    6 1   
    11    5   31 1   
    12    5   32 1   
    13    6    7 1   
    14    6   11 1   
    15    7    8 1   
    16    7   33 1   
    17    7   34 1   
    18    8    9 1   
    19    8   35 1   
    20    8   36 1   
    21    9   10 1   
    22   10   11 1   
    23   10   37 1   
    24   10   38 1   
    25   11   39 1   
    26   11   40 1   
    27   12   13 ar  
    28   12   14 ar  
    29   13   17 ar  
    30   13   41 1   
    31   14   15 ar  
    32   14   42 1   
    33   15   16 ar  
    34   15   43 1   
    35   16   17 ar  
    36   16   18 1   
    37   17   44 1   
    38   18   19 ar  
    39   18   21 ar  
    40   19   20 ar  
    41   20   25 ar  
    42   20   45 1   
    43   21   22 ar  
    44   21   24 ar  
    45   22   23 ar  
    46   22   46 1   
    47   23   27 ar  
    48   23   47 1   
    49   24   25 ar  
    50   24   26 ar  
    51   25   48 1   
    52   26   27 ar  
    53   26   49 1   
    54   27   50 1   
@<TRIPOS>SUBSTRUCTURE
     1 0O4         1 TEMP              0 ****  ****    0 ROOT
