@<TRIPOS>MOLECULE
0O5
   54    57     1     0     0
SMALL
bcc


@<TRIPOS>ATOM
      1 O19        -0.3520    2.8700   -0.1090 o         1 0O5     -0.437100
      2 C18         0.7830    2.4130   -0.0660 c         1 0O5      0.578700
      3 N20         1.4380    2.5600    1.3000 n4        1 0O5     -0.677800
      4 C21         1.3790    1.2810    2.0660 c3        1 0O5      0.089800
      5 C22         1.9830    1.4310    3.4860 c3        1 0O5      0.166800
      6 N23         1.9680    0.1460    4.1520 n3        1 0O5     -0.743600
      7 C28         3.1870   -0.1290    4.9050 c3        1 0O5      0.134800
      8 C24         3.1290   -1.4830    5.6280 c3        1 0O5      0.125900
      9 O26         1.9560   -1.5950    6.4220 os        1 0O5     -0.396600
     10 C25         0.7730   -1.4390    5.6500 c3        1 0O5      0.125900
     11 C27         0.7560   -0.0840    4.9290 c3        1 0O5      0.134800
     12 C13         1.5510    1.7790   -1.1290 ca        1 0O5     -0.210600
     13 C17         2.8800    1.3410   -0.9950 ca        1 0O5     -0.064500
     14 C14         3.5260    0.7420   -2.0670 ca        1 0O5     -0.113000
     15 C16         0.8840    1.6060   -2.3590 ca        1 0O5     -0.064500
     16 C15         1.5380    1.0050   -3.4300 ca        1 0O5     -0.113000
     17 C9          2.8620    0.5710   -3.2950 cp        1 0O5     -0.034500
     18 C4          3.5520   -0.1030   -4.4160 cp        1 0O5      0.433800
     19 N6          4.0370   -1.3230   -4.1760 nb        1 0O5     -0.648000
     20 C2          4.6550   -1.9980   -5.2010 ca        1 0O5      0.400600
     21 C1          5.1810   -3.3690   -4.9160 c3        1 0O5     -0.149400
     22 C7          3.6650    0.5650   -5.6860 ca        1 0O5     -0.138300
     23 C12         3.1970    1.8810   -5.9350 ca        1 0O5     -0.127000
     24 C11         3.3450    2.4510   -7.1760 ca        1 0O5     -0.108000
     25 C10         3.9680    1.7340   -8.2270 ca        1 0O5     -0.106000
     26 C8          4.4410    0.4640   -8.0130 ca        1 0O5     -0.113000
     27 C5          4.3060   -0.1480   -6.7350 ca        1 0O5     -0.012000
     28 C3          4.7980   -1.4510   -6.4730 ca        1 0O5     -0.199300
     29 H1          2.4130    2.8520    1.1880 hn        1 0O5      0.454300
     30 H2          1.9410    0.4970    1.4810 hx        1 0O5      0.117200
     31 H3          0.2960    0.9720    2.1350 hx        1 0O5      0.117200
     32 H4          3.0430    1.8030    3.3910 h1        1 0O5      0.051200
     33 H5          1.3910    2.2130    4.0460 h1        1 0O5      0.051200
     34 H7          3.3860    0.6760    5.6700 h1        1 0O5      0.046200
     35 H8          4.0480   -0.1500    4.1800 h1        1 0O5      0.046200
     36 H9          3.1740   -2.3280    4.8920 h1        1 0O5      0.068450
     37 H10         3.9750   -1.5600    6.3610 h1        1 0O5      0.068450
     38 H11        -0.0610   -1.4850    6.3990 h1        1 0O5      0.068450
     39 H12         0.6830   -2.2810    4.9150 h1        1 0O5      0.068450
     40 H13         0.6020    0.7270    5.7000 h1        1 0O5      0.046200
     41 H14        -0.1190   -0.0650    4.2210 h1        1 0O5      0.046200
     42 H15         3.4380    1.4500   -0.0530 ha        1 0O5      0.148000
     43 H16         4.5650    0.3860   -1.9570 ha        1 0O5      0.176500
     44 H17        -0.1610    1.9440   -2.4670 ha        1 0O5      0.148000
     45 H18         1.0060    0.8610   -4.3860 ha        1 0O5      0.176500
     46 H19         5.9430   -3.3340   -4.0990 hc        1 0O5      0.060033
     47 H20         4.3510   -4.0460   -4.5950 hc        1 0O5      0.060033
     48 H21         5.6570   -3.7960   -5.8320 hc        1 0O5      0.060033
     49 H22         2.7220    2.4460   -5.1180 ha        1 0O5      0.129000
     50 H23         2.9830    3.4730   -7.3700 ha        1 0O5      0.145000
     51 H24         4.0700    2.2130   -9.2130 ha        1 0O5      0.150000
     52 H25         4.9330   -0.1030   -8.8190 ha        1 0O5      0.150000
     53 H26         5.2900   -2.0170   -7.2770 ha        1 0O5      0.158000
     54 H202        0.9380    3.2880    1.8270 hn        1 0O5      0.454300
@<TRIPOS>BOND
     1    1    2 2   
     2    2    3 1   
     3    2   12 1   
     4    3    4 1   
     5    3   29 1   
     6    3   54 1   
     7    4    5 1   
     8    4   30 1   
     9    4   31 1   
    10    5    6 1   
    11    5   32 1   
    12    5   33 1   
    13    6    7 1   
    14    6   11 1   
    15    7    8 1   
    16    7   34 1   
    17    7   35 1   
    18    8    9 1   
    19    8   36 1   
    20    8   37 1   
    21    9   10 1   
    22   10   11 1   
    23   10   38 1   
    24   10   39 1   
    25   11   40 1   
    26   11   41 1   
    27   12   13 ar  
    28   12   15 ar  
    29   13   14 ar  
    30   13   42 1   
    31   14   17 ar  
    32   14   43 1   
    33   15   16 ar  
    34   15   44 1   
    35   16   17 ar  
    36   16   45 1   
    37   17   18 1   
    38   18   19 ar  
    39   18   22 ar  
    40   19   20 ar  
    41   20   21 1   
    42   20   28 ar  
    43   21   46 1   
    44   21   47 1   
    45   21   48 1   
    46   22   23 ar  
    47   22   27 ar  
    48   23   24 ar  
    49   23   49 1   
    50   24   25 ar  
    51   24   50 1   
    52   25   26 ar  
    53   25   51 1   
    54   26   27 ar  
    55   26   52 1   
    56   27   28 ar  
    57   28   53 1   
@<TRIPOS>SUBSTRUCTURE
     1 0O5         1 TEMP              0 ****  ****    0 ROOT
