@<TRIPOS>MOLECULE
0O5
   54    57     1     0     0
SMALL
bcc


@<TRIPOS>ATOM
      1 O19        -0.3170    2.8990   -0.0980 o         1 0O5     -0.437100
      2 C18         0.8140    2.4290   -0.0600 c         1 0O5      0.578700
      3 N20         1.4770    2.5690    1.3040 ny        1 0O5     -0.677800
      4 C21         1.4000    1.2930    2.0720 c3        1 0O5      0.089800
      5 C22         2.0110    1.4360    3.4900 c3        1 0O5      0.166800
      6 N23         1.9790    0.1530    4.1590 n3        1 0O5     -0.743600
      7 C28         3.1960   -0.1390    4.9090 c3        1 0O5      0.134800
      8 C24         3.1200   -1.4900    5.6350 c3        1 0O5      0.125900
      9 O26         1.9480   -1.5820    6.4330 os        1 0O5     -0.396600
     10 C25         0.7650   -1.4100    5.6650 c3        1 0O5      0.125900
     11 C27         0.7660   -0.0570    4.9410 c3        1 0O5      0.134800
     12 C13         1.5690    1.7870   -1.1260 ca        1 0O5     -0.210600
     13 C17         2.8910    1.3270   -0.9950 ca        1 0O5     -0.064500
     14 C14         3.5260    0.7210   -2.0710 ca        1 0O5     -0.113000
     15 C16         0.8990    1.6310   -2.3560 ca        1 0O5     -0.064500
     16 C15         1.5410    1.0230   -3.4300 ca        1 0O5     -0.113000
     17 C9          2.8580    0.5670   -3.2980 cp        1 0O5     -0.034500
     18 C4          3.5350   -0.1140   -4.4240 cp        1 0O5      0.432800
     19 N6          4.0010   -1.3420   -4.1900 nb        1 0O5     -0.648000
     20 C2          4.6060   -2.0240   -5.2180 ca        1 0O5      0.400600
     21 C1          5.1090   -3.4040   -4.9400 c3        1 0O5     -0.149400
     22 C7          3.6580    0.5570   -5.6910 ca        1 0O5     -0.138300
     23 C12         3.2120    1.8830   -5.9330 ca        1 0O5     -0.127000
     24 C11         3.3680    2.4560   -7.1720 ca        1 0O5     -0.108000
     25 C10         3.9780    1.7330   -8.2270 ca        1 0O5     -0.106000
     26 C8          4.4300    0.4540   -8.0190 ca        1 0O5     -0.113000
     27 C5          4.2860   -0.1610   -6.7440 ca        1 0O5     -0.012000
     28 C3          4.7560   -1.4740   -6.4870 ca        1 0O5     -0.199300
     29 H1          0.9900    3.3060    1.8310 hn        1 0O5      0.454300
     30 H2          0.3130    1.0010    2.1460 hx        1 0O5      0.116700
     31 H3          1.9480    0.4990    1.4880 hx        1 0O5      0.116700
     32 H4          1.4330    2.2290    4.0510 h1        1 0O5      0.051200
     33 H5          3.0760    1.7920    3.3900 h1        1 0O5      0.051200
     34 H7          3.4100    0.6650    5.6710 h1        1 0O5      0.046200
     35 H8          4.0540   -0.1740    4.1810 h1        1 0O5      0.046200
     36 H9          3.1500   -2.3370    4.9010 h1        1 0O5      0.068450
     37 H10         3.9670   -1.5780    6.3660 h1        1 0O5      0.068450
     38 H11         0.6600   -2.2520    4.9310 h1        1 0O5      0.068450
     39 H12        -0.0680   -1.4420    6.4160 h1        1 0O5      0.068450
     40 H13         0.6270    0.7590    5.7100 h1        1 0O5      0.046200
     41 H14        -0.1100   -0.0260    4.2350 h1        1 0O5      0.046200
     42 H15         3.4520    1.4220   -0.0540 ha        1 0O5      0.148000
     43 H16         4.5590    0.3470   -1.9630 ha        1 0O5      0.176500
     44 H17        -0.1410    1.9860   -2.4610 ha        1 0O5      0.148000
     45 H18         1.0060    0.8920   -4.3870 ha        1 0O5      0.176500
     46 H19         5.5780   -3.8340   -5.8590 hc        1 0O5      0.060033
     47 H20         5.8720   -3.3860   -4.1230 hc        1 0O5      0.060033
     48 H21         4.2680   -4.0690   -4.6210 hc        1 0O5      0.060033
     49 H22         2.7480    2.4510   -5.1140 ha        1 0O5      0.129000
     50 H23         3.0230    3.4840   -7.3600 ha        1 0O5      0.145000
     51 H24         4.0870    2.2150   -9.2110 ha        1 0O5      0.150000
     52 H25         4.9120   -0.1170   -8.8280 ha        1 0O5      0.150000
     53 H26         5.2380   -2.0440   -7.2950 ha        1 0O5      0.158000
     54 H202        2.4550    2.8450    1.1870 hn        1 0O5      0.454300
@<TRIPOS>BOND
     1    1    2 2   
     2    2    3 1   
     3    2   12 1   
     4    3    4 1   
     5    3   29 1   
     6    3   54 1   
     7    4    5 1   
     8    4   30 1   
     9    4   31 1   
    10    5    6 1   
    11    5   32 1   
    12    5   33 1   
    13    6    7 1   
    14    6   11 1   
    15    7    8 1   
    16    7   34 1   
    17    7   35 1   
    18    8    9 1   
    19    8   36 1   
    20    8   37 1   
    21    9   10 1   
    22   10   11 1   
    23   10   38 1   
    24   10   39 1   
    25   11   40 1   
    26   11   41 1   
    27   12   13 ar  
    28   12   15 ar  
    29   13   14 ar  
    30   13   42 1   
    31   14   17 ar  
    32   14   43 1   
    33   15   16 ar  
    34   15   44 1   
    35   16   17 ar  
    36   16   45 1   
    37   17   18 1   
    38   18   19 ar  
    39   18   22 ar  
    40   19   20 ar  
    41   20   21 1   
    42   20   28 ar  
    43   21   46 1   
    44   21   47 1   
    45   21   48 1   
    46   22   23 ar  
    47   22   27 ar  
    48   23   24 ar  
    49   23   49 1   
    50   24   25 ar  
    51   24   50 1   
    52   25   26 ar  
    53   25   51 1   
    54   26   27 ar  
    55   26   52 1   
    56   27   28 ar  
    57   28   53 1   
@<TRIPOS>SUBSTRUCTURE
     1 0O5         1 TEMP              0 ****  ****    0 ROOT
