@<TRIPOS>MOLECULE
0O5
   54    57     1     0     0
SMALL
bcc


@<TRIPOS>ATOM
      1 O19        -0.2510    2.9690   -0.0930 o         1 0O5     -0.437100
      2 C18         0.8680    2.4710   -0.0570 c         1 0O5      0.578700
      3 N20         1.5340    2.5920    1.3070 n4        1 0O5     -0.677800
      4 C21         1.4240    1.3180    2.0740 c3        1 0O5      0.089800
      5 C22         2.0380    1.4440    3.4920 c3        1 0O5      0.166800
      6 N23         1.9730    0.1610    4.1600 n3        1 0O5     -0.743600
      7 C28         3.1820   -0.1630    4.9100 c3        1 0O5      0.134800
      8 C24         3.0700   -1.5120    5.6350 c3        1 0O5      0.125900
      9 O26         1.8960   -1.5740    6.4330 os        1 0O5     -0.396600
     10 C25         0.7180   -1.3710    5.6650 c3        1 0O5      0.125900
     11 C27         0.7540   -0.0170    4.9410 c3        1 0O5      0.134800
     12 C13         1.6070    1.8130   -1.1240 ca        1 0O5     -0.210600
     13 C17         2.9160    1.3170   -0.9940 ca        1 0O5     -0.064500
     14 C14         3.5360    0.6980   -2.0710 ca        1 0O5     -0.113000
     15 C16         0.9340    1.6780   -2.3550 ca        1 0O5     -0.064500
     16 C15         1.5610    1.0580   -3.4310 ca        1 0O5     -0.113000
     17 C9          2.8650    0.5660   -3.2990 cp        1 0O5     -0.034500
     18 C4          3.5260   -0.1280   -4.4260 cp        1 0O5      0.432800
     19 N6          3.9580   -1.3690   -4.1960 nb        1 0O5     -0.648000
     20 C2          4.5460   -2.0630   -5.2260 ca        1 0O5      0.400600
     21 C1          5.0110   -3.4570   -4.9520 c3        1 0O5     -0.149400
     22 C7          3.6680    0.5440   -5.6900 ca        1 0O5     -0.138300
     23 C12         3.2580    1.8820   -5.9290 ca        1 0O5     -0.127000
     24 C11         3.4310    2.4540   -7.1650 ca        1 0O5     -0.108000
     25 C10         4.0230    1.7200   -8.2220 ca        1 0O5     -0.106000
     26 C8          4.4400    0.4280   -8.0180 ca        1 0O5     -0.113000
     27 C5          4.2780   -0.1880   -6.7450 ca        1 0O5     -0.012000
     28 C3          4.7130   -1.5130   -6.4930 ca        1 0O5     -0.199300
     29 H1          1.0670    3.3420    1.8350 hn        1 0O5      0.454300
     30 H2          1.9510    0.5100    1.4890 hx        1 0O5      0.116700
     31 H3          0.3300    1.0550    2.1480 hx        1 0O5      0.116700
     32 H4          3.1130    1.7720    3.3930 h1        1 0O5      0.051200
     33 H5          1.4820    2.2510    4.0540 h1        1 0O5      0.051200
     34 H7          4.0380   -0.2200    4.1830 h1        1 0O5      0.046200
     35 H8          3.4160    0.6350    5.6730 h1        1 0O5      0.046200
     36 H9          3.0780   -2.3590    4.9000 h1        1 0O5      0.068450
     37 H10         3.9140   -1.6230    6.3660 h1        1 0O5      0.068450
     38 H11         0.5910   -2.2090    4.9310 h1        1 0O5      0.068450
     39 H12        -0.1150   -1.3810    6.4160 h1        1 0O5      0.068450
     40 H13         0.6370    0.8010    5.7110 h1        1 0O5      0.046200
     41 H14        -0.1210    0.0370    4.2360 h1        1 0O5      0.046200
     42 H15         3.4780    1.3940   -0.0510 ha        1 0O5      0.148000
     43 H16         4.5580    0.2970   -1.9630 ha        1 0O5      0.176500
     44 H17        -0.0960    2.0620   -2.4600 ha        1 0O5      0.148000
     45 H18         1.0240    0.9440   -4.3880 ha        1 0O5      0.176500
     46 H19         5.4700   -3.8970   -5.8720 hc        1 0O5      0.060033
     47 H20         4.1530   -4.1010   -4.6370 hc        1 0O5      0.060033
     48 H21         5.7740   -3.4630   -4.1340 hc        1 0O5      0.060033
     49 H22         2.8080    2.4590   -5.1080 ha        1 0O5      0.129000
     50 H23         3.1130    3.4920   -7.3510 ha        1 0O5      0.145000
     51 H24         4.1460    2.2010   -9.2040 ha        1 0O5      0.150000
     52 H25         4.9070   -0.1530   -8.8290 ha        1 0O5      0.150000
     53 H26         5.1810   -2.0930   -7.3030 ha        1 0O5      0.158000
     54 H202        2.5190    2.8430    1.1900 hn        1 0O5      0.454300
@<TRIPOS>BOND
     1    1    2 2   
     2    2    3 1   
     3    2   12 1   
     4    3    4 1   
     5    3   29 1   
     6    3   54 1   
     7    4    5 1   
     8    4   30 1   
     9    4   31 1   
    10    5    6 1   
    11    5   32 1   
    12    5   33 1   
    13    6    7 1   
    14    6   11 1   
    15    7    8 1   
    16    7   34 1   
    17    7   35 1   
    18    8    9 1   
    19    8   36 1   
    20    8   37 1   
    21    9   10 1   
    22   10   11 1   
    23   10   38 1   
    24   10   39 1   
    25   11   40 1   
    26   11   41 1   
    27   12   13 ar  
    28   12   15 ar  
    29   13   14 ar  
    30   13   42 1   
    31   14   17 ar  
    32   14   43 1   
    33   15   16 ar  
    34   15   44 1   
    35   16   17 ar  
    36   16   45 1   
    37   17   18 1   
    38   18   19 ar  
    39   18   22 ar  
    40   19   20 ar  
    41   20   21 1   
    42   20   28 ar  
    43   21   46 1   
    44   21   47 1   
    45   21   48 1   
    46   22   23 ar  
    47   22   27 ar  
    48   23   24 ar  
    49   23   49 1   
    50   24   25 ar  
    51   24   50 1   
    52   25   26 ar  
    53   25   51 1   
    54   26   27 ar  
    55   26   52 1   
    56   27   28 ar  
    57   28   53 1   
@<TRIPOS>SUBSTRUCTURE
     1 0O5         1 TEMP              0 ****  ****    0 ROOT
