@<TRIPOS>MOLECULE
0O5
   53    56     1     0     0
SMALL
bcc


@<TRIPOS>ATOM
      1 O19         2.0700   -1.9360   -0.6760 o         1 0O5     -0.602100
      2 C18         1.7060   -0.7430   -0.7020 c         1 0O5      0.668700
      3 N20         2.6080    0.2800   -0.9250 n         1 0O5     -0.566900
      4 C21         4.0230    0.0580   -1.0120 c3        1 0O5      0.087000
      5 C22         4.7780    0.4260    0.2880 c3        1 0O5      0.142800
      6 N23         6.2230    0.4380    0.1060 n3        1 0O5     -0.724600
      7 C28         6.8970    1.0710    1.2350 c3        1 0O5      0.130300
      8 C24         8.4240    1.0260    1.1070 c3        1 0O5      0.126900
      9 O26         8.8940   -0.2970    0.8810 os        1 0O5     -0.414600
     10 C25         8.2970   -0.8870   -0.2670 c3        1 0O5      0.126900
     11 C27         6.7670   -0.8840   -0.1810 c3        1 0O5      0.130300
     12 C13         0.2700   -0.3640   -0.5510 ca        1 0O5     -0.134600
     13 C17        -0.1250    0.7400    0.2090 ca        1 0O5     -0.097500
     14 C14        -1.4790    1.0490    0.3380 ca        1 0O5     -0.113000
     15 C16        -0.6940   -1.1640   -1.1770 ca        1 0O5     -0.097500
     16 C15        -2.0460   -0.8550   -1.0490 ca        1 0O5     -0.113000
     17 C9         -2.4430    0.2500   -0.2870 cp        1 0O5     -0.124500
     18 C4         -3.8780    0.5870   -0.1560 cp        1 0O5      0.483800
     19 N6         -4.2820    1.7710   -0.6120 nb        1 0O5     -0.658000
     20 C2         -5.6180    2.0960   -0.5120 ca        1 0O5      0.403600
     21 C1         -6.0460    3.4290   -1.0380 c3        1 0O5     -0.145400
     22 C7         -4.7680   -0.3700    0.4570 ca        1 0O5     -0.150300
     23 C12        -4.3380   -1.6180    0.9770 ca        1 0O5     -0.101000
     24 C11        -5.2400   -2.4820    1.5510 ca        1 0O5     -0.133000
     25 C10        -6.6100   -2.1380    1.6330 ca        1 0O5     -0.109000
     26 C8         -7.0530   -0.9330    1.1440 ca        1 0O5     -0.128000
     27 C5         -6.1410   -0.0200    0.5490 ca        1 0O5     -0.010000
     28 C3         -6.5560    1.2400    0.0460 ca        1 0O5     -0.231300
     29 H1          2.2940    1.2180   -0.8690 hn        1 0O5      0.310500
     30 H2          4.2010   -1.0300   -1.2490 h1        1 0O5      0.070200
     31 H3          4.4220    0.6810   -1.8630 h1        1 0O5      0.070200
     32 H4          4.4720    1.4620    0.6100 h1        1 0O5      0.036700
     33 H5          4.4630   -0.2900    1.1030 h1        1 0O5      0.036700
     34 H7          6.5740    2.1480    1.2690 h1        1 0O5      0.042950
     35 H8          6.6080    0.5880    2.2140 h1        1 0O5      0.042950
     36 H9          8.7710    1.6960    0.2760 h1        1 0O5      0.053950
     37 H10         8.9000    1.3320    2.0750 h1        1 0O5      0.053950
     38 H11         8.6430   -0.3480   -1.1880 h1        1 0O5      0.053950
     39 H12         8.6800   -1.9410   -0.2710 h1        1 0O5      0.053950
     40 H13         6.4510   -1.6400    0.5960 h1        1 0O5      0.042950
     41 H14         6.3570   -1.2150   -1.1750 h1        1 0O5      0.042950
     42 H15         0.6200    1.3660    0.7220 ha        1 0O5      0.145500
     43 H16        -1.7890    1.9250    0.9270 ha        1 0O5      0.148000
     44 H17        -0.3720   -2.0410   -1.7610 ha        1 0O5      0.145500
     45 H18        -2.8030   -1.4780   -1.5500 ha        1 0O5      0.148000
     46 H19        -5.8100    3.5130   -2.1280 hc        1 0O5      0.053033
     47 H20        -7.1460    3.5630   -0.8970 hc        1 0O5      0.053033
     48 H21        -5.5120    4.2510   -0.5000 hc        1 0O5      0.053033
     49 H22        -3.2700   -1.8810    0.9160 ha        1 0O5      0.146000
     50 H23        -4.9060   -3.4490    1.9550 ha        1 0O5      0.138000
     51 H24        -7.3120   -2.8480    2.0950 ha        1 0O5      0.136000
     52 H25        -8.1160   -0.6530    1.2050 ha        1 0O5      0.137000
     53 H26        -7.6160    1.5230    0.1080 ha        1 0O5      0.144000
@<TRIPOS>BOND
     1    1    2 2   
     2    2    3 1   
     3    2   12 1   
     4    3    4 1   
     5    3   29 1   
     6    4    5 1   
     7    4   30 1   
     8    4   31 1   
     9    5    6 1   
    10    5   32 1   
    11    5   33 1   
    12    6    7 1   
    13    6   11 1   
    14    7    8 1   
    15    7   34 1   
    16    7   35 1   
    17    8    9 1   
    18    8   36 1   
    19    8   37 1   
    20    9   10 1   
    21   10   11 1   
    22   10   38 1   
    23   10   39 1   
    24   11   40 1   
    25   11   41 1   
    26   12   13 ar  
    27   12   15 ar  
    28   13   14 ar  
    29   13   42 1   
    30   14   17 ar  
    31   14   43 1   
    32   15   16 ar  
    33   15   44 1   
    34   16   17 ar  
    35   16   45 1   
    36   17   18 1   
    37   18   19 ar  
    38   18   22 ar  
    39   19   20 ar  
    40   20   21 1   
    41   20   28 ar  
    42   21   46 1   
    43   21   47 1   
    44   21   48 1   
    45   22   23 ar  
    46   22   27 ar  
    47   23   24 ar  
    48   23   49 1   
    49   24   25 ar  
    50   24   50 1   
    51   25   26 ar  
    52   25   51 1   
    53   26   27 ar  
    54   26   52 1   
    55   27   28 ar  
    56   28   53 1   
@<TRIPOS>SUBSTRUCTURE
     1 0O5         1 TEMP              0 ****  ****    0 ROOT
