@<TRIPOS>MOLECULE
0O5
   53    47     1     0     0
SMALL
bcc


@<TRIPOS>ATOM
      1 O19        -0.6230    2.4210    2.3710 o         1 0O5     -0.355000
      2 C18        -0.3810    1.2840    1.7720 c1        1 0O5      0.340000
      3 N20        -0.7060    0.1270    2.3690 n3        1 0O5     -0.376000
      4 C21        -1.5800    0.1240    3.5540 c3        1 0O5     -0.031000
      5 C22        -2.2540   -1.2270    3.6880 c3        1 0O5     -0.092000
      6 N23        -3.5290   -1.0900    4.4910 n3        1 0O5     -0.251000
      7 C28        -4.6270   -1.6010    3.7340 c3        1 0O5     -0.103000
      8 C24        -5.9120   -1.6190    4.5290 c3        1 0O5     -0.024000
      9 O26        -5.7580   -2.2760    5.7880 os        1 0O5     -0.272000
     10 C25        -4.6390   -1.7620    6.5470 c3        1 0O5     -0.024000
     11 C27        -3.3770   -1.7470    5.7580 c3        1 0O5     -0.103000
     12 C13         0.3800    1.2640    0.4090 c1        1 0O5     -0.118000
     13 C17         1.7960    1.3230    0.3850 c1        1 0O5     -0.117500
     14 C14         2.4810    1.3570   -0.8470 c1        1 0O5     -0.117500
     15 C16        -0.3270    1.2390   -0.7720 c1        1 0O5     -0.084000
     16 C15         0.3630    1.2730   -2.0140 c1        1 0O5     -0.105000
     17 C9          1.7700    1.3320   -2.0370 c1        1 0O5     -0.017000
     18 C4          2.5180    1.1710   -3.3660 c1        1 0O5      0.048000
     19 N6          2.7520    2.4080   -3.8340 n1        1 0O5     -0.129000
     20 C2          3.5020    2.5840   -4.9790 c1        1 0O5     -0.016000
     21 C1          3.7460    4.0200   -5.4860 c2        1 0O5     -0.170000
     22 C7          3.0540    0.0110   -4.0620 c1        1 0O5     -0.085000
     23 C12         2.7300   -1.3510   -3.5910 c2        1 0O5     -0.101000
     24 C11         3.1610   -2.4110   -4.2720 c1        1 0O5     -0.135000
     25 C10         3.9140   -2.2380   -5.4220 c1        1 0O5     -0.117500
     26 C8          4.2270   -0.9410   -5.8760 c1        1 0O5     -0.117500
     27 C5          3.7780    0.1760   -5.1660 c1        1 0O5     -0.009000
     28 C3          4.0220    1.4710   -5.6560 c2        1 0O5     -0.167000
     29 H1         -0.3790   -0.6370    2.0550 hn        1 0O5      0.218000
     30 H2         -1.0500    0.2990    4.3440 h1        1 0O5      0.110000
     31 H3         -2.2390    0.7970    3.4580 h1        1 0O5      0.110000
     32 H4         -2.4640   -1.5650    2.8080 h1        1 0O5      0.075000
     33 H5         -1.6460   -1.8540    4.1460 h1        1 0O5      0.075000
     34 H7         -4.7520   -1.0390    2.9420 h1        1 0O5      0.079500
     35 H8         -4.3960   -2.5870    3.4250 h1        1 0O5      0.079500
     36 H9         -6.2210   -0.6130    4.7000 h1        1 0O5      0.094000
     37 H10        -6.6090   -2.0840    4.0060 h1        1 0O5      0.094000
     38 H11        -4.5090   -2.3230    7.3480 h1        1 0O5      0.094000
     39 H12        -4.8240   -0.9310    6.8060 h1        1 0O5      0.094000
     40 H13        -2.6940   -1.2900    6.2690 h1        1 0O5      0.079500
     41 H14        -3.1020   -2.6450    5.6080 h1        1 0O5      0.079500
     42 H15         2.3020    1.3390    1.2250 ha        1 0O5      0.139000
     43 H16         3.5080    1.4010   -0.8620 ha        1 0O5      0.139000
     44 H17        -1.3370    1.1990   -0.7550 ha        1 0O5      0.158000
     45 H18        -0.1570    1.2530   -2.8830 ha        1 0O5      0.151000
     46 H19         3.4030    4.6390   -4.8600 ha        1 0O5      0.093000
     47 H20         3.2720    4.1490   -6.3880 ha        1 0O5      0.093000
     48 H21         4.7260    4.1710   -5.6010 ha        1 0O5      0.093000
     49 H22         2.1870   -1.4790   -2.7590 ha        1 0O5      0.142000
     50 H23         2.9510   -3.2940   -3.9670 ha        1 0O5      0.136000
     51 H24         4.2220   -3.0010   -5.9080 ha        1 0O5      0.139000
     52 H25         4.8060   -0.8110   -6.7660 ha        1 0O5      0.139000
     53 H26         4.5190    1.5860   -6.4060 ha        1 0O5      0.144000
@<TRIPOS>BOND
     1    1    2 1   
     2    2    3 1   
     3    3    4 1   
     4    3   29 1   
     5    4    5 1   
     6    4   30 1   
     7    4   31 1   
     8    5    6 1   
     9    5   32 1   
    10    5   33 1   
    11    6    7 1   
    12    6   11 1   
    13    7    8 1   
    14    7   34 1   
    15    7   35 1   
    16    8    9 1   
    17    8   36 1   
    18    8   37 1   
    19    9   10 1   
    20   10   11 1   
    21   10   38 1   
    22   10   39 1   
    23   11   40 1   
    24   11   41 1   
    25   12   15 1   
    26   13   14 1   
    27   13   42 1   
    28   14   43 1   
    29   15   44 1   
    30   16   17 1   
    31   16   45 1   
    32   17   18 1   
    33   18   22 1   
    34   19   20 1   
    35   20   28 1   
    36   21   46 1   
    37   21   47 1   
    38   21   48 1   
    39   22   23 1   
    40   23   24 1   
    41   23   49 1   
    42   24   50 1   
    43   25   26 1   
    44   25   51 1   
    45   26   52 1   
    46   27   28 1   
    47   28   53 1   
@<TRIPOS>SUBSTRUCTURE
     1 0O5         1 TEMP              0 ****  ****    0 ROOT
