@<TRIPOS>MOLECULE
0O7
   41    35     1     0     0
SMALL
bcc


@<TRIPOS>ATOM
      1 C1         -3.6330    2.1370   -4.0080 c3        1 0O7     -0.207000
      2 C2         -4.2450    2.3740   -2.6220 c3        1 0O7     -0.125000
      3 C3         -3.1810    2.1250   -1.5430 c1        1 0O7     -0.065000
      4 C4         -2.9700    0.8370   -1.0600 c1        1 0O7     -0.122000
      5 C5         -1.9470    0.5940   -0.1470 c1        1 0O7     -0.122000
      6 C6         -1.1340    1.6400    0.2820 c1        1 0O7     -0.040000
      7 C7         -1.3460    2.9290   -0.2020 c1        1 0O7     -0.117000
      8 C8         -2.3690    3.1710   -1.1140 c1        1 0O7     -0.128000
      9 C9          0.0810    1.3470    1.1690 c2        1 0O7     -0.070000
     10 C10         0.8680    1.4340   -0.0240 c1        1 0O7     -0.072000
     11 C11         1.8100    0.4280   -0.3240 c1        1 0O7     -0.176000
     12 C12         1.9770   -0.6520    0.5410 c1        1 0O7      0.134000
     13 N13         2.7610   -1.7930    0.1010 n2        1 0O7     -0.751000
     14 C14         3.0110   -1.9980   -1.3000 c3        1 0O7     -0.090000
     15 S15         3.2480   -2.8310    1.1310 s4        1 0O7      2.121800
     16 O16         4.6840   -2.7470    1.2100 o         1 0O7     -0.542900
     17 O17         2.8800   -4.1440    0.6670 o         1 0O7     -0.542900
     18 C18         2.5810   -2.6270    2.6640 c1        1 0O7     -0.967000
     19 C19         2.7410   -3.3500    3.8250 c1        1 0O7      0.048500
     20 N20         1.7870   -2.9490    4.7040 n2        1 0O7     -0.110000
     21 N22         1.0270   -1.9740    4.0940 n2        1 0O7     -0.110000
     22 C23         1.5200   -1.7800    2.8370 c1        1 0O7      0.048500
     23 C24         1.1760   -0.7400    1.7550 c1        1 0O7     -0.089000
     24 C25         0.2470    0.2550    2.0480 c2        1 0O7     -0.049000
     25 H1         -4.3510    1.9600   -4.6580 hc        1 0O7      0.075667
     26 H2         -3.0270    1.3660   -3.9710 hc        1 0O7      0.075667
     27 H3         -3.1310    2.9360   -4.2850 hc        1 0O7      0.075667
     28 H4         -4.5640    3.3010   -2.5590 hc        1 0O7      0.087000
     29 H5         -4.9990    1.7580   -2.4870 hc        1 0O7      0.087000
     30 H6         -3.5430    0.1000   -1.3620 ha        1 0O7      0.134500
     31 H7         -1.7990   -0.3130    0.1930 ha        1 0O7      0.134500
     32 H8         -0.7720    3.6680    0.1010 ha        1 0O7      0.134000
     33 H9         -2.5170    4.0800   -1.4550 ha        1 0O7      0.133000
     34 H10         0.7880    2.2190   -0.6060 ha        1 0O7      0.141000
     35 H11         2.3480    0.4890   -1.1420 ha        1 0O7      0.143000
     36 H12         3.4290   -2.8770   -1.4330 h1        1 0O7      0.095667
     37 H13         3.6130   -1.2940   -1.6320 h1        1 0O7      0.095667
     38 H14         2.1610   -1.9610   -1.7940 h1        1 0O7      0.095667
     39 H15         3.4250   -4.0350    3.9890 DU        1 0O7      0.239500
     40 H16         1.6620   -3.2770    5.5520 DU        1 0O7      0.239500
     41 H17        -0.2990    0.1930    2.8620 ha        1 0O7      0.155000
@<TRIPOS>BOND
     1    1    2 1   
     2    1   25 1   
     3    1   26 1   
     4    1   27 1   
     5    2    3 1   
     6    2   28 1   
     7    2   29 1   
     8    3    8 1   
     9    4    5 1   
    10    4   30 1   
    11    5   31 1   
    12    6    7 1   
    13    6    9 1   
    14    7   32 1   
    15    8   33 1   
    16    9   10 1   
    17    9   24 1   
    18   10   34 1   
    19   11   12 1   
    20   11   35 1   
    21   12   23 1   
    22   13   14 1   
    23   13   15 1   
    24   14   36 1   
    25   14   37 1   
    26   14   38 1   
    27   15   16 1   
    28   15   17 1   
    29   18   19 1   
    30   18   22 1   
    31   19   20 1   
    32   20   21 1   
    33   21   22 1   
    34   23   24 1   
    35   24   41 1   
@<TRIPOS>SUBSTRUCTURE
     1 0O7         1 TEMP              0 ****  ****    0 ROOT
