@<TRIPOS>MOLECULE
0O7
   41    44     1     0     0
SMALL
bcc


@<TRIPOS>ATOM
      1 C1          7.5270    0.8010    1.2400 c3        1 0O7     -0.090100
      2 C2          7.0500    0.3810   -0.1300 c3        1 0O7     -0.039100
      3 C3          5.5830    0.1300   -0.1590 ca        1 0O7     -0.072300
      4 C4          5.0490   -1.0040    0.4640 ca        1 0O7     -0.127500
      5 C5          3.6800   -1.2500    0.4340 ca        1 0O7     -0.117000
      6 C6          2.8130   -0.3630   -0.2210 cp        1 0O7     -0.040000
      7 C7          3.3480    0.7730   -0.8440 ca        1 0O7     -0.117000
      8 C8          4.7190    1.0150   -0.8140 ca        1 0O7     -0.127500
      9 C9          1.3760   -0.6210   -0.2540 cp        1 0O7     -0.070000
     10 C10         0.8850   -1.9200   -0.4410 ca        1 0O7     -0.072000
     11 C11        -0.4780   -2.1740   -0.4750 ca        1 0O7     -0.176000
     12 C12        -1.4200   -1.1290   -0.3210 ca        1 0O7      0.215600
     13 N13        -2.7990   -1.3850   -0.3620 nh        1 0O7     -0.654900
     14 C14        -3.2240   -2.6000   -1.0050 c3        1 0O7      0.186100
     15 S15        -3.9760   -0.4270    0.3240 sy        1 0O7      1.566200
     16 O16        -5.1400   -0.4750   -0.4660 o         1 0O7     -0.655300
     17 O17        -4.1790   -0.7970    1.6590 o         1 0O7     -0.655300
     18 C18        -3.2830    1.0530    0.2310 cc        1 0O7     -0.587800
     19 C19        -3.8270    2.3510    0.3230 cd        1 0O7      0.029700
     20 N20        -2.7730    3.2340    0.1890 na        1 0O7      0.002400
     21 N22        -1.5940    2.6200    0.0130 nd        1 0O7     -0.510800
     22 C23        -1.8530    1.2840    0.0310 cc        1 0O7      0.478800
     23 C24        -0.9170    0.1910   -0.1320 ca        1 0O7     -0.196500
     24 C25         0.4610    0.4240   -0.0990 ca        1 0O7     -0.049000
     25 H1          7.0400    1.7560    1.5520 hc        1 0O7      0.036700
     26 H2          7.2800    0.0180    1.9980 hc        1 0O7      0.036700
     27 H3          8.6330    0.9520    1.2310 hc        1 0O7      0.036700
     28 H4          7.3160    1.1770   -0.8760 hc        1 0O7      0.047700
     29 H5          7.5880   -0.5560   -0.4410 hc        1 0O7      0.047700
     30 H6          5.7210   -1.7040    0.9840 ha        1 0O7      0.133000
     31 H7          3.2730   -2.1420    0.9350 ha        1 0O7      0.135000
     32 H8          2.6800    1.4740   -1.3670 ha        1 0O7      0.135000
     33 H9          5.1240    1.9090   -1.3100 ha        1 0O7      0.133000
     34 H10         1.5930   -2.7560   -0.5660 ha        1 0O7      0.141000
     35 H11        -0.8180   -3.2110   -0.6180 ha        1 0O7      0.143000
     36 H12        -3.0500   -3.4870   -0.3370 h1        1 0O7      0.056367
     37 H13        -4.3220   -2.5310   -1.2420 h1        1 0O7      0.056367
     38 H14        -2.6660   -2.7600   -1.9670 h1        1 0O7      0.056367
     39 H15        -4.8620    2.6720    0.4670 h4        1 0O7      0.197000
     40 H16        -2.8090    4.2280    0.2110 hn        1 0O7      0.331700
     41 H17         0.8340    1.4500    0.0580 ha        1 0O7      0.155000
@<TRIPOS>BOND
     1    1    2 1   
     2    1   25 1   
     3    1   26 1   
     4    1   27 1   
     5    2    3 1   
     6    2   28 1   
     7    2   29 1   
     8    3    4 ar  
     9    3    8 ar  
    10    4    5 ar  
    11    4   30 1   
    12    5    6 ar  
    13    5   31 1   
    14    6    7 ar  
    15    6    9 1   
    16    7    8 ar  
    17    7   32 1   
    18    8   33 1   
    19    9   10 ar  
    20    9   24 ar  
    21   10   11 ar  
    22   10   34 1   
    23   11   12 ar  
    24   11   35 1   
    25   12   13 1   
    26   12   23 ar  
    27   13   14 1   
    28   13   15 1   
    29   14   36 1   
    30   14   37 1   
    31   14   38 1   
    32   15   16 2   
    33   15   17 2   
    34   15   18 1   
    35   18   19 2   
    36   18   22 1   
    37   19   20 1   
    38   19   39 1   
    39   20   21 1   
    40   20   40 1   
    41   21   22 2   
    42   22   23 1   
    43   23   24 ar  
    44   24   41 1   
@<TRIPOS>SUBSTRUCTURE
     1 0O7         1 TEMP              0 ****  ****    0 ROOT
