@<TRIPOS>MOLECULE
0O7
   41    44     1     0     0
SMALL
bcc


@<TRIPOS>ATOM
      1 C1          0.0110   -0.2300   -0.0610 c3        1 0O7     -0.090100
      2 C2          1.4910    0.0660   -0.0040 c3        1 0O7     -0.039100
      3 C3          2.0110    0.0490    1.3900 ca        1 0O7     -0.072300
      4 C4          1.6850    1.0820    2.2770 ca        1 0O7     -0.127500
      5 C5          2.1750    1.0780    3.5790 ca        1 0O7     -0.117000
      6 C6          3.0030    0.0360    4.0240 cp        1 0O7     -0.040000
      7 C7          3.3280   -0.9980    3.1350 ca        1 0O7     -0.117000
      8 C8          2.8380   -0.9900    1.8320 ca        1 0O7     -0.127500
      9 C9          3.5180    0.0300    5.3900 cp        1 0O7     -0.070000
     10 C10         3.9550    1.2170    5.9950 ca        1 0O7     -0.072000
     11 C11         4.4470    1.2200    7.2930 ca        1 0O7     -0.176000
     12 C12         4.5230    0.0280    8.0490 ca        1 0O7      0.215600
     13 N13         5.0270    0.0300    9.3580 nh        1 0O7     -0.654900
     14 C14         5.8660    1.1360    9.7380 c3        1 0O7      0.186100
     15 S15         4.6840   -1.1090   10.5240 sy        1 0O7      1.566200
     16 O16         5.8090   -1.2870   11.3520 o         1 0O7     -0.655300
     17 O17         3.5200   -0.7540   11.2150 o         1 0O7     -0.655300
     18 C18         4.4330   -2.4420    9.6080 cc        1 0O7     -0.587800
     19 C19         4.4200   -3.8140    9.9330 cd        1 0O7      0.029700
     20 N20         4.1380   -4.4970    8.7650 na        1 0O7      0.002400
     21 N22         3.9710   -3.6850    7.7110 nd        1 0O7     -0.510800
     22 C23         4.1420   -2.4170    8.1750 cc        1 0O7      0.478800
     23 C24         4.0790   -1.1770    7.4290 ca        1 0O7     -0.196500
     24 C25         3.5850   -1.1590    6.1220 ca        1 0O7     -0.049000
     25 H1         -0.3490   -0.1800   -1.1170 hc        1 0O7      0.036700
     26 H2         -0.2040   -1.2500    0.3400 hc        1 0O7      0.036700
     27 H3         -0.5610    0.5130    0.5460 hc        1 0O7      0.036700
     28 H4          2.0440   -0.6860   -0.6280 hc        1 0O7      0.047700
     29 H5          1.6860    1.0770   -0.4550 hc        1 0O7      0.047700
     30 H6          1.0340    1.9020    1.9390 ha        1 0O7      0.133000
     31 H7          1.9050    1.8920    4.2690 ha        1 0O7      0.135000
     32 H8          3.9820   -1.8190    3.4690 ha        1 0O7      0.135000
     33 H9          3.1050   -1.8070    1.1450 ha        1 0O7      0.133000
     34 H10         3.9100    2.1630    5.4320 ha        1 0O7      0.141000
     35 H11         4.7730    2.1770    7.7300 ha        1 0O7      0.143000
     36 H12         5.2490    2.0530    9.9420 h1        1 0O7      0.056367
     37 H13         6.6060    1.3740    8.9270 h1        1 0O7      0.056367
     38 H14         6.4380    0.8660   10.6690 h1        1 0O7      0.056367
     39 H15         4.5940   -4.3140   10.8900 h4        1 0O7      0.197000
     40 H16         4.0500   -5.4810    8.6450 hn        1 0O7      0.331700
     41 H17         3.2360   -2.0970    5.6600 ha        1 0O7      0.155000
@<TRIPOS>BOND
     1    1    2 1   
     2    1   25 1   
     3    1   26 1   
     4    1   27 1   
     5    2    3 1   
     6    2   28 1   
     7    2   29 1   
     8    3    4 ar  
     9    3    8 ar  
    10    4    5 ar  
    11    4   30 1   
    12    5    6 ar  
    13    5   31 1   
    14    6    7 ar  
    15    6    9 1   
    16    7    8 ar  
    17    7   32 1   
    18    8   33 1   
    19    9   10 ar  
    20    9   24 ar  
    21   10   11 ar  
    22   10   34 1   
    23   11   12 ar  
    24   11   35 1   
    25   12   13 1   
    26   12   23 ar  
    27   13   14 1   
    28   13   15 1   
    29   14   36 1   
    30   14   37 1   
    31   14   38 1   
    32   15   16 2   
    33   15   17 2   
    34   15   18 1   
    35   18   19 2   
    36   18   22 1   
    37   19   20 1   
    38   19   39 1   
    39   20   21 1   
    40   20   40 1   
    41   21   22 2   
    42   22   23 1   
    43   23   24 ar  
    44   24   41 1   
@<TRIPOS>SUBSTRUCTURE
     1 0O7         1 TEMP              0 ****  ****    0 ROOT
