@<TRIPOS>MOLECULE
0O7
   41    44     1     0     0
SMALL
bcc


@<TRIPOS>ATOM
      1 C1          0.0150   -0.2330   -0.0640 c3        1 0O7     -0.090100
      2 C2          1.4940    0.0700   -0.0050 c3        1 0O7     -0.039100
      3 C3          2.0130    0.0520    1.3900 ca        1 0O7     -0.072300
      4 C4          1.6820    1.0820    2.2790 ca        1 0O7     -0.127500
      5 C5          2.1710    1.0770    3.5820 ca        1 0O7     -0.117000
      6 C6          3.0020    0.0380    4.0240 cp        1 0O7     -0.040000
      7 C7          3.3320   -0.9940    3.1350 ca        1 0O7     -0.117000
      8 C8          2.8430   -0.9840    1.8310 ca        1 0O7     -0.127500
      9 C9          3.5160    0.0320    5.3910 cp        1 0O7     -0.070000
     10 C10         3.9480    1.2180    5.9990 ca        1 0O7     -0.072000
     11 C11         4.4390    1.2210    7.2970 ca        1 0O7     -0.176000
     12 C12         4.5190    0.0270    8.0510 ca        1 0O7      0.215600
     13 N13         5.0220    0.0290    9.3610 nh        1 0O7     -0.654900
     14 C14         5.8570    1.1370    9.7430 c3        1 0O7      0.186100
     15 S15         4.6830   -1.1130   10.5240 sy        1 0O7      1.566200
     16 O16         5.8070   -1.2890   11.3520 o         1 0O7     -0.655300
     17 O17         3.5170   -0.7640   11.2160 o         1 0O7     -0.655300
     18 C18         4.4370   -2.4460    9.6050 cc        1 0O7     -0.587800
     19 C19         4.4280   -3.8190    9.9280 cd        1 0O7      0.029700
     20 N20         4.1480   -4.5000    8.7590 na        1 0O7      0.002400
     21 N22         3.9790   -3.6870    7.7060 nd        1 0O7     -0.510800
     22 C23         4.1460   -2.4190    8.1720 cc        1 0O7      0.478800
     23 C24         4.0800   -1.1780    7.4290 ca        1 0O7     -0.196500
     24 C25         3.5860   -1.1590    6.1210 ca        1 0O7     -0.049000
     25 H1         -0.3440   -0.1830   -1.1200 hc        1 0O7      0.036700
     26 H2         -0.1950   -1.2540    0.3350 hc        1 0O7      0.036700
     27 H3         -0.5610    0.5060    0.5440 hc        1 0O7      0.036700
     28 H4          2.0510   -0.6780   -0.6300 hc        1 0O7      0.047700
     29 H5          1.6840    1.0830   -0.4530 hc        1 0O7      0.047700
     30 H6          1.0280    1.9010    1.9420 ha        1 0O7      0.133000
     31 H7          1.8970    1.8890    4.2720 ha        1 0O7      0.135000
     32 H8          3.9880   -1.8120    3.4670 ha        1 0O7      0.135000
     33 H9          3.1130   -1.7990    1.1430 ha        1 0O7      0.133000
     34 H10         3.9000    2.1650    5.4380 ha        1 0O7      0.141000
     35 H11         4.7610    2.1780    7.7360 ha        1 0O7      0.143000
     36 H12         5.2370    2.0520    9.9480 h1        1 0O7      0.056367
     37 H13         6.5960    1.3790    8.9330 h1        1 0O7      0.056367
     38 H14         6.4300    0.8680   10.6730 h1        1 0O7      0.056367
     39 H15         4.6030   -4.3190   10.8840 h4        1 0O7      0.197000
     40 H16         4.0640   -5.4840    8.6360 hn        1 0O7      0.331700
     41 H17         3.2410   -2.0980    5.6570 ha        1 0O7      0.155000
@<TRIPOS>BOND
     1    1    2 1   
     2    1   25 1   
     3    1   26 1   
     4    1   27 1   
     5    2    3 1   
     6    2   28 1   
     7    2   29 1   
     8    3    4 ar  
     9    3    8 ar  
    10    4    5 ar  
    11    4   30 1   
    12    5    6 ar  
    13    5   31 1   
    14    6    7 ar  
    15    6    9 1   
    16    7    8 ar  
    17    7   32 1   
    18    8   33 1   
    19    9   10 ar  
    20    9   24 ar  
    21   10   11 ar  
    22   10   34 1   
    23   11   12 ar  
    24   11   35 1   
    25   12   13 1   
    26   12   23 ar  
    27   13   14 1   
    28   13   15 1   
    29   14   36 1   
    30   14   37 1   
    31   14   38 1   
    32   15   16 2   
    33   15   17 2   
    34   15   18 1   
    35   18   19 2   
    36   18   22 1   
    37   19   20 1   
    38   19   39 1   
    39   20   21 1   
    40   20   40 1   
    41   21   22 2   
    42   22   23 1   
    43   23   24 ar  
    44   24   41 1   
@<TRIPOS>SUBSTRUCTURE
     1 0O7         1 TEMP              0 ****  ****    0 ROOT
