@<TRIPOS>MOLECULE
0O7
   41    44     1     0     0
SMALL
bcc


@<TRIPOS>ATOM
      1 C1          0.0110   -0.2250   -0.0600 c3        1 0O7     -0.090100
      2 C2          1.4900    0.0730   -0.0030 c3        1 0O7     -0.039100
      3 C3          2.0110    0.0540    1.3910 ca        1 0O7     -0.072300
      4 C4          1.6850    1.0870    2.2800 ca        1 0O7     -0.127500
      5 C5          2.1750    1.0810    3.5820 ca        1 0O7     -0.117000
      6 C6          3.0020    0.0380    4.0240 cp        1 0O7     -0.040000
      7 C7          3.3280   -0.9950    3.1350 ca        1 0O7     -0.117000
      8 C8          2.8370   -0.9850    1.8310 ca        1 0O7     -0.127500
      9 C9          3.5180    0.0310    5.3910 cp        1 0O7     -0.070000
     10 C10         3.9550    1.2160    5.9970 ca        1 0O7     -0.072000
     11 C11         4.4480    1.2180    7.2940 ca        1 0O7     -0.176000
     12 C12         4.5240    0.0250    8.0490 ca        1 0O7      0.215600
     13 N13         5.0280    0.0260    9.3580 nh        1 0O7     -0.654900
     14 C14         5.8680    1.1300    9.7390 c3        1 0O7      0.186100
     15 S15         4.6860   -1.1140   10.5230 sy        1 0O7      1.566200
     16 O16         5.8100   -1.2940   11.3500 o         1 0O7     -0.655300
     17 O17         3.5220   -0.7600   11.2160 o         1 0O7     -0.655300
     18 C18         4.4330   -2.4460    9.6060 cc        1 0O7     -0.587800
     19 C19         4.4190   -3.8190    9.9290 cd        1 0O7      0.029700
     20 N20         4.1360   -4.5000    8.7610 na        1 0O7      0.002400
     21 N22         3.9690   -3.6870    7.7080 nd        1 0O7     -0.510800
     22 C23         4.1410   -2.4200    8.1730 cc        1 0O7      0.478800
     23 C24         4.0790   -1.1790    7.4280 ca        1 0O7     -0.196500
     24 C25         3.5840   -1.1590    6.1210 ca        1 0O7     -0.049000
     25 H1         -0.2020   -1.2460    0.3380 hc        1 0O7      0.036700
     26 H2         -0.3490   -0.1740   -1.1160 hc        1 0O7      0.036700
     27 H3         -0.5630    0.5150    0.5480 hc        1 0O7      0.036700
     28 H4          2.0450   -0.6760   -0.6290 hc        1 0O7      0.047700
     29 H5          1.6830    1.0850   -0.4520 hc        1 0O7      0.047700
     30 H6          1.0330    1.9070    1.9430 ha        1 0O7      0.133000
     31 H7          1.9050    1.8940    4.2720 ha        1 0O7      0.135000
     32 H8          3.9810   -1.8160    3.4670 ha        1 0O7      0.135000
     33 H9          3.1040   -1.8010    1.1440 ha        1 0O7      0.133000
     34 H10         3.9110    2.1630    5.4350 ha        1 0O7      0.141000
     35 H11         4.7750    2.1740    7.7320 ha        1 0O7      0.143000
     36 H12         5.2520    2.0480    9.9440 h1        1 0O7      0.056367
     37 H13         6.4410    0.8590   10.6690 h1        1 0O7      0.056367
     38 H14         6.6070    1.3690    8.9280 h1        1 0O7      0.056367
     39 H15         4.5930   -4.3200   10.8860 h4        1 0O7      0.197000
     40 H16         4.0470   -5.4840    8.6390 hn        1 0O7      0.331700
     41 H17         3.2350   -2.0970    5.6590 ha        1 0O7      0.155000
@<TRIPOS>BOND
     1    1    2 1   
     2    1   25 1   
     3    1   26 1   
     4    1   27 1   
     5    2    3 1   
     6    2   28 1   
     7    2   29 1   
     8    3    4 ar  
     9    3    8 ar  
    10    4    5 ar  
    11    4   30 1   
    12    5    6 ar  
    13    5   31 1   
    14    6    7 ar  
    15    6    9 1   
    16    7    8 ar  
    17    7   32 1   
    18    8   33 1   
    19    9   10 ar  
    20    9   24 ar  
    21   10   11 ar  
    22   10   34 1   
    23   11   12 ar  
    24   11   35 1   
    25   12   13 1   
    26   12   23 ar  
    27   13   14 1   
    28   13   15 1   
    29   14   36 1   
    30   14   37 1   
    31   14   38 1   
    32   15   16 2   
    33   15   17 2   
    34   15   18 1   
    35   18   19 2   
    36   18   22 1   
    37   19   20 1   
    38   19   39 1   
    39   20   21 1   
    40   20   40 1   
    41   21   22 2   
    42   22   23 1   
    43   23   24 ar  
    44   24   41 1   
@<TRIPOS>SUBSTRUCTURE
     1 0O7         1 TEMP              0 ****  ****    0 ROOT
