@<TRIPOS>MOLECULE
0O8
   83    83     1     0     0
SMALL
bcc


@<TRIPOS>ATOM
      1 O1         -0.7050   -1.1520   -1.1550 o         1 0O8     -0.818500
      2 P1          0.0470   -0.0700   -0.4930 p5        1 0O8      1.414800
      3 O2         -0.0540    0.3350    0.9180 o         1 0O8     -0.818500
      4 O3          0.1710    1.2340   -1.4580 os        1 0O8     -0.557200
      5 C1          0.8370    2.3090   -0.8460 c3        1 0O8      0.168400
      6 C2          0.8170    3.5000   -1.7880 c3        1 0O8     -0.083400
      7 C3          1.5240    4.6840   -1.1670 c3        1 0O8     -0.078400
      8 O4          1.6450   -0.6140   -0.6570 os        1 0O8     -0.549200
      9 C4          1.7960   -1.9560   -0.3730 c3        1 0O8      0.226100
     10 C5          2.1520   -2.7310   -1.6490 c3        1 0O8     -0.138900
     11 C6          2.4210   -4.1900   -1.3380 c3        1 0O8      0.130300
     12 N1          3.4990   -4.3990   -0.2970 n4        1 0O8     -0.609800
     13 C7          4.8210   -3.9860   -0.8410 c3        1 0O8      0.091100
     14 C8          3.5500   -5.8430    0.0630 c3        1 0O8      0.091100
     15 C9          3.1740   -3.5960    0.9420 c3        1 0O8      0.130300
     16 C10         2.9140   -2.1280    0.6630 c3        1 0O8     -0.138900
     17 H2          1.8920    1.9870   -0.6250 h1        1 0O8      0.033700
     18 H3          0.3230    2.5480    0.1260 h1        1 0O8      0.033700
     19 H4          1.3090    3.2170   -2.7540 hc        1 0O8      0.046700
     20 H5         -0.2470    3.7630   -2.0240 hc        1 0O8      0.046700
     21 H6          0.8370   -2.3890    0.0460 h1        1 0O8      0.056700
     22 H7          1.2680   -2.6850   -2.3460 hc        1 0O8      0.092950
     23 H8          3.0170   -2.2460   -2.1660 hc        1 0O8      0.092950
     24 H9          1.4790   -4.6610   -0.9330 hx        1 0O8      0.084200
     25 H10         2.7410   -4.7410   -2.2660 hx        1 0O8      0.084200
     26 H11         5.0560   -4.5950   -1.7530 hx        1 0O8      0.091867
     27 H12         4.7850   -2.8970   -1.1180 hx        1 0O8      0.091867
     28 H13         5.6120   -4.1480   -0.0630 hx        1 0O8      0.091867
     29 H14         4.3440   -6.0070    0.8380 hx        1 0O8      0.091867
     30 H15         3.7870   -6.4470   -0.8530 hx        1 0O8      0.091867
     31 H16         2.5560   -6.1640    0.4730 hx        1 0O8      0.091867
     32 H17         4.0340   -3.7180    1.6570 hx        1 0O8      0.084200
     33 H18         2.2480   -4.0560    1.3950 hx        1 0O8      0.084200
     34 H19         2.5930   -1.6410    1.6240 hc        1 0O8      0.092950
     35 H20         3.8380   -1.6000    0.3170 hc        1 0O8      0.092950
     36 H21         2.5850    4.4070   -0.9280 hc        1 0O8      0.037700
     37 H22         1.0270    4.9530   -0.1970 hc        1 0O8      0.037700
     38 C11         1.5080    5.8800   -2.0940 c3        1 0O8     -0.078400
     39 C12         2.2160    7.0660   -1.4740 c3        1 0O8     -0.079400
     40 C13         2.1990    8.2630   -2.4010 c3        1 0O8     -0.079400
     41 C14         2.9070    9.4490   -1.7820 c3        1 0O8     -0.078400
     42 C15         2.8900   10.6450   -2.7090 c3        1 0O8     -0.079400
     43 C16         3.5980   11.8310   -2.0900 c3        1 0O8     -0.078400
     44 C17         3.5810   13.0270   -3.0170 c3        1 0O8     -0.079400
     45 C18         4.2880   14.2130   -2.3980 c3        1 0O8     -0.079400
     46 C19         4.2710   15.4100   -3.3250 c3        1 0O8     -0.079400
     47 C20         4.9790   16.5960   -2.7050 c3        1 0O8     -0.079400
     48 C21         4.9610   17.7920   -3.6330 c3        1 0O8     -0.079400
     49 C22         5.6690   18.9780   -3.0130 c3        1 0O8     -0.079400
     50 C23         5.6510   20.1750   -3.9400 c3        1 0O8     -0.079400
     51 C24         6.3580   21.3620   -3.3220 c3        1 0O8     -0.080400
     52 C25         6.3420   22.5560   -4.2410 c3        1 0O8     -0.092100
     53 H23         0.4470    6.1570   -2.3310 hc        1 0O8      0.038700
     54 H24         2.0040    5.6110   -3.0630 hc        1 0O8      0.038700
     55 H25         3.2760    6.7900   -1.2360 hc        1 0O8      0.038200
     56 H26         1.7200    7.3350   -0.5050 hc        1 0O8      0.038200
     57 H27         1.1380    8.5400   -2.6390 hc        1 0O8      0.038700
     58 H28         2.6950    7.9940   -3.3720 hc        1 0O8      0.038700
     59 H29         2.4110    9.7180   -0.8120 hc        1 0O8      0.038700
     60 H30         3.9680    9.1720   -1.5450 hc        1 0O8      0.038700
     61 H31         1.8290   10.9220   -2.9460 hc        1 0O8      0.039200
     62 H32         3.3860   10.3760   -3.6790 hc        1 0O8      0.039200
     63 H33         3.1020   12.1000   -1.1200 hc        1 0O8      0.039200
     64 H34         4.6590   11.5540   -1.8530 hc        1 0O8      0.039200
     65 H35         4.0770   12.7580   -3.9870 hc        1 0O8      0.039200
     66 H36         2.5200   13.3040   -3.2550 hc        1 0O8      0.039200
     67 H37         3.7920   14.4820   -1.4280 hc        1 0O8      0.039200
     68 H38         5.3490   13.9370   -2.1600 hc        1 0O8      0.039200
     69 H39         4.7670   15.1410   -4.2950 hc        1 0O8      0.039200
     70 H40         3.2100   15.6860   -3.5620 hc        1 0O8      0.039200
     71 H41         6.0400   16.3190   -2.4680 hc        1 0O8      0.039200
     72 H42         4.4830   16.8650   -1.7360 hc        1 0O8      0.039200
     73 H43         5.4570   17.5230   -4.6030 hc        1 0O8      0.039200
     74 H44         3.9000   18.0690   -3.8700 hc        1 0O8      0.039200
     75 H45         6.7300   18.7020   -2.7760 hc        1 0O8      0.039200
     76 H46         5.1730   19.2470   -2.0430 hc        1 0O8      0.039200
     77 H47         4.5900   20.4510   -4.1770 hc        1 0O8      0.039700
     78 H48         6.1460   19.9060   -4.9100 hc        1 0O8      0.039700
     79 H49         7.4190   21.0830   -3.0850 hc        1 0O8      0.038200
     80 H50         5.8630   21.6270   -2.3500 hc        1 0O8      0.038200
     81 H51         5.2930   22.8640   -4.4680 hc        1 0O8      0.032367
     82 H52         6.8680   23.4190   -3.7660 hc        1 0O8      0.032367
     83 H53         6.8530   22.3180   -5.2050 hc        1 0O8      0.032367
@<TRIPOS>BOND
     1    1    2 1   
     2    2    3 1   
     3    2    4 1   
     4    2    8 1   
     5    4    5 1   
     6    5    6 1   
     7    5   17 1   
     8    5   18 1   
     9    6    7 1   
    10    6   19 1   
    11    6   20 1   
    12    7   36 1   
    13    7   37 1   
    14    7   38 1   
    15    8    9 1   
    16    9   10 1   
    17    9   16 1   
    18    9   21 1   
    19   10   11 1   
    20   10   22 1   
    21   10   23 1   
    22   11   12 1   
    23   11   24 1   
    24   11   25 1   
    25   12   13 1   
    26   12   14 1   
    27   12   15 1   
    28   13   26 1   
    29   13   27 1   
    30   13   28 1   
    31   14   29 1   
    32   14   30 1   
    33   14   31 1   
    34   15   16 1   
    35   15   32 1   
    36   15   33 1   
    37   16   34 1   
    38   16   35 1   
    39   38   39 1   
    40   38   53 1   
    41   38   54 1   
    42   39   40 1   
    43   39   55 1   
    44   39   56 1   
    45   40   41 1   
    46   40   57 1   
    47   40   58 1   
    48   41   42 1   
    49   41   59 1   
    50   41   60 1   
    51   42   43 1   
    52   42   61 1   
    53   42   62 1   
    54   43   44 1   
    55   43   63 1   
    56   43   64 1   
    57   44   45 1   
    58   44   65 1   
    59   44   66 1   
    60   45   46 1   
    61   45   67 1   
    62   45   68 1   
    63   46   47 1   
    64   46   69 1   
    65   46   70 1   
    66   47   48 1   
    67   47   71 1   
    68   47   72 1   
    69   48   49 1   
    70   48   73 1   
    71   48   74 1   
    72   49   50 1   
    73   49   75 1   
    74   49   76 1   
    75   50   51 1   
    76   50   77 1   
    77   50   78 1   
    78   51   52 1   
    79   51   79 1   
    80   51   80 1   
    81   52   81 1   
    82   52   82 1   
    83   52   83 1   
@<TRIPOS>SUBSTRUCTURE
     1 0O8         1 TEMP              0 ****  ****    0 ROOT
