@<TRIPOS>MOLECULE
0O8
   83    83     1     0     0
SMALL
bcc


@<TRIPOS>ATOM
      1 O1         -2.4620   -4.5660    4.6360 o         1 0O8     -0.810500
      2 P1         -2.7400   -4.1720    3.2010 p5        1 0O8      1.420800
      3 O2         -3.4390   -5.2960    2.4990 o         1 0O8     -0.810500
      4 O3         -1.3410   -3.8530    2.4480 os        1 0O8     -0.563200
      5 C1         -0.4930   -4.9640    2.0570 c3        1 0O8      0.175400
      6 C2          0.8980   -4.4180    1.5970 c3        1 0O8     -0.099400
      7 C3          1.1770   -4.8730    0.1410 c3        1 0O8     -0.081400
      8 O4         -3.6800   -2.8520    3.1770 os        1 0O8     -0.585200
      9 C4         -5.1430   -3.0290    3.0990 c3        1 0O8      0.198100
     10 C5         -5.7160   -2.8570    4.4350 c3        1 0O8     -0.124900
     11 C6         -5.6220   -1.4250    4.9240 c3        1 0O8      0.131300
     12 N1         -6.1630   -0.4570    3.9490 n4        1 0O8     -0.602800
     13 C7         -5.8850    0.8510    4.3980 c3        1 0O8      0.092100
     14 C8         -7.6030   -0.6300    3.8660 c3        1 0O8      0.092100
     15 C9         -5.5950   -0.6260    2.6240 c3        1 0O8      0.131300
     16 C10        -5.6880   -2.0570    2.1270 c3        1 0O8     -0.124900
     17 H2         -0.9110   -5.4480    1.3240 h1        1 0O8      0.043200
     18 H3         -0.3710   -5.5700    2.8230 h1        1 0O8      0.043200
     19 H4          1.5970   -4.7680    2.1870 hc        1 0O8      0.034700
     20 H5          0.8950   -3.4460    1.6390 hc        1 0O8      0.034700
     21 H6         -5.3420   -3.9510    2.7790 h1        1 0O8      0.102700
     22 H7         -6.6560   -3.1230    4.4130 hc        1 0O8      0.076450
     23 H8         -5.2330   -3.4420    5.0670 hc        1 0O8      0.076450
     24 H9         -4.6830   -1.2110    5.0900 hx        1 0O8      0.099200
     25 H10        -6.1290   -1.3400    5.7790 hx        1 0O8      0.099200
     26 H11        -4.9340    0.9230    4.6270 hx        1 0O8      0.088867
     27 H12        -6.4270    1.0480    5.1880 hx        1 0O8      0.088867
     28 H13        -6.1010    1.4960    3.6800 hx        1 0O8      0.088867
     29 H14        -7.9660   -0.0500    3.1340 hx        1 0O8      0.088867
     30 H15        -7.8080   -1.5620    3.6740 hx        1 0O8      0.088867
     31 H16        -8.0140   -0.3740    4.7220 hx        1 0O8      0.088867
     32 H17        -4.6690   -0.3650    2.6490 hx        1 0O8      0.099200
     33 H18        -6.0760   -0.0350    1.9920 hx        1 0O8      0.099200
     34 H19        -6.6330   -2.2740    1.9560 hc        1 0O8      0.076450
     35 H20        -5.1910   -2.1340    1.2960 hc        1 0O8      0.076450
     36 H21         0.4620   -4.5620   -0.4370 hc        1 0O8      0.042200
     37 H22         1.2220   -5.8510    0.1080 hc        1 0O8      0.042200
     38 C11         2.5250   -4.2800   -0.3370 c3        1 0O8     -0.075400
     39 C12         2.5810   -4.2960   -1.8760 c3        1 0O8     -0.079400
     40 C13         3.4450   -3.1020   -2.3760 c3        1 0O8     -0.078400
     41 C14         2.8080   -2.5020   -3.6220 c3        1 0O8     -0.077400
     42 C15         3.7360   -1.3550   -4.1880 c3        1 0O8     -0.080400
     43 C16         2.8380   -0.2400   -4.8860 c3        1 0O8     -0.076400
     44 C17         3.6730    1.0940   -5.0370 c3        1 0O8     -0.078400
     45 C18         2.7550    2.3140   -4.7790 c3        1 0O8     -0.078400
     46 C19         3.6180    3.5530   -4.5070 c3        1 0O8     -0.079400
     47 C20         2.7930    4.5920   -3.7390 c3        1 0O8     -0.078400
     48 C21         3.7330    5.4610   -2.8780 c3        1 0O8     -0.079400
     49 C22         2.9140    6.1910   -1.7950 c3        1 0O8     -0.078400
     50 C23         3.8250    6.5110   -0.5850 c3        1 0O8     -0.079400
     51 C24         2.9700    7.0890    0.5650 c3        1 0O8     -0.080400
     52 C25         3.7370    6.9500    1.8960 c3        1 0O8     -0.093100
     53 H23         3.2570   -4.8140    0.0190 hc        1 0O8      0.032200
     54 H24         2.6070   -3.3600   -0.0190 hc        1 0O8      0.032200
     55 H25         2.9860   -5.1490   -2.1820 hc        1 0O8      0.041700
     56 H26         1.6750   -4.2160   -2.2380 hc        1 0O8      0.041700
     57 H27         3.4970   -2.4240   -1.6790 hc        1 0O8      0.039200
     58 H28         4.3490   -3.4200   -2.5910 hc        1 0O8      0.039200
     59 H29         2.6970   -3.2040   -4.3060 hc        1 0O8      0.036700
     60 H30         1.9310   -2.1290   -3.3930 hc        1 0O8      0.036700
     61 H31         4.3580   -1.7330   -4.8450 hc        1 0O8      0.041200
     62 H32         4.2480   -0.9500   -3.4450 hc        1 0O8      0.041200
     63 H33         2.5610   -0.5530   -5.7730 hc        1 0O8      0.036200
     64 H34         2.0500   -0.0700   -4.3410 hc        1 0O8      0.036200
     65 H35         4.0420    1.1500   -5.9500 hc        1 0O8      0.040700
     66 H36         4.3990    1.0950   -4.3940 hc        1 0O8      0.040700
     67 H37         2.1880    2.1370   -4.0050 hc        1 0O8      0.038200
     68 H38         2.1950    2.4730   -5.5640 hc        1 0O8      0.038200
     69 H39         3.9170    3.9370   -5.3600 hc        1 0O8      0.040200
     70 H40         4.3980    3.2970   -3.9740 hc        1 0O8      0.040200
     71 H41         2.3100    5.1640   -4.3760 hc        1 0O8      0.038200
     72 H42         2.1500    4.1350   -3.1590 hc        1 0O8      0.038200
     73 H43         4.1800    6.1190   -3.4480 hc        1 0O8      0.040200
     74 H44         4.4080    4.8860   -2.4490 hc        1 0O8      0.040200
     75 H45         2.5510    7.0370   -2.1690 hc        1 0O8      0.038700
     76 H46         2.1670    5.6140   -1.5010 hc        1 0O8      0.038700
     77 H47         4.2700    5.6860   -0.2820 hc        1 0O8      0.040200
     78 H48         4.5130    7.1790   -0.8550 hc        1 0O8      0.040200
     79 H49         2.1180    6.5930    0.6220 hc        1 0O8      0.038200
     80 H50         2.7850    8.0400    0.3910 hc        1 0O8      0.038200
     81 H51         4.5850    7.4540    1.8420 hc        1 0O8      0.033033
     82 H52         3.1890    7.3080    2.6280 hc        1 0O8      0.033033
     83 H53         3.9300    5.9990    2.0660 hc        1 0O8      0.033033
@<TRIPOS>BOND
     1    1    2 1   
     2    2    3 1   
     3    2    4 1   
     4    2    8 1   
     5    4    5 1   
     6    5    6 1   
     7    5   17 1   
     8    5   18 1   
     9    6    7 1   
    10    6   19 1   
    11    6   20 1   
    12    7   36 1   
    13    7   37 1   
    14    7   38 1   
    15    8    9 1   
    16    9   10 1   
    17    9   16 1   
    18    9   21 1   
    19   10   11 1   
    20   10   22 1   
    21   10   23 1   
    22   11   12 1   
    23   11   24 1   
    24   11   25 1   
    25   12   13 1   
    26   12   14 1   
    27   12   15 1   
    28   13   26 1   
    29   13   27 1   
    30   13   28 1   
    31   14   29 1   
    32   14   30 1   
    33   14   31 1   
    34   15   16 1   
    35   15   32 1   
    36   15   33 1   
    37   16   34 1   
    38   16   35 1   
    39   38   39 1   
    40   38   53 1   
    41   38   54 1   
    42   39   40 1   
    43   39   55 1   
    44   39   56 1   
    45   40   41 1   
    46   40   57 1   
    47   40   58 1   
    48   41   42 1   
    49   41   59 1   
    50   41   60 1   
    51   42   43 1   
    52   42   61 1   
    53   42   62 1   
    54   43   44 1   
    55   43   63 1   
    56   43   64 1   
    57   44   45 1   
    58   44   65 1   
    59   44   66 1   
    60   45   46 1   
    61   45   67 1   
    62   45   68 1   
    63   46   47 1   
    64   46   69 1   
    65   46   70 1   
    66   47   48 1   
    67   47   71 1   
    68   47   72 1   
    69   48   49 1   
    70   48   73 1   
    71   48   74 1   
    72   49   50 1   
    73   49   75 1   
    74   49   76 1   
    75   50   51 1   
    76   50   77 1   
    77   50   78 1   
    78   51   52 1   
    79   51   79 1   
    80   51   80 1   
    81   52   81 1   
    82   52   82 1   
    83   52   83 1   
@<TRIPOS>SUBSTRUCTURE
     1 0O8         1 TEMP              0 ****  ****    0 ROOT
