@<TRIPOS>MOLECULE
0O8
   83    73     1     0     0
SMALL
bcc


@<TRIPOS>ATOM
      1 O1          0.1050   -1.5640    1.2410 o         1 0O8     -0.818000
      2 P1          0.7310   -0.2290    1.2120 p5        1 0O8      1.882000
      3 O2          1.5150    0.3980    2.2880 o         1 0O8     -0.818000
      4 O3         -0.2460    0.8640    0.5070 os        1 0O8     -0.719000
      5 C1          0.3010    2.1570    0.4890 c3        1 0O8      0.018000
      6 C2         -0.7140    3.1130   -0.1120 c3        1 0O8     -0.162000
      7 C3         -0.1540    4.5170   -0.1670 c3        1 0O8     -0.158000
      8 O4          1.8310   -0.3910   -0.0670 os        1 0O8     -0.711000
      9 C4          2.5240   -1.5830   -0.0470 c3        1 0O8      0.114000
     10 C5          2.1080   -2.4580   -1.2380 c3        1 0O8     -0.217500
     11 C6          2.9330   -3.7280   -1.2930 c3        1 0O8     -0.106500
     12 N1          4.4250   -3.4790   -1.3390 n4        1 0O8      0.023000
     13 C7          4.7990   -2.8520   -2.6360 c3        1 0O8     -0.185000
     14 C8          5.1370   -4.7800   -1.2040 c3        1 0O8     -0.185000
     15 C9          4.8280   -2.5790   -0.1930 c3        1 0O8     -0.106500
     16 C10         4.0290   -1.2920   -0.1220 c3        1 0O8     -0.217500
     17 H2          0.5660    2.4530    1.5430 h1        1 0O8      0.073000
     18 H3          1.2440    2.1310   -0.1240 h1        1 0O8      0.073000
     19 H4         -0.9870    2.7630   -1.1410 hc        1 0O8      0.086500
     20 H5         -1.6500    3.0920    0.5030 hc        1 0O8      0.086500
     21 H6          2.3080   -2.1590    0.9050 h1        1 0O8      0.097000
     22 H7          1.0300   -2.7530   -1.0970 hc        1 0O8      0.132000
     23 H8          2.1770   -1.8710   -2.1880 hc        1 0O8      0.132000
     24 H9          2.7320   -4.3390   -0.3660 hx        1 0O8      0.123500
     25 H10         2.6680   -4.3350   -2.2010 hx        1 0O8      0.123500
     26 H11         4.2600   -1.8720   -2.7440 hx        1 0O8      0.131167
     27 H12         5.9060   -2.6760   -2.6610 hx        1 0O8      0.131167
     28 H13         4.5050   -3.5330   -3.4770 hx        1 0O8      0.131167
     29 H14         4.8410   -5.4560   -2.0490 hx        1 0O8      0.131167
     30 H15         6.2440   -4.6050   -1.2320 hx        1 0O8      0.131167
     31 H16         4.8600   -5.2610   -0.2290 hx        1 0O8      0.131167
     32 H17         4.6670   -3.1670    0.7560 hx        1 0O8      0.123500
     33 H18         5.9250   -2.3580   -0.3080 hx        1 0O8      0.123500
     34 H19         4.2420   -0.6200   -0.9910 hc        1 0O8      0.132000
     35 H20         4.3360   -0.7400    0.8080 hc        1 0O8      0.132000
     36 H21         0.1200    4.8540    0.8670 hc        1 0O8      0.077000
     37 H22         0.7880    4.5240   -0.7770 hc        1 0O8      0.077000
     38 C11        -1.1520    5.4850   -0.7670 c3        1 0O8     -0.158000
     39 C12        -0.5950    6.8830   -0.8350 c3        1 0O8     -0.215000
     40 C13         2.9790    9.8120   -1.3450 c1        1 0O8      0.117000
     41 C14         2.5940    8.9360   -0.4530 c2        1 0O8     -0.530000
     42 C15         0.7810    9.8310   -2.6530 c1        1 0O8     -0.227250
     43 C16         1.4130   10.8280   -2.8680 c1        1 0O8     -0.227250
     44 C17         4.6610   12.2960   -2.9690 c1        1 0O8     -0.227250
     45 C18         5.2100   13.2090   -3.5150 c1        1 0O8     -0.227250
     46 C19         8.3820   15.9110   -6.6650 c1        1 0O8     -0.148000
     47 C20         7.5500   16.0340   -5.7880 c1        1 0O8     -0.172000
     48 C21         6.6110   15.9730   -4.8230 c1        1 0O8     -0.020000
     49 C22         6.0000   17.0250   -4.0640 c3        1 0O8     -0.232000
     50 C23         6.9870   20.5750   -3.4870 c2        1 0O8     -0.167000
     51 C24         7.0000   20.0780   -2.0960 c3        1 0O8     -0.192000
     52 C25         6.2270   21.5790   -3.9160 c2        1 0O8     -0.223000
     53 H23        -2.0910    5.4830   -0.1520 hc        1 0O8      0.079000
     54 H24        -1.4330    5.1410   -1.7970 hc        1 0O8      0.079000
     55 H25        -0.3370    7.2540    0.1870 hc        1 0O8      0.068667
     56 H26         0.3320    6.9060   -1.4600 hc        1 0O8      0.068667
     57 H27        -1.3420    7.5820   -1.2840 hc        1 0O8      0.068667
     58 H28         3.3020    8.5370    0.2930 ha        1 0O8      0.182000
     59 H29        -0.6050    9.5250   -0.1570 ha        1 0O8      0.000400
     60 H30        -0.4690   10.1810   -0.2630 ha        1 0O8      0.000400
     61 H31         1.5800    8.5190   -0.3480 ha        1 0O8      0.182000
     62 H32         0.2020    8.9570   -2.4770 ha        1 0O8      0.236750
     63 H33         0.0680   12.6170   -0.5320 ha        1 0O8      0.000400
     64 H34         0.3630   12.2570   -1.0240 ha        1 0O8      0.000400
     65 H35         1.9870   11.7070   -3.0500 ha        1 0O8      0.236750
     66 H36         4.1790   11.4790   -2.4800 ha        1 0O8      0.236750
     67 H37         2.7380   13.6190   -1.9100 ha        1 0O8      0.000400
     68 H38         2.1130   13.6240   -1.6460 ha        1 0O8      0.000400
     69 H39         9.1050   15.7820   -7.4300 ha        1 0O8      0.227000
     70 H40         5.7000   14.0230   -4.0070 ha        1 0O8      0.236750
     71 H41         4.1650   15.8760   -2.0480 ha        1 0O8      0.000400
     72 H42         4.2770   15.2550   -2.2970 ha        1 0O8      0.000400
     73 H43         5.7610   16.8110   -0.7600 ha        1 0O8      0.000400
     74 H44         6.2460   17.2730   -0.6580 ha        1 0O8      0.000400
     75 H45         6.1640   16.8030   -2.9710 hc        1 0O8      0.116333
     76 H46         6.3520   18.0680   -4.2770 hc        1 0O8      0.116333
     77 H47         7.6720   20.0490   -4.1740 ha        1 0O8      0.117000
     78 H48         4.8890   16.9710   -4.2380 hc        1 0O8      0.116333
     79 H49         6.7080   18.9950   -2.0720 hc        1 0O8      0.080667
     80 H50         8.0280   20.1700   -1.6640 hc        1 0O8      0.080667
     81 H51         6.2920   20.6460   -1.4440 hc        1 0O8      0.080667
     82 H52         5.5370   22.1260   -3.2600 ha        1 0O8      0.111000
     83 H53         6.2450   21.9250   -4.9580 ha        1 0O8      0.111000
@<TRIPOS>BOND
     1    1    2 1   
     2    2    3 1   
     3    2    4 1   
     4    2    8 1   
     5    4    5 1   
     6    5    6 1   
     7    5   17 1   
     8    5   18 1   
     9    6    7 1   
    10    6   19 1   
    11    6   20 1   
    12    7   36 1   
    13    7   37 1   
    14    7   38 1   
    15    8    9 1   
    16    9   10 1   
    17    9   16 1   
    18    9   21 1   
    19   10   11 1   
    20   10   22 1   
    21   10   23 1   
    22   11   12 1   
    23   11   24 1   
    24   11   25 1   
    25   12   13 1   
    26   12   14 1   
    27   12   15 1   
    28   13   26 1   
    29   13   27 1   
    30   13   28 1   
    31   14   29 1   
    32   14   30 1   
    33   14   31 1   
    34   15   16 1   
    35   15   32 1   
    36   15   33 1   
    37   16   34 1   
    38   16   35 1   
    39   38   39 1   
    40   38   53 1   
    41   38   54 1   
    42   39   55 1   
    43   39   56 1   
    44   39   57 1   
    45   40   41 1   
    46   41   58 1   
    47   41   61 1   
    48   42   43 1   
    49   42   62 1   
    50   43   65 1   
    51   44   45 1   
    52   44   66 1   
    53   45   70 1   
    54   46   47 1   
    55   46   69 1   
    56   47   48 1   
    57   48   49 1   
    58   49   75 1   
    59   49   76 1   
    60   49   78 1   
    61   50   51 1   
    62   50   52 1   
    63   50   77 1   
    64   51   79 1   
    65   51   80 1   
    66   51   81 1   
    67   52   82 1   
    68   52   83 1   
    69   59   60 1   
    70   63   64 1   
    71   67   68 1   
    72   71   72 1   
    73   73   74 1   
@<TRIPOS>SUBSTRUCTURE
     1 0O8         1 TEMP              0 ****  ****    0 ROOT
