@<TRIPOS>MOLECULE
0O8
   83    83     1     0     0
SMALL
bcc


@<TRIPOS>ATOM
      1 O1          7.4690   -1.5730   -2.3680 o         1 0O8     -0.818500
      2 P1          6.4030   -1.6770   -1.3540 p5        1 0O8      1.414800
      3 O2          6.2170   -2.7680   -0.3850 o         1 0O8     -0.818500
      4 O3          4.9710   -1.1930   -1.9560 os        1 0O8     -0.557200
      5 C1          3.9160   -1.3240   -1.0370 c3        1 0O8      0.168400
      6 C2          2.6180   -0.9360   -1.7210 c3        1 0O8     -0.083400
      7 C3          1.4520   -1.0640   -0.7660 c3        1 0O8     -0.078400
      8 O4          6.7080   -0.3130   -0.3940 os        1 0O8     -0.549200
      9 C4          8.0460   -0.1380   -0.1060 c3        1 0O8      0.225100
     10 C5          8.5800    1.1170   -0.8100 c3        1 0O8     -0.138900
     11 C6         10.0210    1.3830   -0.4240 c3        1 0O8      0.130300
     12 N1         10.2360    1.5050    1.0700 n4        1 0O8     -0.609800
     13 C7          9.5830    2.7410    1.5800 c3        1 0O8      0.091100
     14 C8         11.6980    1.5780    1.3440 c3        1 0O8      0.091100
     15 C9          9.6660    0.2910    1.7670 c3        1 0O8      0.130300
     16 C10         8.2180    0.0090    1.4120 c3        1 0O8     -0.138900
     17 H2          3.8830   -2.3890   -0.6720 h1        1 0O8      0.033700
     18 H3          4.1280   -0.6510   -0.1610 h1        1 0O8      0.033700
     19 H4          2.6970    0.1170   -2.0970 hc        1 0O8      0.046700
     20 H5          2.4620   -1.5940   -2.6140 hc        1 0O8      0.046700
     21 H6          8.6540   -1.0260   -0.4610 h1        1 0O8      0.056700
     22 H7          8.5490    0.9360   -1.9220 hc        1 0O8      0.092950
     23 H8          7.9190    1.9920   -0.5900 hc        1 0O8      0.092950
     24 H9         10.6620    0.5240   -0.7770 hx        1 0O8      0.084200
     25 H10        10.3890    2.3370   -0.8930 hx        1 0O8      0.084200
     26 H11         8.4800    2.6920    1.3710 hx        1 0O8      0.091867
     27 H12         9.7510    2.8230    2.6850 hx        1 0O8      0.091867
     28 H13        10.0210    3.6340    1.0620 hx        1 0O8      0.091867
     29 H14        12.1300    2.4740    0.8260 hx        1 0O8      0.091867
     30 H15        11.8670    1.6630    2.4490 hx        1 0O8      0.091867
     31 H16        12.1980    0.6490    0.9600 hx        1 0O8      0.091867
     32 H17        10.3000   -0.5900    1.4610 hx        1 0O8      0.084200
     33 H18         9.7770    0.4570    2.8750 hx        1 0O8      0.084200
     34 H19         7.5320    0.8050    1.7970 hc        1 0O8      0.092950
     35 H20         7.9180   -0.9560    1.9040 hc        1 0O8      0.092950
     36 H21         1.3870   -2.1200   -0.3910 hc        1 0O8      0.037700
     37 H22         1.6220   -0.4070    0.1280 hc        1 0O8      0.037700
     38 C11         0.1490   -0.6820   -1.4350 c3        1 0O8     -0.078400
     39 C12        -1.0190   -0.8090   -0.4810 c3        1 0O8     -0.079400
     40 C13        -2.3210   -0.4270   -1.1510 c3        1 0O8     -0.079400
     41 C14        -3.4890   -0.5540   -0.1970 c3        1 0O8     -0.078400
     42 C15        -4.7910   -0.1710   -0.8670 c3        1 0O8     -0.079400
     43 C16        -5.9590   -0.2990    0.0870 c3        1 0O8     -0.078400
     44 C17        -7.2610    0.0840   -0.5830 c3        1 0O8     -0.079400
     45 C18        -8.4300   -0.0440    0.3710 c3        1 0O8     -0.079400
     46 C19        -9.7310    0.3390   -0.3000 c3        1 0O8     -0.079400
     47 C20       -10.8990    0.2110    0.6540 c3        1 0O8     -0.079400
     48 C21       -12.2010    0.5940   -0.0160 c3        1 0O8     -0.079400
     49 C22       -13.3700    0.4660    0.9380 c3        1 0O8     -0.079400
     50 C23       -14.6710    0.8490    0.2680 c3        1 0O8     -0.079400
     51 C24       -15.8410    0.7220    1.2210 c3        1 0O8     -0.080400
     52 C25       -17.1390    1.1020    0.5570 c3        1 0O8     -0.092100
     53 H23         0.2150    0.3730   -1.8110 hc        1 0O8      0.038700
     54 H24        -0.0210   -1.3390   -2.3280 hc        1 0O8      0.038700
     55 H25        -1.0850   -1.8650   -0.1070 hc        1 0O8      0.038200
     56 H26        -0.8480   -0.1530    0.4120 hc        1 0O8      0.038200
     57 H27        -2.2550    0.6290   -1.5260 hc        1 0O8      0.038700
     58 H28        -2.4910   -1.0840   -2.0440 hc        1 0O8      0.038700
     59 H29        -3.5550   -1.6100    0.1770 hc        1 0O8      0.038700
     60 H30        -3.3190    0.1020    0.6960 hc        1 0O8      0.038700
     61 H31        -4.7250    0.8840   -1.2420 hc        1 0O8      0.039200
     62 H32        -4.9620   -0.8280   -1.7610 hc        1 0O8      0.039200
     63 H33        -6.0250   -1.3550    0.4610 hc        1 0O8      0.039200
     64 H34        -5.7890    0.3580    0.9800 hc        1 0O8      0.039200
     65 H35        -7.1950    1.1400   -0.9580 hc        1 0O8      0.039200
     66 H36        -7.4320   -0.5730   -1.4770 hc        1 0O8      0.039200
     67 H37        -8.4950   -1.1000    0.7450 hc        1 0O8      0.039200
     68 H38        -8.2590    0.6130    1.2640 hc        1 0O8      0.039200
     69 H39        -9.6650    1.3950   -0.6740 hc        1 0O8      0.039200
     70 H40        -9.9020   -0.3180   -1.1930 hc        1 0O8      0.039200
     71 H41       -10.9660   -0.8450    1.0280 hc        1 0O8      0.039200
     72 H42       -10.7290    0.8680    1.5480 hc        1 0O8      0.039200
     73 H43       -12.1350    1.6500   -0.3900 hc        1 0O8      0.039200
     74 H44       -12.3720   -0.0630   -0.9100 hc        1 0O8      0.039200
     75 H45       -13.4350   -0.5890    1.3120 hc        1 0O8      0.039200
     76 H46       -13.1990    1.1230    1.8310 hc        1 0O8      0.039200
     77 H47       -14.6060    1.9050   -0.1070 hc        1 0O8      0.039200
     78 H48       -14.8420    0.1920   -0.6260 hc        1 0O8      0.039200
     79 H49       -15.9040   -0.3340    1.5950 hc        1 0O8      0.038200
     80 H50       -15.6670    1.3780    2.1140 hc        1 0O8      0.038200
     81 H51       -17.1040    2.1590    0.1990 hc        1 0O8      0.032367
     82 H52       -17.3410    0.4420   -0.3210 hc        1 0O8      0.032367
     83 H53       -17.9870    1.0010    1.2770 hc        1 0O8      0.032367
@<TRIPOS>BOND
     1    1    2 1   
     2    2    3 1   
     3    2    4 1   
     4    2    8 1   
     5    4    5 1   
     6    5    6 1   
     7    5   17 1   
     8    5   18 1   
     9    6    7 1   
    10    6   19 1   
    11    6   20 1   
    12    7   36 1   
    13    7   37 1   
    14    7   38 1   
    15    8    9 1   
    16    9   10 1   
    17    9   16 1   
    18    9   21 1   
    19   10   11 1   
    20   10   22 1   
    21   10   23 1   
    22   11   12 1   
    23   11   24 1   
    24   11   25 1   
    25   12   13 1   
    26   12   14 1   
    27   12   15 1   
    28   13   26 1   
    29   13   27 1   
    30   13   28 1   
    31   14   29 1   
    32   14   30 1   
    33   14   31 1   
    34   15   16 1   
    35   15   32 1   
    36   15   33 1   
    37   16   34 1   
    38   16   35 1   
    39   38   39 1   
    40   38   53 1   
    41   38   54 1   
    42   39   40 1   
    43   39   55 1   
    44   39   56 1   
    45   40   41 1   
    46   40   57 1   
    47   40   58 1   
    48   41   42 1   
    49   41   59 1   
    50   41   60 1   
    51   42   43 1   
    52   42   61 1   
    53   42   62 1   
    54   43   44 1   
    55   43   63 1   
    56   43   64 1   
    57   44   45 1   
    58   44   65 1   
    59   44   66 1   
    60   45   46 1   
    61   45   67 1   
    62   45   68 1   
    63   46   47 1   
    64   46   69 1   
    65   46   70 1   
    66   47   48 1   
    67   47   71 1   
    68   47   72 1   
    69   48   49 1   
    70   48   73 1   
    71   48   74 1   
    72   49   50 1   
    73   49   75 1   
    74   49   76 1   
    75   50   51 1   
    76   50   77 1   
    77   50   78 1   
    78   51   52 1   
    79   51   79 1   
    80   51   80 1   
    81   52   81 1   
    82   52   82 1   
    83   52   83 1   
@<TRIPOS>SUBSTRUCTURE
     1 0O8         1 TEMP              0 ****  ****    0 ROOT
