@<TRIPOS>MOLECULE
0O9
  107   106     1     0     0
SMALL
bcc


@<TRIPOS>ATOM
      1 C5          9.8970    2.9780    4.3820 c3        1 0O9      0.010000
      2 C6         11.1120    2.6180    5.8600 c3        1 0O9     -0.195000
      3 O7          8.2730    1.0340    4.2600 oh        1 0O9     -0.362000
      4 O19         8.8280   -0.4290    1.0750 o         1 0O9     -1.140000
      5 P16         8.2790    0.9180    0.7510 p3        1 0O9      2.530000
      6 O18         9.0430    1.5050   -0.4200 o         1 0O9     -1.140000
      7 O17         6.7210    0.7880    0.3660 o         1 0O9     -0.731000
      8 C20         6.3530    0.8580   -0.9920 c3        1 0O9      0.001000
      9 C21         4.8690    0.4970   -1.1360 c3        1 0O9     -0.030000
     10 O26         4.1150    1.2310   -0.2060 os        1 0O9     -0.304000
     11 C27         3.4550    0.4220    0.7660 c3        1 0O9     -0.074000
     12 C22         4.3990    0.8280   -2.5480 c3        1 0O9     -0.021000
     13 O23         3.7930   -0.3220   -3.1330 os        1 0O9     -0.284000
     14 C24         2.6830   -0.0170   -3.9920 c3        1 0O9     -0.022000
     15 C25         1.6660   -1.1900   -3.9680 c3        1 0O9     -0.165000
     16 O15         8.4300    1.8700    2.0180 os        1 0O9     -0.728000
     17 C4          9.8990    1.6490    3.1230 c3        1 0O9      0.024000
     18 C3          9.8630    1.1390    3.3790 c3        1 0O9     -0.001000
     19 C2         11.2340    0.9460    4.6000 c3        1 0O9     -0.009000
     20 O8         11.0370    0.1090    5.2070 oh        1 0O9     -0.332000
     21 C1         11.4590    2.5000    5.7250 c3        1 0O9      0.003000
     22 O9         12.1850    3.8390    4.7320 oh        1 0O9     -0.335000
     23 O10         8.9390    3.0910    4.7530 os        1 0O9     -0.294000
     24 C11         8.6200    4.4360    5.1440 c3        1 0O9     -0.036000
     25 C12         7.4730    4.4060    6.2270 c3        1 0O9     -0.100000
     26 C14         6.1200    4.5510    5.5320 c3        1 0O9     -0.205500
     27 C13         7.6660    5.5530    7.2120 c3        1 0O9     -0.205500
     28 H1         10.1690    3.8200    3.9480 h1        1 0O9      0.084000
     29 H2         11.2340    3.4540    6.4010 hc        1 0O9      0.097500
     30 H3         10.7330    1.9220    6.4270 hc        1 0O9      0.097500
     31 H4          8.1720    0.2140    4.5960 ho        1 0O9      0.243000
     32 H6          6.5020    1.7700   -1.3250 h1        1 0O9      0.088500
     33 H7          6.8950    0.2280   -1.5110 h1        1 0O9      0.088500
     34 H8          4.7490   -0.4650   -0.9670 h1        1 0O9      0.109000
     35 H9          2.7620   -0.1220    0.3250 h1        1 0O9      0.076667
     36 H10         3.0390    0.9950    1.4420 h1        1 0O9      0.076667
     37 H11         4.1070   -0.1670    1.1950 h1        1 0O9      0.076667
     38 H12         5.1700    1.1060   -3.0930 h1        1 0O9      0.094500
     39 H13         3.7460    1.5570   -2.5120 h1        1 0O9      0.094500
     40 H14         3.0060    0.1160   -4.9100 h1        1 0O9      0.073000
     41 H15         2.2390    0.8110   -3.6770 h1        1 0O9      0.073000
     42 H16         1.4960   -1.4510   -3.0500 hc        1 0O9      0.092500
     43 H17         2.0340   -1.9540   -4.4640 hc        1 0O9      0.092500
     44 H19        10.7390    1.6970    2.5800 h1        1 0O9      0.118000
     45 H20         9.9170    0.4230    2.7010 h1        1 0O9      0.106000
     46 H21        12.0700    0.7900    4.1110 h1        1 0O9      0.121000
     47 H22        11.6840   -0.5110    5.0880 ho        1 0O9      0.215000
     48 H23        12.0560    2.2820    6.4780 h1        1 0O9      0.114000
     49 H24        12.8570    3.4980    4.2030 ho        1 0O9      0.209000
     50 H25         8.3120    4.9470    4.3500 h1        1 0O9      0.100500
     51 H26         9.4190    4.8660    5.5220 h1        1 0O9      0.100500
     52 H27         7.5020    3.5610    6.7070 hc        1 0O9      0.075000
     53 H28         6.0420    3.8720    4.8270 hc        1 0O9      0.073167
     54 H29         5.4000    4.4270    6.1880 hc        1 0O9      0.073167
     55 H30         6.0510    5.4370    5.1370 hc        1 0O9      0.073167
     56 H31         8.6090    5.6190    7.4540 hc        1 0O9      0.073167
     57 H32         7.1250    5.3810    8.0270 hc        1 0O9      0.073167
     58 H33         7.3750    6.3910    6.7990 hc        1 0O9      0.073167
     59 C7          0.3340   -0.7360   -4.6290 c3        1 0O9     -0.155000
     60 C8         -0.8270   -1.6340   -4.1220 c3        1 0O9     -0.158000
     61 C9         -2.1740   -1.0970   -4.6680 c3        1 0O9     -0.157000
     62 C10        -3.2440   -1.2240   -3.5970 c3        1 0O9     -0.158000
     63 C15        -4.6370   -0.9330   -4.2200 c3        1 0O9     -0.157000
     64 C16        -5.7160   -0.9580   -3.1060 c3        1 0O9     -0.158000
     65 C17        -7.1100   -0.9890   -3.7480 c3        1 0O9     -0.157000
     66 C18        -8.1700   -1.2020   -2.6710 c3        1 0O9     -0.158000
     67 C19        -9.5220   -1.3860   -3.3290 c3        1 0O9     -0.157000
     68 C23       -10.5490   -1.7730   -2.2760 c3        1 0O9     -0.158000
     69 C26       -11.8310   -2.3020   -2.9700 c3        1 0O9     -0.158000
     70 C28       -12.9680   -2.3970   -1.9410 c3        1 0O9     -0.158000
     71 C29       -13.8400   -3.6620   -2.2430 c3        1 0O9     -0.158000
     72 C30       -14.8660   -3.8650   -1.1170 c3        1 0O9     -0.158000
     73 C31       -15.3690   -5.3230   -1.1380 c3        1 0O9     -0.159000
     74 C32       -16.3290   -5.5400    0.0080 c3        1 0O9     -0.210000
     75 H18         0.4060   -0.8140   -5.5900 hc        1 0O9      0.077000
     76 H34         0.1540    0.1930   -4.3920 hc        1 0O9      0.077000
     77 H35        -0.6900   -2.5550   -4.4370 hc        1 0O9      0.080500
     78 H36        -0.8450   -1.6230   -3.1440 hc        1 0O9      0.080500
     79 H37        -2.4360   -1.6150   -5.4500 hc        1 0O9      0.077000
     80 H38        -2.0730   -0.1650   -4.9170 hc        1 0O9      0.077000
     81 H39        -3.0640   -0.5780   -2.8750 hc        1 0O9      0.079000
     82 H40        -3.2340   -2.1270   -3.2340 hc        1 0O9      0.079000
     83 H41        -4.6280   -0.0400   -4.6490 hc        1 0O9      0.077500
     84 H42        -4.8450   -1.6190   -4.8940 hc        1 0O9      0.077500
     85 H43        -5.5920   -1.7550   -2.5500 hc        1 0O9      0.079000
     86 H44        -5.6310   -0.1510   -2.5490 hc        1 0O9      0.079000
     87 H45        -7.2780   -0.1340   -4.2080 hc        1 0O9      0.078000
     88 H46        -7.1550   -1.7240   -4.3990 hc        1 0O9      0.078000
     89 H47        -7.9520   -1.9960   -2.1510 hc        1 0O9      0.078500
     90 H48        -8.1970   -0.4240   -2.0820 hc        1 0O9      0.078500
     91 H49        -9.7880   -0.5620   -3.7520 hc        1 0O9      0.078500
     92 H50        -9.4640   -2.0880   -3.9950 hc        1 0O9      0.078500
     93 H51       -10.7690   -0.9960   -1.7390 hc        1 0O9      0.078500
     94 H52       -10.1770   -2.4740   -1.7000 hc        1 0O9      0.078500
     95 H53       -11.6570   -3.1830   -3.3450 hc        1 0O9      0.078500
     96 H54       -12.0880   -1.6920   -3.6840 hc        1 0O9      0.078500
     97 H55       -12.5910   -2.4680   -1.0460 hc        1 0O9      0.078500
     98 H56       -13.5300   -1.5890   -1.9960 hc        1 0O9      0.078500
     99 H57       -13.2520   -4.4630   -2.3040 hc        1 0O9      0.078500
    100 H58       -14.3100   -3.5370   -3.0930 hc        1 0O9      0.078500
    101 H59       -15.6360   -3.2460   -1.2520 hc        1 0O9      0.078500
    102 H60       -14.4420   -3.6770   -0.2480 hc        1 0O9      0.078500
    103 H61       -14.5990   -5.9400   -1.0450 hc        1 0O9      0.077500
    104 H62       -15.8330   -5.5010   -1.9960 hc        1 0O9      0.077500
    105 H63       -15.9100   -5.2470    0.8470 hc        1 0O9      0.071000
    106 H64       -16.5520   -6.4850    0.0710 hc        1 0O9      0.071000
    107 H65       -17.1440   -5.0230   -0.1470 hc        1 0O9      0.071000
@<TRIPOS>BOND
     1    1    2 1   
     2    1   17 1   
     3    1   23 1   
     4    1   28 1   
     5    2   21 1   
     6    2   29 1   
     7    2   30 1   
     8    3   18 1   
     9    3   31 1   
    10    4    5 1   
    11    5    6 1   
    12    5   16 1   
    13    7    8 1   
    14    8    9 1   
    15    8   32 1   
    16    8   33 1   
    17    9   10 1   
    18    9   12 1   
    19    9   34 1   
    20   10   11 1   
    21   11   35 1   
    22   11   36 1   
    23   11   37 1   
    24   12   13 1   
    25   12   38 1   
    26   12   39 1   
    27   13   14 1   
    28   14   15 1   
    29   14   40 1   
    30   14   41 1   
    31   15   42 1   
    32   15   43 1   
    33   15   59 1   
    34   16   17 1   
    35   17   18 1   
    36   17   44 1   
    37   18   19 1   
    38   18   45 1   
    39   19   20 1   
    40   19   21 1   
    41   19   46 1   
    42   20   47 1   
    43   21   22 1   
    44   21   48 1   
    45   22   49 1   
    46   23   24 1   
    47   24   25 1   
    48   24   50 1   
    49   24   51 1   
    50   25   26 1   
    51   25   27 1   
    52   25   52 1   
    53   26   53 1   
    54   26   54 1   
    55   26   55 1   
    56   27   56 1   
    57   27   57 1   
    58   27   58 1   
    59   59   60 1   
    60   59   75 1   
    61   59   76 1   
    62   60   61 1   
    63   60   77 1   
    64   60   78 1   
    65   61   62 1   
    66   61   79 1   
    67   61   80 1   
    68   62   63 1   
    69   62   81 1   
    70   62   82 1   
    71   63   64 1   
    72   63   83 1   
    73   63   84 1   
    74   64   65 1   
    75   64   85 1   
    76   64   86 1   
    77   65   66 1   
    78   65   87 1   
    79   65   88 1   
    80   66   67 1   
    81   66   89 1   
    82   66   90 1   
    83   67   68 1   
    84   67   91 1   
    85   67   92 1   
    86   68   69 1   
    87   68   93 1   
    88   68   94 1   
    89   69   70 1   
    90   69   95 1   
    91   69   96 1   
    92   70   71 1   
    93   70   97 1   
    94   70   98 1   
    95   71   72 1   
    96   71   99 1   
    97   71  100 1   
    98   72   73 1   
    99   72  101 1   
   100   72  102 1   
   101   73   74 1   
   102   73  103 1   
   103   73  104 1   
   104   74  105 1   
   105   74  106 1   
   106   74  107 1   
@<TRIPOS>SUBSTRUCTURE
     1 0O9         1 TEMP              0 ****  ****    0 ROOT
