@<TRIPOS>MOLECULE
0O9
  107   107     1     0     0
SMALL
bcc


@<TRIPOS>ATOM
      1 C5         -6.8910   -0.0830   -1.6450 c3        1 0O9      0.146100
      2 C6         -6.3560   -0.1880   -3.0740 c3        1 0O9     -0.103400
      3 O7         -4.3920    0.9430   -0.2550 oh        1 0O9     -0.582800
      4 O19        -7.9170   -1.9590    2.2620 o         1 0O9     -0.815000
      5 P16        -6.7590   -2.2370    1.3960 p5        1 0O9      1.416800
      6 O18        -6.6130   -3.3330    0.4210 o         1 0O9     -0.815000
      7 O17        -5.4030   -2.2120    2.3400 os        1 0O9     -0.571200
      8 C20        -5.3410   -1.2040    3.3000 c3        1 0O9      0.171400
      9 C21        -4.1680   -0.2550    2.9890 c3        1 0O9      0.105100
     10 O26        -4.3270    0.9600    3.7310 os        1 0O9     -0.435600
     11 C27        -5.1120    1.9220    3.0450 c3        1 0O9      0.115700
     12 C22        -2.8540   -0.8850    3.4460 c3        1 0O9      0.129400
     13 O23        -1.8030   -0.2620    2.7050 os        1 0O9     -0.422600
     14 C24        -0.5410   -0.8680    2.9590 c3        1 0O9      0.134400
     15 C25         0.4750   -0.1400    2.0970 c3        1 0O9     -0.086400
     16 O15        -6.4410   -0.8090    0.6050 os        1 0O9     -0.568200
     17 C4         -5.9570   -0.8620   -0.6940 c3        1 0O9      0.174100
     18 C3         -4.4930   -0.3740   -0.7640 c3        1 0O9      0.133100
     19 C2         -4.0040   -0.4460   -2.2230 c3        1 0O9      0.112100
     20 O8         -2.6910    0.0970   -2.2420 oh        1 0O9     -0.614800
     21 C1         -4.9370    0.3550   -3.1430 c3        1 0O9      0.103100
     22 O9         -4.3940    0.2450   -4.4570 oh        1 0O9     -0.627800
     23 O10        -7.0290    1.3150   -1.4000 os        1 0O9     -0.439600
     24 C11        -7.4100    1.6380   -0.0610 c3        1 0O9      0.138400
     25 C12        -7.8730    3.0940   -0.0750 c3        1 0O9     -0.075700
     26 C14        -9.2260    3.2280   -0.7380 c3        1 0O9     -0.087100
     27 C13        -7.9130    3.6190    1.3440 c3        1 0O9     -0.087100
     28 H1         -7.9150   -0.5510   -1.5810 h1        1 0O9      0.041700
     29 H2         -6.3770   -1.2600   -3.3960 hc        1 0O9      0.048700
     30 H3         -7.0140    0.4010   -3.7630 hc        1 0O9      0.048700
     31 H4         -3.4560    1.1770   -0.3080 ho        1 0O9      0.402000
     32 H6         -6.3030   -0.6210    3.3260 h1        1 0O9      0.038700
     33 H7         -5.1720   -1.6790    4.3080 h1        1 0O9      0.038700
     34 H8         -4.1250   -0.0360    1.8840 h1        1 0O9      0.089700
     35 H9         -5.0430    2.8430    3.6760 h1        1 0O9      0.033700
     36 H10        -4.7050    2.1130    2.0180 h1        1 0O9      0.033700
     37 H11        -6.1730    1.5780    2.9660 h1        1 0O9      0.033700
     38 H12        -2.6860   -0.7150    4.5420 h1        1 0O9      0.040200
     39 H13        -2.8800   -1.9850    3.2220 h1        1 0O9      0.040200
     40 H14        -0.2860   -0.7690    4.0490 h1        1 0O9      0.018200
     41 H15        -0.5810   -1.9590    2.6960 h1        1 0O9      0.018200
     42 H16         0.1700   -0.2210    1.0210 hc        1 0O9      0.055200
     43 H17         0.4710    0.9500    2.3610 hc        1 0O9      0.055200
     44 H19        -5.9480   -1.9410   -1.0540 h1        1 0O9      0.082700
     45 H20        -3.8460   -1.0580   -0.1430 h1        1 0O9      0.059700
     46 H21        -3.9660   -1.5180   -2.5630 h1        1 0O9      0.051700
     47 H22        -2.4500    0.1980   -3.1710 ho        1 0O9      0.411000
     48 H23        -4.9280    1.4360   -2.8210 h1        1 0O9      0.074700
     49 H24        -5.0040    0.7040   -5.0440 ho        1 0O9      0.399000
     50 H25        -8.2270    0.9550    0.2860 h1        1 0O9      0.063200
     51 H26        -6.5110    1.5080    0.6030 h1        1 0O9      0.063200
     52 H27        -7.1230    3.6920   -0.6660 hc        1 0O9      0.050700
     53 H28        -9.5250    4.3010   -0.8060 hc        1 0O9      0.029033
     54 H29        -9.1850    2.7970   -1.7670 hc        1 0O9      0.029033
     55 H30       -10.0040    2.6790   -0.1550 hc        1 0O9      0.029033
     56 H31        -6.9020    3.5390    1.8170 hc        1 0O9      0.029033
     57 H32        -8.2310    4.6880    1.3540 hc        1 0O9      0.029033
     58 H33        -8.6330    3.0260    1.9590 hc        1 0O9      0.029033
     59 C7          1.8560   -0.7230    2.2970 c3        1 0O9     -0.077400
     60 C8          2.8800   -0.0070    1.4410 c3        1 0O9     -0.078400
     61 C9          4.2630   -0.5890    1.6370 c3        1 0O9     -0.078400
     62 C10         5.2870    0.1270    0.7810 c3        1 0O9     -0.079400
     63 C15         6.6700   -0.4540    0.9760 c3        1 0O9     -0.078400
     64 C16         7.6930    0.2620    0.1210 c3        1 0O9     -0.079400
     65 C17         9.0770   -0.3190    0.3150 c3        1 0O9     -0.078400
     66 C18        10.1000    0.3970   -0.5400 c3        1 0O9     -0.079400
     67 C19        11.4840   -0.1840   -0.3450 c3        1 0O9     -0.078400
     68 C23        12.5070    0.5320   -1.2010 c3        1 0O9     -0.079400
     69 C26        13.8910   -0.0490   -1.0070 c3        1 0O9     -0.079400
     70 C28        14.9130    0.6680   -1.8630 c3        1 0O9     -0.079400
     71 C29        16.2970    0.0870   -1.6680 c3        1 0O9     -0.079400
     72 C30        17.3200    0.8030   -2.5240 c3        1 0O9     -0.079400
     73 C31        18.7040    0.2230   -2.3300 c3        1 0O9     -0.080400
     74 C32        19.7260    0.9320   -3.1800 c3        1 0O9     -0.092100
     75 H18         2.1480   -0.6440    3.3770 hc        1 0O9      0.036200
     76 H34         1.8460   -1.8150    2.0360 hc        1 0O9      0.036200
     77 H35         2.5870   -0.0870    0.3610 hc        1 0O9      0.041200
     78 H36         2.8890    1.0840    1.7010 hc        1 0O9      0.041200
     79 H37         4.5550   -0.5100    2.7170 hc        1 0O9      0.037700
     80 H38         4.2530   -1.6800    1.3760 hc        1 0O9      0.037700
     81 H39         4.9940    0.0480   -0.2990 hc        1 0O9      0.039700
     82 H40         5.2970    1.2180    1.0410 hc        1 0O9      0.039700
     83 H41         6.9630   -0.3760    2.0570 hc        1 0O9      0.038200
     84 H42         6.6600   -1.5450    0.7160 hc        1 0O9      0.038200
     85 H43         7.4010    0.1830   -0.9600 hc        1 0O9      0.039200
     86 H44         7.7030    1.3530    0.3810 hc        1 0O9      0.039200
     87 H45         9.3700   -0.2400    1.3960 hc        1 0O9      0.039200
     88 H46         9.0670   -1.4100    0.0550 hc        1 0O9      0.039200
     89 H47         9.8080    0.3180   -1.6210 hc        1 0O9      0.039200
     90 H48        10.1100    1.4880   -0.2800 hc        1 0O9      0.039200
     91 H49        11.7760   -0.1050    0.7350 hc        1 0O9      0.039200
     92 H50        11.4740   -1.2750   -0.6060 hc        1 0O9      0.039200
     93 H51        12.2140    0.4530   -2.2820 hc        1 0O9      0.039200
     94 H52        12.5170    1.6240   -0.9410 hc        1 0O9      0.039200
     95 H53        14.1830    0.0300    0.0740 hc        1 0O9      0.039200
     96 H54        13.8800   -1.1400   -1.2670 hc        1 0O9      0.039200
     97 H55        14.6210    0.5890   -2.9430 hc        1 0O9      0.039200
     98 H56        14.9230    1.7590   -1.6020 hc        1 0O9      0.039200
     99 H57        16.5890    0.1660   -0.5870 hc        1 0O9      0.038700
    100 H58        16.2870   -1.0050   -1.9280 hc        1 0O9      0.038700
    101 H59        17.0270    0.7240   -3.6040 hc        1 0O9      0.039200
    102 H60        17.3300    1.8940   -2.2640 hc        1 0O9      0.039200
    103 H61        18.9940    0.3010   -1.2480 hc        1 0O9      0.038200
    104 H62        18.6920   -0.8690   -2.5890 hc        1 0O9      0.038200
    105 H63        19.4670    0.8440   -4.2630 hc        1 0O9      0.031700
    106 H64        19.7710    2.0180   -2.9190 hc        1 0O9      0.031700
    107 H65        20.7390    0.4900   -3.0220 hc        1 0O9      0.031700
@<TRIPOS>BOND
     1    1    2 1   
     2    1   17 1   
     3    1   23 1   
     4    1   28 1   
     5    2   21 1   
     6    2   29 1   
     7    2   30 1   
     8    3   18 1   
     9    3   31 1   
    10    4    5 1   
    11    5    6 1   
    12    5    7 1   
    13    5   16 1   
    14    7    8 1   
    15    8    9 1   
    16    8   32 1   
    17    8   33 1   
    18    9   10 1   
    19    9   12 1   
    20    9   34 1   
    21   10   11 1   
    22   11   35 1   
    23   11   36 1   
    24   11   37 1   
    25   12   13 1   
    26   12   38 1   
    27   12   39 1   
    28   13   14 1   
    29   14   15 1   
    30   14   40 1   
    31   14   41 1   
    32   15   42 1   
    33   15   43 1   
    34   15   59 1   
    35   16   17 1   
    36   17   18 1   
    37   17   44 1   
    38   18   19 1   
    39   18   45 1   
    40   19   20 1   
    41   19   21 1   
    42   19   46 1   
    43   20   47 1   
    44   21   22 1   
    45   21   48 1   
    46   22   49 1   
    47   23   24 1   
    48   24   25 1   
    49   24   50 1   
    50   24   51 1   
    51   25   26 1   
    52   25   27 1   
    53   25   52 1   
    54   26   53 1   
    55   26   54 1   
    56   26   55 1   
    57   27   56 1   
    58   27   57 1   
    59   27   58 1   
    60   59   60 1   
    61   59   75 1   
    62   59   76 1   
    63   60   61 1   
    64   60   77 1   
    65   60   78 1   
    66   61   62 1   
    67   61   79 1   
    68   61   80 1   
    69   62   63 1   
    70   62   81 1   
    71   62   82 1   
    72   63   64 1   
    73   63   83 1   
    74   63   84 1   
    75   64   65 1   
    76   64   85 1   
    77   64   86 1   
    78   65   66 1   
    79   65   87 1   
    80   65   88 1   
    81   66   67 1   
    82   66   89 1   
    83   66   90 1   
    84   67   68 1   
    85   67   91 1   
    86   67   92 1   
    87   68   69 1   
    88   68   93 1   
    89   68   94 1   
    90   69   70 1   
    91   69   95 1   
    92   69   96 1   
    93   70   71 1   
    94   70   97 1   
    95   70   98 1   
    96   71   72 1   
    97   71   99 1   
    98   71  100 1   
    99   72   73 1   
   100   72  101 1   
   101   72  102 1   
   102   73   74 1   
   103   73  103 1   
   104   73  104 1   
   105   74  105 1   
   106   74  106 1   
   107   74  107 1   
@<TRIPOS>SUBSTRUCTURE
     1 0O9         1 TEMP              0 ****  ****    0 ROOT
