@<TRIPOS>MOLECULE
0O9
  107   107     1     0     0
SMALL
bcc


@<TRIPOS>ATOM
      1 C5         -3.0730    0.2590    0.7500 c3        1 0O9      0.123100
      2 C6         -2.2980    1.5540    0.9910 c3        1 0O9     -0.073400
      3 O7         -3.3370   -0.6420    3.6770 oh        1 0O9     -0.601800
      4 O19        -0.8480   -3.1030    0.5430 o         1 0O9     -0.813500
      5 P16        -2.2970   -3.3210    0.3810 p5        1 0O9      1.419800
      6 O18        -3.0460   -4.5680    0.6060 o         1 0O9     -0.813500
      7 O17        -2.6940   -2.7470   -1.1220 os        1 0O9     -0.585200
      8 C20        -3.5670   -3.4980   -1.9030 c3        1 0O9      0.153400
      9 C21        -4.8270   -2.6760   -2.2310 c3        1 0O9      0.111100
     10 O26        -4.6250   -1.8980   -3.4180 os        1 0O9     -0.436600
     11 C27        -3.7860   -0.7760   -3.2030 c3        1 0O9      0.115700
     12 C22        -6.0110   -3.5950   -2.5350 c3        1 0O9      0.129400
     13 O23        -7.1910   -2.8780   -2.1660 os        1 0O9     -0.422600
     14 C24        -8.3690   -3.6530   -2.3660 c3        1 0O9      0.133400
     15 C25        -9.5340   -2.8080   -1.8820 c3        1 0O9     -0.087400
     16 O15        -3.0670   -2.1080    1.2180 os        1 0O9     -0.562200
     17 C4         -2.3470   -0.9330    1.4170 c3        1 0O9      0.137100
     18 C3         -2.1380   -0.7030    2.9320 c3        1 0O9      0.151100
     19 C2         -1.3330    0.6000    3.0930 c3        1 0O9      0.089100
     20 O8         -1.0940    0.8270    4.4740 oh        1 0O9     -0.583800
     21 C1         -2.1120    1.7760    2.4860 c3        1 0O9      0.106100
     22 O9         -1.3900    2.9910    2.6640 oh        1 0O9     -0.616800
     23 O10        -4.3820    0.4870    1.2830 os        1 0O9     -0.440600
     24 C11        -5.3950   -0.3070    0.6640 c3        1 0O9      0.123400
     25 C12        -6.7280    0.0940    1.2940 c3        1 0O9     -0.070700
     26 C14        -7.1670    1.4580    0.8080 c3        1 0O9     -0.091600
     27 C13        -7.7630   -0.9610    0.9650 c3        1 0O9     -0.091600
     28 H1         -3.1440    0.0550   -0.3570 h1        1 0O9      0.057700
     29 H2         -2.8590    2.4190    0.5570 hc        1 0O9      0.054700
     30 H3         -1.3020    1.4880    0.4840 hc        1 0O9      0.054700
     31 H4         -4.0720   -0.7140    3.0520 ho        1 0O9      0.425000
     32 H6         -3.8530   -4.4490   -1.3700 h1        1 0O9      0.048700
     33 H7         -3.0490   -3.7450   -2.8740 h1        1 0O9      0.048700
     34 H8         -5.0810   -1.9940   -1.3720 h1        1 0O9      0.070700
     35 H9         -4.2980   -0.0350   -2.5380 h1        1 0O9      0.033700
     36 H10        -2.8140   -1.0880   -2.7450 h1        1 0O9      0.033700
     37 H11        -3.6310   -0.3430   -4.2220 h1        1 0O9      0.033700
     38 H12        -5.9430   -4.5370   -1.9290 h1        1 0O9      0.039700
     39 H13        -6.0520   -3.8450   -3.6280 h1        1 0O9      0.039700
     40 H14        -8.4770   -3.9010   -3.4560 h1        1 0O9      0.020200
     41 H15        -8.3000   -4.6100   -1.7820 h1        1 0O9      0.020200
     42 H16        -9.3770   -2.5470   -0.8020 hc        1 0O9      0.056200
     43 H17        -9.5550   -1.8440   -2.4540 hc        1 0O9      0.056200
     44 H19        -1.3230   -1.0200    0.9370 h1        1 0O9      0.085700
     45 H20        -1.5410   -1.5510    3.3700 h1        1 0O9      0.074700
     46 H21        -0.3490    0.4810    2.5550 h1        1 0O9      0.044700
     47 H22        -0.3890    1.4840    4.5140 ho        1 0O9      0.381000
     48 H23        -3.1180    1.8450    2.9890 h1        1 0O9      0.073700
     49 H24        -1.4840    3.2190    3.5960 ho        1 0O9      0.394000
     50 H25        -5.1830   -1.3930    0.8500 h1        1 0O9      0.052200
     51 H26        -5.4050   -0.1040   -0.4410 h1        1 0O9      0.052200
     52 H27        -6.5850    0.1400    2.4100 hc        1 0O9      0.057700
     53 H28        -8.0930    1.7820    1.3390 hc        1 0O9      0.032867
     54 H29        -7.3780    1.4350   -0.2890 hc        1 0O9      0.032867
     55 H30        -6.3590    2.2050    1.0000 hc        1 0O9      0.032867
     56 H31        -8.7750   -0.6280    1.2990 hc        1 0O9      0.032867
     57 H32        -7.5140   -1.9210    1.4780 hc        1 0O9      0.032867
     58 H33        -7.7920   -1.1520   -0.1370 hc        1 0O9      0.032867
     59 C7        -10.8390   -3.5510   -2.0590 c3        1 0O9     -0.077400
     60 C8        -12.0100   -2.7200   -1.5790 c3        1 0O9     -0.078400
     61 C9        -13.3180   -3.4620   -1.7530 c3        1 0O9     -0.078400
     62 C10       -14.4890   -2.6310   -1.2720 c3        1 0O9     -0.079400
     63 C15       -15.7970   -3.3730   -1.4440 c3        1 0O9     -0.078400
     64 C16       -16.9670   -2.5430   -0.9600 c3        1 0O9     -0.079400
     65 C17       -18.2750   -3.2850   -1.1310 c3        1 0O9     -0.078400
     66 C18       -19.4450   -2.4550   -0.6460 c3        1 0O9     -0.079400
     67 C19       -20.7530   -3.1970   -0.8150 c3        1 0O9     -0.078400
     68 C23       -21.9220   -2.3680   -0.3290 c3        1 0O9     -0.079400
     69 C26       -23.2310   -3.1110   -0.4970 c3        1 0O9     -0.078400
     70 C28       -24.4000   -2.2810   -0.0110 c3        1 0O9     -0.079400
     71 C29       -25.7080   -3.0240   -0.1780 c3        1 0O9     -0.079400
     72 C30       -26.8770   -2.1950    0.3090 c3        1 0O9     -0.079400
     73 C31       -28.1860   -2.9370    0.1420 c3        1 0O9     -0.080400
     74 C32       -29.3530   -2.1150    0.6260 c3        1 0O9     -0.092100
     75 H18       -10.9820   -3.8130   -3.1410 hc        1 0O9      0.036700
     76 H34       -10.8040   -4.5160   -1.4870 hc        1 0O9      0.036700
     77 H35       -11.8660   -2.4590   -0.4980 hc        1 0O9      0.041700
     78 H36       -12.0450   -1.7560   -2.1510 hc        1 0O9      0.041700
     79 H37       -13.2820   -4.4270   -1.1830 hc        1 0O9      0.037700
     80 H38       -13.4620   -3.7230   -2.8350 hc        1 0O9      0.037700
     81 H39       -14.5250   -1.6660   -1.8430 hc        1 0O9      0.039700
     82 H40       -14.3440   -2.3700   -0.1900 hc        1 0O9      0.039700
     83 H41       -15.9420   -3.6340   -2.5250 hc        1 0O9      0.038200
     84 H42       -15.7590   -4.3380   -0.8730 hc        1 0O9      0.038200
     85 H43       -17.0050   -1.5780   -1.5310 hc        1 0O9      0.039700
     86 H44       -16.8210   -2.2810    0.1210 hc        1 0O9      0.039700
     87 H45       -18.4220   -3.5460   -2.2120 hc        1 0O9      0.039200
     88 H46       -18.2370   -4.2500   -0.5600 hc        1 0O9      0.039200
     89 H47       -19.2980   -2.1940    0.4350 hc        1 0O9      0.039200
     90 H48       -19.4830   -1.4900   -1.2160 hc        1 0O9      0.039200
     91 H49       -20.9000   -3.4580   -1.8960 hc        1 0O9      0.039200
     92 H50       -20.7140   -4.1630   -0.2450 hc        1 0O9      0.039200
     93 H51       -21.9620   -1.4030   -0.8990 hc        1 0O9      0.039200
     94 H52       -21.7740   -2.1070    0.7520 hc        1 0O9      0.039200
     95 H53       -23.3790   -3.3710   -1.5780 hc        1 0O9      0.039200
     96 H54       -23.1910   -4.0760    0.0730 hc        1 0O9      0.039200
     97 H55       -24.2510   -2.0200    1.0700 hc        1 0O9      0.039700
     98 H56       -24.4390   -1.3160   -0.5810 hc        1 0O9      0.039700
     99 H57       -25.8560   -3.2850   -1.2590 hc        1 0O9      0.038700
    100 H58       -25.6680   -3.9890    0.3920 hc        1 0O9      0.038700
    101 H59       -26.9170   -1.2300   -0.2610 hc        1 0O9      0.039200
    102 H60       -26.7290   -1.9340    1.3900 hc        1 0O9      0.039200
    103 H61       -28.3320   -3.1980   -0.9400 hc        1 0O9      0.038200
    104 H62       -28.1440   -3.9030    0.7110 hc        1 0O9      0.038200
    105 H63       -30.3080   -2.6800    0.4930 hc        1 0O9      0.031700
    106 H64       -29.4270   -1.1590    0.0530 hc        1 0O9      0.031700
    107 H65       -29.2380   -1.8660    1.7080 hc        1 0O9      0.031700
@<TRIPOS>BOND
     1    1    2 1   
     2    1   17 1   
     3    1   23 1   
     4    1   28 1   
     5    2   21 1   
     6    2   29 1   
     7    2   30 1   
     8    3   18 1   
     9    3   31 1   
    10    4    5 1   
    11    5    6 1   
    12    5    7 1   
    13    5   16 1   
    14    7    8 1   
    15    8    9 1   
    16    8   32 1   
    17    8   33 1   
    18    9   10 1   
    19    9   12 1   
    20    9   34 1   
    21   10   11 1   
    22   11   35 1   
    23   11   36 1   
    24   11   37 1   
    25   12   13 1   
    26   12   38 1   
    27   12   39 1   
    28   13   14 1   
    29   14   15 1   
    30   14   40 1   
    31   14   41 1   
    32   15   42 1   
    33   15   43 1   
    34   15   59 1   
    35   16   17 1   
    36   17   18 1   
    37   17   44 1   
    38   18   19 1   
    39   18   45 1   
    40   19   20 1   
    41   19   21 1   
    42   19   46 1   
    43   20   47 1   
    44   21   22 1   
    45   21   48 1   
    46   22   49 1   
    47   23   24 1   
    48   24   25 1   
    49   24   50 1   
    50   24   51 1   
    51   25   26 1   
    52   25   27 1   
    53   25   52 1   
    54   26   53 1   
    55   26   54 1   
    56   26   55 1   
    57   27   56 1   
    58   27   57 1   
    59   27   58 1   
    60   59   60 1   
    61   59   75 1   
    62   59   76 1   
    63   60   61 1   
    64   60   77 1   
    65   60   78 1   
    66   61   62 1   
    67   61   79 1   
    68   61   80 1   
    69   62   63 1   
    70   62   81 1   
    71   62   82 1   
    72   63   64 1   
    73   63   83 1   
    74   63   84 1   
    75   64   65 1   
    76   64   85 1   
    77   64   86 1   
    78   65   66 1   
    79   65   87 1   
    80   65   88 1   
    81   66   67 1   
    82   66   89 1   
    83   66   90 1   
    84   67   68 1   
    85   67   91 1   
    86   67   92 1   
    87   68   69 1   
    88   68   93 1   
    89   68   94 1   
    90   69   70 1   
    91   69   95 1   
    92   69   96 1   
    93   70   71 1   
    94   70   97 1   
    95   70   98 1   
    96   71   72 1   
    97   71   99 1   
    98   71  100 1   
    99   72   73 1   
   100   72  101 1   
   101   72  102 1   
   102   73   74 1   
   103   73  103 1   
   104   73  104 1   
   105   74  105 1   
   106   74  106 1   
   107   74  107 1   
@<TRIPOS>SUBSTRUCTURE
     1 0O9         1 TEMP              0 ****  ****    0 ROOT
