@<TRIPOS>MOLECULE
0OA
  114    96     1     0     0
SMALL
bcc


@<TRIPOS>ATOM
      1 O15         3.8370   -0.6890   -2.8580 o         1 0OA     -0.844000
      2 P12         3.0780   -1.4330   -1.8270 p5        1 0OA      2.050000
      3 O14         1.6240   -1.6520   -1.8650 o         1 0OA     -0.844000
      4 O13         5.1840   -2.7720   -1.7700 oh        1 0OA     -0.232000
      5 C16         3.8610   -2.8960   -1.4440 c2        1 0OA     -0.509000
      6 C17         3.3390   -4.0300   -0.9370 c2        1 0OA     -0.190000
      7 O22         4.2480   -5.1330   -0.8340 os        1 0OA     -0.065000
      8 C23         4.1280   -6.0780    0.0180 c1        1 0OA     -0.054000
      9 C18         1.9370   -4.3120   -0.5060 c3        1 0OA     -0.015000
     10 O19         1.5370   -5.6090   -0.9140 oh        1 0OA     -0.357000
     11 C20         0.7590   -8.2450    0.9360 c1        1 0OA     -0.229000
     12 C21         0.2550   -9.1170    1.5810 c1        1 0OA     -0.229000
     13 O11         3.4170   -0.5990   -0.4100 os        1 0OA     -0.703000
     14 C4          3.2340    0.7310   -0.2710 c2        1 0OA      0.088000
     15 C3          4.5270    1.5290   -0.2500 c3        1 0OA     -0.013000
     16 O7          5.2940    1.3860   -1.4350 oh        1 0OA     -0.319000
     17 C2          4.3780    2.9650    0.0460 c1        1 0OA      0.018000
     18 O8          6.1090    5.3010   -0.0670 oh        1 0OA     -0.431000
     19 C5          2.0440    1.3010    0.0170 c2        1 0OA     -0.266000
     20 C6          1.9000    2.7490    0.2720 c3        1 0OA     -0.139000
     21 C1          3.1930    3.3390    0.8450 c3        1 0OA     -0.047000
     22 O9          3.1350    4.7610    0.9150 oh        1 0OA     -0.310000
     23 O10         6.3690   -0.5190   -4.3630 oh        1 0OA     -0.349000
     24 H2          5.6650   -3.5950   -1.5860 ho        1 0OA      0.220000
     25 H3          1.8700   -4.3320    0.6170 h1        1 0OA      0.139000
     26 H4          1.2500   -3.5140   -0.9150 h1        1 0OA      0.139000
     27 H5          3.2740   -5.7910   -2.9490 ha        1 0OA      0.002091
     28 H6          2.9470   -6.1350   -3.4330 ha        1 0OA      0.002091
     29 H7          3.2880   -6.0870    0.7450 ha        1 0OA      0.038000
     30 H8          3.1790   -7.9760   -1.1340 ha        1 0OA      0.002091
     31 H9          2.7720   -7.5210   -1.4340 ha        1 0OA      0.002091
     32 H10        -0.1880   -9.8910    2.1560 ha        1 0OA      0.227000
     33 H11         1.3690   -5.5710   -1.8640 ho        1 0OA      0.216000
     34 H12         3.5000   -8.4660    1.0020 ha        1 0OA      0.002091
     35 H13         3.8190   -8.9100    1.4100 ha        1 0OA      0.002091
     36 H15         5.7450   -0.8540   -3.6950 ho        1 0OA      0.257000
     37 H16         5.1560    1.1220    0.6140 h1        1 0OA      0.123000
     38 H17         5.0590    0.5220   -1.8270 ho        1 0OA      0.249000
     39 H18         5.2000    5.3480    0.2480 ho        1 0OA      0.211500
     40 H19         6.1440    4.4210   -0.4640 ho        1 0OA      0.211500
     41 H20         1.1170    0.7070    0.0370 ha        1 0OA      0.157000
     42 H21         1.0620    2.9310    0.9960 hc        1 0OA      0.094500
     43 H22         1.6410    3.2870   -0.6800 hc        1 0OA      0.094500
     44 H23         3.3520    2.9420    1.8970 h1        1 0OA      0.103000
     45 H24         2.2650    4.9820    1.2660 ho        1 0OA      0.194000
     46 C7          5.6210    0.0540   -5.4160 c3        1 0OA      0.045000
     47 C13        -1.2480  -11.7860    3.5700 c3        1 0OA     -0.272000
     48 C14         5.5310   -8.9870    0.0060 c1        1 0OA     -0.057000
     49 C15         5.0480   -9.7930   -1.0390 c2        1 0OA     -0.204000
     50 C19         5.6750  -10.0270   -2.2080 c2        1 0OA     -0.214000
     51 C22         5.2320  -11.0520   -3.1800 c3        1 0OA     -0.118000
     52 C24         6.3570  -11.9770   -3.5770 c3        1 0OA     -0.212000
     53 C25         5.1510  -14.5470   -5.9380 c1        1 0OA     -0.144000
     54 C26         5.9350  -15.4470   -5.7070 c1        1 0OA     -0.183000
     55 C27         6.7260  -16.5340   -5.6130 c1        1 0OA     -0.001000
     56 C28         7.7580  -16.7930   -4.6350 c3        1 0OA     -0.130000
     57 C29         8.5210  -18.0600   -4.8430 c2        1 0OA     -0.123000
     58 C30         9.5810  -18.3090   -3.8340 c3        1 0OA     -0.186000
     59 C31         8.2660  -18.8860   -5.8670 c2        1 0OA     -0.149000
     60 C32         8.9800  -20.1470   -6.1380 c3        1 0OA     -0.188000
     61 C33         6.9360  -23.3960   -5.5780 c2        1 0OA     -0.562000
     62 C34         6.3760  -24.5330   -5.2750 c1        1 0OA      0.170000
     63 H35        -1.7020  -12.5990    4.1770 hc        1 0OA      0.068500
     64 H36         1.1990   -7.4630    0.3580 ha        1 0OA      0.227000
     65 H37         5.5890   -7.8930   -0.0640 ha        1 0OA      0.133000
     66 H38        -1.6050  -10.8010    3.9420 hc        1 0OA      0.068500
     67 H39        -1.5440  -11.9100    2.5050 hc        1 0OA      0.068500
     68 H40        -0.1410  -11.8350    3.6550 hc        1 0OA      0.068500
     69 H41         4.1340  -10.3630   -0.7710 ha        1 0OA      0.154000
     70 H42         6.5880   -9.4790   -2.4820 ha        1 0OA      0.121000
     71 H43         4.8440  -10.5260   -4.0960 hc        1 0OA      0.078000
     72 H44         4.3820  -11.6560   -2.7640 hc        1 0OA      0.078000
     73 H45         6.7510  -12.5220   -2.6860 hc        1 0OA      0.071000
     74 H46         7.1990  -11.4020   -4.0330 hc        1 0OA      0.071000
     75 H47         5.9980  -12.7300   -4.3220 hc        1 0OA      0.071000
     76 H48         4.4620  -13.7690   -6.1500 ha        1 0OA      0.230000
     77 H49         8.5260  -13.4180   -3.9620 ha        1 0OA      0.002091
     78 H50         9.0790  -13.8100   -3.9860 ha        1 0OA      0.002091
     79 H51         8.7260  -15.6660   -1.7430 ha        1 0OA      0.002091
     80 H52         8.9000  -15.3890   -2.3370 ha        1 0OA      0.002091
     81 H53        10.6760  -15.7970   -3.8600 ha        1 0OA      0.002091
     82 H54        10.8540  -15.1460   -3.9280 ha        1 0OA      0.002091
     83 H55         7.2810  -16.8210   -3.6070 hc        1 0OA      0.126000
     84 H56         8.4930  -15.9290   -4.6090 hc        1 0OA      0.126000
     85 H57         9.5070  -17.5910   -2.9790 hc        1 0OA      0.079667
     86 H58        10.5920  -18.1910   -4.2990 hc        1 0OA      0.079667
     87 H59         9.5030  -19.3480   -3.4260 hc        1 0OA      0.079667
     88 H60         7.4600  -18.6340   -6.5820 ha        1 0OA      0.152000
     89 H61         9.9130  -20.2490   -5.5310 hc        1 0OA      0.077000
     90 H62         9.2590  -20.2060   -7.2210 hc        1 0OA      0.077000
     91 C8          4.8150    1.2250   -4.9330 c2        1 0OA      0.147000
     92 C9          4.4280    2.2010   -5.7310 c1        1 0OA     -0.343000
     93 C10         4.0510    3.1340   -6.4780 c1        1 0OA      0.292000
     94 C11         3.6660    4.0910   -7.2650 c1        1 0OA     -0.545000
     95 C12         3.2900    5.0230   -8.0310 c1        1 0OA      0.122000
     96 C35         4.6850   -0.9690   -6.0470 c3        1 0OA     -0.246000
     97 H14         6.4010    0.3890   -6.1590 h1        1 0OA      0.114000
     98 H25         6.7560   -1.0160   -1.7030 ha        1 0OA      0.002091
     99 H541        8.3140  -21.0190   -5.9050 hc        1 0OA      0.077000
    100 H551        7.9580  -23.3060   -5.9850 ha        1 0OA      0.194500
    101 H561        6.4400  -22.4190   -5.4570 ha        1 0OA      0.194500
    102 H571       10.1240  -23.1620   -6.7800 ha        1 0OA      0.002091
    103 H581        9.9910  -22.5050   -6.6780 ha        1 0OA      0.002091
    104 H591        7.0650   -0.4440   -1.8940 ha        1 0OA      0.002091
    105 H601        7.1560   -2.5900   -3.2360 ha        1 0OA      0.002091
    106 H611        6.8420   -3.0840   -3.5780 ha        1 0OA      0.002091
    107 H621        8.8140   -0.9950   -4.0970 ha        1 0OA      0.002091
    108 H63         8.5610   -0.7580   -3.5140 ha        1 0OA      0.002091
    109 H64         7.5340   -2.0730   -5.6250 ha        1 0OA      0.002091
    110 H65         7.7590   -2.4130   -6.1670 ha        1 0OA      0.002091
    111 H66         4.1830   -0.5360   -6.9420 hc        1 0OA      0.093000
    112 H67         3.9130   -1.2810   -5.3000 hc        1 0OA      0.093000
    113 H68         5.2780   -1.8650   -6.3500 hc        1 0OA      0.093000
    114 H69         4.5430    1.2040   -3.8510 ha        1 0OA      0.210000
@<TRIPOS>BOND
     1    1    2 1   
     2    2    3 1   
     3    2    5 1   
     4    2   13 1   
     5    4    5 1   
     6    4   24 1   
     7    5    6 1   
     8    6    7 1   
     9    6    9 1   
    10    7    8 1   
    11    8   29 1   
    12    9   10 1   
    13    9   25 1   
    14    9   26 1   
    15   10   33 1   
    16   11   12 1   
    17   11   64 1   
    18   12   32 1   
    19   13   14 1   
    20   14   15 1   
    21   14   19 1   
    22   15   16 1   
    23   15   17 1   
    24   15   37 1   
    25   16   38 1   
    26   17   21 1   
    27   18   39 1   
    28   18   40 1   
    29   19   20 1   
    30   19   41 1   
    31   20   21 1   
    32   20   42 1   
    33   20   43 1   
    34   21   22 1   
    35   21   44 1   
    36   22   45 1   
    37   23   36 1   
    38   23   46 1   
    39   27   28 1   
    40   30   31 1   
    41   34   35 1   
    42   46   91 1   
    43   46   96 1   
    44   46   97 1   
    45   47   63 1   
    46   47   66 1   
    47   47   67 1   
    48   47   68 1   
    49   48   49 1   
    50   48   65 1   
    51   49   50 1   
    52   49   69 1   
    53   50   51 1   
    54   50   70 1   
    55   51   52 1   
    56   51   71 1   
    57   51   72 1   
    58   52   73 1   
    59   52   74 1   
    60   52   75 1   
    61   53   54 1   
    62   53   76 1   
    63   54   55 1   
    64   55   56 1   
    65   56   57 1   
    66   56   83 1   
    67   56   84 1   
    68   57   58 1   
    69   57   59 1   
    70   58   85 1   
    71   58   86 1   
    72   58   87 1   
    73   59   60 1   
    74   59   88 1   
    75   60   89 1   
    76   60   90 1   
    77   60   99 1   
    78   61   62 1   
    79   61  100 1   
    80   61  101 1   
    81   77   78 1   
    82   79   80 1   
    83   81   82 1   
    84   91   92 1   
    85   91  114 1   
    86   92   93 1   
    87   93   94 1   
    88   94   95 1   
    89   96  111 1   
    90   96  112 1   
    91   96  113 1   
    92   98  104 1   
    93  102  103 1   
    94  105  106 1   
    95  107  108 1   
    96  109  110 1   
@<TRIPOS>SUBSTRUCTURE
     1 0OA         1 TEMP              0 ****  ****    0 ROOT
