@<TRIPOS>MOLECULE
0OA
  114    92     1     0     0
SMALL
bcc


@<TRIPOS>ATOM
      1 O15         5.0300    0.7160    1.6270 o         1 0OA     -0.833500
      2 P12         4.7930   -0.1650    0.4740 p5        1 0OA      1.966000
      3 O14         5.5960   -0.1530   -0.7760 o         1 0OA     -0.833500
      4 O13         4.2620   -2.7080    0.3740 o         1 0OA     -0.325000
      5 C16         4.7740   -1.7900    1.0310 c2        1 0OA     -0.409000
      6 C17         5.1950   -5.7280   -0.1260 c2        1 0OA     -0.170000
      7 O22         3.9350   -6.2790   -0.4690 os        1 0OA     -0.043000
      8 C23         2.8980   -5.5450   -0.6400 c1        1 0OA     -0.046000
      9 C18         6.2640   -6.5270   -0.0180 c2        1 0OA     -0.064000
     10 O19         6.1110   -7.9020   -0.2960 os        1 0OA     -0.054000
     11 C20         7.1230   -8.6450    0.1540 c1        1 0OA     -0.054000
     12 C21         7.9850   -9.3840    0.5250 c1        1 0OA     -0.251000
     13 O11         3.2160    0.0790    0.0510 os        1 0OA     -0.754000
     14 C4          2.7910   -0.4190   -1.1940 c3        1 0OA      0.112000
     15 C3          1.5750   -1.3340   -0.9450 c3        1 0OA     -0.023000
     16 O7          0.6210   -0.7710   -0.0690 oh        1 0OA     -0.342000
     17 C2          2.3180    2.0300   -2.0070 cv        1 0OA     -0.001000
     18 O8          2.3410    2.9570   -1.0320 oh        1 0OA     -0.229000
     19 C5          2.4630    0.6810   -2.1130 cv        1 0OA     -0.248000
     20 C6          2.2400    0.6780   -3.6160 cy        1 0OA     -0.158000
     21 C1          2.0690    2.2480   -3.5090 cy        1 0OA      0.073000
     22 O9          3.0070    3.0050   -4.2060 oh        1 0OA     -0.329000
     23 O10         6.7000    0.9800   -3.2080 oh        1 0OA     -0.225000
     24 H2          7.2710   -6.1830    0.2510 h4        1 0OA      0.162000
     25 H3          5.2590   -2.0320    2.0050 h4        1 0OA      0.073000
     26 H4          5.2230   -4.6360    0.0250 h4        1 0OA      0.196000
     27 H5          3.0280   -5.5920   -3.0290 ha        1 0OA      0.001567
     28 H6          3.3160   -4.9800   -2.9610 ha        1 0OA      0.001567
     29 H7          2.9490   -4.4410   -0.5210 ha        1 0OA      0.072000
     30 H8          5.4780   -9.6010   -1.9170 ha        1 0OA      0.001567
     31 H9          5.8240  -10.1040   -1.6210 ha        1 0OA      0.001567
     32 H10         3.7410   -8.5800   -0.6670 ha        1 0OA      0.001567
     33 H11         3.9120   -8.8680   -0.0770 ha        1 0OA      0.001567
     34 H12         4.4210   -7.4260   -2.6390 ha        1 0OA      0.001567
     35 H13         5.0500   -7.4530   -2.3860 ha        1 0OA      0.001567
     36 H15         3.6210   -1.0440   -1.6510 h1        1 0OA      0.105000
     37 H16         1.9380   -2.3060   -0.5110 h1        1 0OA      0.077000
     38 H17         1.1070   -0.2680    0.5990 ho        1 0OA      0.220000
     39 H18         1.0290   -1.5230   -1.9060 h1        1 0OA      0.077000
     40 H19         2.5670    2.4920   -0.2050 ho        1 0OA      0.247000
     41 H20         6.1910    0.7040   -2.3960 ho        1 0OA      0.347000
     42 H21         3.1230    0.3690   -4.2150 hc        1 0OA      0.092500
     43 H22         1.3280    0.1440   -3.9500 hc        1 0OA      0.092500
     44 H23         1.0660    2.6500   -3.7730 h1        1 0OA      0.122000
     45 H24         3.8930    2.6710   -3.9740 ho        1 0OA      0.240000
     46 C7          5.9520    1.7280   -3.9680 c1        1 0OA      0.032000
     47 C13         0.4870   -8.7600   -2.6150 c3        1 0OA     -0.222000
     48 C14         1.8400   -8.1310   -2.7680 c3        1 0OA     -0.222000
     49 C15         3.1580  -12.7140   -1.8550 c1        1 0OA      0.136500
     50 C19         2.8470  -11.4530   -1.7860 c2        1 0OA     -0.547500
     51 C22         1.8000  -17.5230   -1.8180 c1        1 0OA     -0.212000
     52 C24         2.7750  -16.8470   -1.9700 c1        1 0OA     -0.155000
     53 C25         3.9380  -16.0180   -2.1300 c3        1 0OA      0.016000
     54 C26         4.6660  -16.2950   -3.3350 c1        1 0OA     -0.075000
     55 C27         5.2900  -16.5070   -4.3390 c1        1 0OA     -0.080000
     56 C28         5.9960  -16.7400   -5.4650 c1        1 0OA      0.004000
     57 C29         6.6270  -16.9460   -6.4680 c1        1 0OA     -0.034000
     58 C30         7.3360  -17.1750   -7.5930 c1        1 0OA     -0.056000
     59 C31         7.9690  -17.3760   -8.5940 c1        1 0OA     -0.122000
     60 C32         8.7160  -17.6110   -9.7830 c3        1 0OA     -0.112000
     61 C33        10.6540  -19.2840   -4.8510 c2        1 0OA     -0.547500
     62 C34        11.5020  -20.2650   -4.7200 c1        1 0OA      0.136500
     63 H35        -0.3170   -7.9870   -2.6840 hc        1 0OA      0.073833
     64 H36         8.7420  -10.0490    0.8470 ha        1 0OA      0.236000
     65 H37         2.6430   -8.9080   -2.7270 hc        1 0OA      0.073833
     66 H38         2.0340   -7.3880   -1.9490 hc        1 0OA      0.073833
     67 H39         0.3080   -9.5230   -3.4110 hc        1 0OA      0.073833
     68 H40         0.3970   -9.2640   -1.6210 hc        1 0OA      0.073833
     69 H41         1.8570  -11.0420   -2.0540 ha        1 0OA      0.202000
     70 H42         1.9210   -7.5980   -3.7470 hc        1 0OA      0.073833
     71 H43         3.5430  -10.6570   -1.4550 ha        1 0OA      0.202000
     72 H44         0.9350  -18.1180   -1.6810 ha        1 0OA      0.220000
     73 H45         5.4300  -13.0150   -1.2930 ha        1 0OA      0.001567
     74 H46         5.4710  -12.3580   -1.4630 ha        1 0OA      0.001567
     75 H47         4.6270  -16.1630   -1.2400 hc        1 0OA      0.150000
     76 H48         3.6260  -14.9210   -2.1230 hc        1 0OA      0.150000
     77 H49         4.1430  -14.4210    0.5960 ha        1 0OA      0.001567
     78 H50         3.9500  -14.0470    0.0630 ha        1 0OA      0.001567
     79 H51         5.1220  -16.3650    1.0280 ha        1 0OA      0.001567
     80 H52         4.8070  -16.9090    1.2800 ha        1 0OA      0.001567
     81 H53         6.7830  -15.2120   -0.3210 ha        1 0OA      0.001567
     82 H54         6.2680  -14.7790   -0.2320 ha        1 0OA      0.001567
     83 H55         6.4550  -17.4680   -0.4400 ha        1 0OA      0.001567
     84 H56         6.9240  -17.7860   -0.8120 ha        1 0OA      0.001567
     85 H57         8.6090  -16.2780   -0.9840 ha        1 0OA      0.001567
     86 H58         9.2290  -16.0590   -1.1470 ha        1 0OA      0.001567
     87 H59         8.4820  -18.8380   -2.3800 ha        1 0OA      0.001567
     88 H60         8.7100  -18.2220   -2.2100 ha        1 0OA      0.001567
     89 H61         9.4760  -16.8000   -9.9350 hc        1 0OA      0.099000
     90 H62         9.2560  -18.5930   -9.7200 hc        1 0OA      0.099000
     91 C8          6.5830    2.1900   -5.2150 c2        1 0OA     -0.217000
     92 C9          7.6250    2.9610   -5.3190 c1        1 0OA     -0.026000
     93 C10         8.6340    3.7950   -5.4980 c2        1 0OA     -0.229000
     94 C11         9.9290    3.4260   -5.9210 c1        1 0OA     -0.071000
     95 C12         5.4290   -3.2760   -4.0450 c2        1 0OA     -0.232500
     96 C35         5.2780   -2.7050   -2.8570 c2        1 0OA     -0.232500
     97 H14         7.6340   -0.8280   -1.7670 ha        1 0OA      0.001567
     98 H25         8.0260   -0.9220   -2.3120 ha        1 0OA      0.001567
     99 H541        9.9150  -19.0060   -4.0800 ha        1 0OA      0.202000
    100 H551        8.0370  -17.6350  -10.6750 hc        1 0OA      0.099000
    101 H561       11.2030  -17.5580   -7.6100 ha        1 0OA      0.001567
    102 H571       10.5920  -17.5870   -7.9040 ha        1 0OA      0.001567
    103 H581       10.5930  -18.6410   -5.7460 ha        1 0OA      0.202000
    104 H591        5.7140   -1.7250   -2.5920 ha        1 0OA      0.115750
    105 H601        7.7540    1.2490   -0.9370 ha        1 0OA      0.001567
    106 H611        8.0450    1.7920   -1.2200 ha        1 0OA      0.001567
    107 H621        8.4540    4.8820   -5.3720 ha        1 0OA      0.154000
    108 H63         6.0020   -2.8090   -4.8570 ha        1 0OA      0.115750
    109 H64        10.2430    2.3860   -5.7420 ha        1 0OA      0.037000
    110 H65         4.9900   -4.2510   -4.2970 ha        1 0OA      0.115750
    111 H66         5.1930   -0.2310   -5.2480 ha        1 0OA      0.001567
    112 H67         5.1750   -0.6140   -4.6870 ha        1 0OA      0.001567
    113 H68         5.9800    1.9220   -6.1060 ha        1 0OA      0.178000
    114 H69         4.7020   -3.1710   -2.0430 ha        1 0OA      0.115750
@<TRIPOS>BOND
     1    1    2 1   
     2    2    3 1   
     3    2    5 1   
     4    2   13 1   
     5    4    5 1   
     6    5   25 1   
     7    6    7 1   
     8    6    9 1   
     9    6   26 1   
    10    7    8 1   
    11    8   29 1   
    12    9   10 1   
    13    9   24 1   
    14   10   11 1   
    15   11   12 1   
    16   12   64 1   
    17   13   14 1   
    18   14   15 1   
    19   14   19 1   
    20   14   36 1   
    21   15   16 1   
    22   15   37 1   
    23   15   39 1   
    24   16   38 1   
    25   17   18 1   
    26   17   19 1   
    27   17   21 1   
    28   18   40 1   
    29   19   20 1   
    30   20   21 1   
    31   20   42 1   
    32   20   43 1   
    33   21   22 1   
    34   21   44 1   
    35   22   45 1   
    36   23   41 1   
    37   23   46 1   
    38   27   28 1   
    39   30   31 1   
    40   32   33 1   
    41   34   35 1   
    42   46   91 1   
    43   47   48 1   
    44   47   63 1   
    45   47   67 1   
    46   47   68 1   
    47   48   65 1   
    48   48   66 1   
    49   48   70 1   
    50   49   50 1   
    51   50   69 1   
    52   50   71 1   
    53   51   52 1   
    54   51   72 1   
    55   52   53 1   
    56   53   54 1   
    57   53   75 1   
    58   53   76 1   
    59   54   55 1   
    60   55   56 1   
    61   56   57 1   
    62   57   58 1   
    63   58   59 1   
    64   59   60 1   
    65   60   89 1   
    66   60   90 1   
    67   60  100 1   
    68   61   62 1   
    69   61   99 1   
    70   61  103 1   
    71   73   74 1   
    72   77   78 1   
    73   79   80 1   
    74   81   82 1   
    75   83   84 1   
    76   85   86 1   
    77   87   88 1   
    78   91   92 1   
    79   91  113 1   
    80   92   93 1   
    81   93   94 1   
    82   93  107 1   
    83   94  109 1   
    84   95   96 1   
    85   95  108 1   
    86   95  110 1   
    87   96  104 1   
    88   96  114 1   
    89   97   98 1   
    90  101  102 1   
    91  105  106 1   
    92  111  112 1   
@<TRIPOS>SUBSTRUCTURE
     1 0OA         1 TEMP              0 ****  ****    0 ROOT
