@<TRIPOS>MOLECULE
0OA
  114   115     1     0     0
SMALL
bcc


@<TRIPOS>ATOM
      1 O15        -2.2340   -1.1970   -0.4010 o         1 0OA     -0.829000
      2 P12        -2.4060    0.2520   -0.6570 p5        1 0OA      1.430800
      3 O14        -1.5920    1.3290   -0.0740 o         1 0OA     -0.829000
      4 O13        -2.4650    0.4390   -2.2870 os        1 0OA     -0.565200
      5 C16        -3.2600   -0.4550   -3.0070 c3        1 0OA      0.191400
      6 C17        -2.3880   -1.4970   -3.7370 c3        1 0OA      0.083100
      7 O22        -2.8420   -1.4970   -5.0990 os        1 0OA     -0.431600
      8 C23        -1.9260   -2.1120   -5.9840 c3        1 0OA      0.119700
      9 C18        -2.5420   -2.8970   -3.1340 c3        1 0OA      0.095400
     10 O19        -1.3330   -3.6440   -3.2360 os        1 0OA     -0.450600
     11 C20        -0.4350   -3.4550   -2.1440 c3        1 0OA      0.107400
     12 C21         0.8730   -2.8840   -2.6700 c3        1 0OA     -0.095400
     13 O11        -3.9840    0.6310   -0.2800 os        1 0OA     -0.568200
     14 C4         -4.6600   -0.1960    0.6050 c3        1 0OA      0.178100
     15 C3         -6.0600   -0.5240    0.0430 c3        1 0OA      0.141100
     16 O7         -5.8910   -1.2200   -1.1790 oh        1 0OA     -0.584800
     17 C2         -6.8310   -1.4260    1.0250 c3        1 0OA      0.109100
     18 O8         -8.1180   -1.6330    0.4580 oh        1 0OA     -0.616800
     19 C5         -4.8260    0.5040    1.9790 c3        1 0OA      0.125100
     20 C6         -5.5710   -0.4130    2.9450 c3        1 0OA     -0.106400
     21 C1         -6.9490   -0.7530    2.3980 c3        1 0OA      0.107100
     22 O9         -7.6350   -1.6810    3.2360 oh        1 0OA     -0.623800
     23 O10        -5.5940    1.7070    1.9210 os        1 0OA     -0.447600
     24 H2         -3.9900   -0.9630   -2.3180 h1        1 0OA      0.049700
     25 H3         -3.8250    0.1420   -3.7780 h1        1 0OA      0.049700
     26 H4         -1.3080   -1.1840   -3.7020 h1        1 0OA      0.060700
     27 H5         -2.4600   -2.1510   -6.9660 h1        1 0OA      0.024700
     28 H6         -0.9970   -1.4960   -6.0720 h1        1 0OA      0.024700
     29 H7         -1.6630   -3.1420   -5.6360 h1        1 0OA      0.024700
     30 H8         -2.8750   -2.8280   -2.0630 h1        1 0OA      0.072200
     31 H9         -3.2820   -3.4940   -3.7320 h1        1 0OA      0.072200
     32 H10        -0.8710   -2.7880   -1.3490 h1        1 0OA      0.066700
     33 H11        -0.2620   -4.4810   -1.7160 h1        1 0OA      0.066700
     34 H12         1.2690   -3.5420   -3.4870 hc        1 0OA      0.040200
     35 H13         0.6830   -1.8750   -3.1190 hc        1 0OA      0.040200
     36 H15        -4.0850   -1.1600    0.7520 h1        1 0OA      0.085700
     37 H16        -6.6280    0.4320   -0.1290 h1        1 0OA      0.059700
     38 H17        -6.7790   -1.3690   -1.5280 ho        1 0OA      0.401000
     39 H18        -6.3090   -2.4170    1.1290 h1        1 0OA      0.057700
     40 H19        -8.6230   -2.1370    1.1070 ho        1 0OA      0.410000
     41 H20        -3.8070    0.7420    2.3960 h1        1 0OA      0.056700
     42 H21        -4.9730   -1.3490    3.0920 hc        1 0OA      0.051200
     43 H22        -5.6790    0.0970    3.9360 hc        1 0OA      0.051200
     44 H23        -7.5660    0.1860    2.3060 h1        1 0OA      0.063700
     45 H24        -7.6290   -1.3060    4.1240 ho        1 0OA      0.399000
     46 C7         -4.9550    2.7650    1.2000 c3        1 0OA      0.131400
     47 C13         1.8860   -2.7680   -1.5540 c3        1 0OA     -0.079400
     48 C14         3.1930   -2.1940   -2.0560 c3        1 0OA     -0.076400
     49 C15         4.2060   -2.0720   -0.9370 c3        1 0OA     -0.079400
     50 C19         5.5140   -1.4990   -1.4380 c3        1 0OA     -0.078400
     51 C22         6.5260   -1.3770   -0.3190 c3        1 0OA     -0.079400
     52 C24         7.8340   -0.8030   -0.8200 c3        1 0OA     -0.078400
     53 C25         8.8460   -0.6820    0.2990 c3        1 0OA     -0.079400
     54 C26        10.1540   -0.1090   -0.2020 c3        1 0OA     -0.078400
     55 C27        11.1660    0.0120    0.9180 c3        1 0OA     -0.079400
     56 C28        12.4750    0.5840    0.4170 c3        1 0OA     -0.078400
     57 C29        13.4860    0.7060    1.5360 c3        1 0OA     -0.079400
     58 C30        14.7950    1.2780    1.0350 c3        1 0OA     -0.078400
     59 C31        15.8060    1.3990    2.1550 c3        1 0OA     -0.079400
     60 C32        17.1150    1.9700    1.6540 c3        1 0OA     -0.079400
     61 C33        18.1280    2.0920    2.7730 c3        1 0OA     -0.080400
     62 C34        19.4330    2.6610    2.2790 c3        1 0OA     -0.092100
     63 H35         1.4720   -2.1120   -0.7420 hc        1 0OA      0.045200
     64 H36         2.0680   -3.7800   -1.1030 hc        1 0OA      0.045200
     65 H37         3.6060   -2.8480   -2.8690 hc        1 0OA      0.036200
     66 H38         3.0080   -1.1830   -2.5060 hc        1 0OA      0.036200
     67 H39         3.7910   -1.4140   -0.1280 hc        1 0OA      0.040700
     68 H40         4.3870   -3.0820   -0.4820 hc        1 0OA      0.040700
     69 H41         5.9270   -2.1550   -2.2490 hc        1 0OA      0.037200
     70 H42         5.3310   -0.4890   -1.8910 hc        1 0OA      0.037200
     71 H43         6.1120   -0.7190    0.4900 hc        1 0OA      0.039200
     72 H44         6.7070   -2.3860    0.1360 hc        1 0OA      0.039200
     73 H45         8.2470   -1.4610   -1.6300 hc        1 0OA      0.038200
     74 H46         7.6520    0.2060   -1.2740 hc        1 0OA      0.038200
     75 H47         8.4320   -0.0240    1.1090 hc        1 0OA      0.038700
     76 H48         9.0260   -1.6910    0.7540 hc        1 0OA      0.038700
     77 H49        10.5670   -0.7670   -1.0120 hc        1 0OA      0.038200
     78 H50         9.9730    0.9000   -0.6560 hc        1 0OA      0.038200
     79 H51        10.7530    0.6700    1.7270 hc        1 0OA      0.039200
     80 H52        11.3460   -0.9970    1.3730 hc        1 0OA      0.039200
     81 H53        12.8870   -0.0730   -0.3930 hc        1 0OA      0.038700
     82 H54        12.2940    1.5940   -0.0380 hc        1 0OA      0.038700
     83 H55        13.0740    1.3640    2.3460 hc        1 0OA      0.039200
     84 H56        13.6660   -0.3040    1.9910 hc        1 0OA      0.039200
     85 H57        15.2070    0.6200    0.2260 hc        1 0OA      0.039200
     86 H58        14.6150    2.2870    0.5810 hc        1 0OA      0.039200
     87 H59        15.3940    2.0570    2.9650 hc        1 0OA      0.039200
     88 H60        15.9870    0.3890    2.6100 hc        1 0OA      0.039200
     89 H61        17.5280    1.3130    0.8440 hc        1 0OA      0.039200
     90 H62        16.9350    2.9800    1.1990 hc        1 0OA      0.039200
     91 C8         -5.5620    4.0730    1.7050 c3        1 0OA     -0.068700
     92 C9         -4.7350    5.2430    1.1950 c3        1 0OA     -0.074400
     93 C10        -5.3290    6.5650    1.6350 c3        1 0OA     -0.073900
     94 C11        -6.7760    6.6940    1.2040 c3        1 0OA     -0.075400
     95 C12        -7.6030    5.5270    1.7030 c3        1 0OA     -0.073900
     96 C35        -7.0090    4.2060    1.2590 c3        1 0OA     -0.074400
     97 H14        -3.8460    2.7500    1.3740 h1        1 0OA      0.066200
     98 H25        -5.1530    2.6160    0.1060 h1        1 0OA      0.066200
     99 H541       17.7130    2.7490    3.5820 hc        1 0OA      0.038200
    100 H551       18.3050    1.0820    3.2280 hc        1 0OA      0.038200
    101 H561       19.8740    2.0070    1.4890 hc        1 0OA      0.031033
    102 H571       19.2800    3.6790    1.8450 hc        1 0OA      0.031033
    103 H581       20.1640    2.7420    3.1190 hc        1 0OA      0.031033
    104 H591       -5.5350    4.0690    2.8300 hc        1 0OA      0.046700
    105 H601       -3.6850    5.1550    1.5780 hc        1 0OA      0.047950
    106 H611       -4.6870    5.2030    0.0750 hc        1 0OA      0.047950
    107 H621       -5.2640    6.6500    2.7510 hc        1 0OA      0.029700
    108 H63        -4.7310    7.4080    1.1980 hc        1 0OA      0.029700
    109 H64        -7.2020    7.6540    1.5970 hc        1 0OA      0.030200
    110 H65        -6.8280    6.7360    0.0840 hc        1 0OA      0.030200
    111 H66        -7.6530    5.5570    2.8230 hc        1 0OA      0.029700
    112 H67        -8.6510    5.6170    1.3160 hc        1 0OA      0.029700
    113 H68        -7.0630    4.1260    0.1410 hc        1 0OA      0.047950
    114 H69        -7.6010    3.3540    1.6860 hc        1 0OA      0.047950
@<TRIPOS>BOND
     1    1    2 1   
     2    2    3 1   
     3    2    4 1   
     4    2   13 1   
     5    4    5 1   
     6    5    6 1   
     7    5   24 1   
     8    5   25 1   
     9    6    7 1   
    10    6    9 1   
    11    6   26 1   
    12    7    8 1   
    13    8   27 1   
    14    8   28 1   
    15    8   29 1   
    16    9   10 1   
    17    9   30 1   
    18    9   31 1   
    19   10   11 1   
    20   11   12 1   
    21   11   32 1   
    22   11   33 1   
    23   12   34 1   
    24   12   35 1   
    25   12   47 1   
    26   13   14 1   
    27   14   15 1   
    28   14   19 1   
    29   14   36 1   
    30   15   16 1   
    31   15   17 1   
    32   15   37 1   
    33   16   38 1   
    34   17   18 1   
    35   17   21 1   
    36   17   39 1   
    37   18   40 1   
    38   19   20 1   
    39   19   23 1   
    40   19   41 1   
    41   20   21 1   
    42   20   42 1   
    43   20   43 1   
    44   21   22 1   
    45   21   44 1   
    46   22   45 1   
    47   23   46 1   
    48   46   91 1   
    49   46   97 1   
    50   46   98 1   
    51   47   48 1   
    52   47   63 1   
    53   47   64 1   
    54   48   49 1   
    55   48   65 1   
    56   48   66 1   
    57   49   50 1   
    58   49   67 1   
    59   49   68 1   
    60   50   51 1   
    61   50   69 1   
    62   50   70 1   
    63   51   52 1   
    64   51   71 1   
    65   51   72 1   
    66   52   53 1   
    67   52   73 1   
    68   52   74 1   
    69   53   54 1   
    70   53   75 1   
    71   53   76 1   
    72   54   55 1   
    73   54   77 1   
    74   54   78 1   
    75   55   56 1   
    76   55   79 1   
    77   55   80 1   
    78   56   57 1   
    79   56   81 1   
    80   56   82 1   
    81   57   58 1   
    82   57   83 1   
    83   57   84 1   
    84   58   59 1   
    85   58   85 1   
    86   58   86 1   
    87   59   60 1   
    88   59   87 1   
    89   59   88 1   
    90   60   61 1   
    91   60   89 1   
    92   60   90 1   
    93   61   62 1   
    94   61   99 1   
    95   61  100 1   
    96   62  101 1   
    97   62  102 1   
    98   62  103 1   
    99   91   92 1   
   100   91   96 1   
   101   91  104 1   
   102   92   93 1   
   103   92  105 1   
   104   92  106 1   
   105   93   94 1   
   106   93  107 1   
   107   93  108 1   
   108   94   95 1   
   109   94  109 1   
   110   94  110 1   
   111   95   96 1   
   112   95  111 1   
   113   95  112 1   
   114   96  113 1   
   115   96  114 1   
@<TRIPOS>SUBSTRUCTURE
     1 0OA         1 TEMP              0 ****  ****    0 ROOT
