@<TRIPOS>MOLECULE
0OA
  114   115     1     0     0
SMALL
bcc


@<TRIPOS>ATOM
      1 O15         5.2350   -3.6470    5.4630 o         1 0OA     -0.823000
      2 P12         5.7220   -3.1680    4.1170 p5        1 0OA      1.430800
      3 O14         6.3930   -1.8290    4.2730 o         1 0OA     -0.823000
      4 O13         4.4670   -3.0280    3.1120 os        1 0OA     -0.567200
      5 C16         3.3460   -2.2170    3.5230 c3        1 0OA      0.162400
      6 C17         2.3030   -2.1700    2.3910 c3        1 0OA      0.088100
      7 O22         2.9400   -2.3150    1.1710 os        1 0OA     -0.448600
      8 C23         2.3640   -3.2790    0.3420 c3        1 0OA      0.115700
      9 C18         1.5710   -0.8330    2.4260 c3        1 0OA      0.131400
     10 O19         0.6650   -0.7460    1.2880 os        1 0OA     -0.427600
     11 C20         0.1480    0.6130    1.0410 c3        1 0OA      0.127400
     12 C21        -1.3600    0.5380    0.6750 c3        1 0OA     -0.084400
     13 O11         6.7750   -4.2260    3.5210 os        1 0OA     -0.576200
     14 C4          7.6350   -4.8930    4.4160 c3        1 0OA      0.160100
     15 C3          8.7600   -3.9420    4.8220 c3        1 0OA      0.108100
     16 O7          8.2100   -2.8810    5.5850 oh        1 0OA     -0.647800
     17 C2          9.8390   -4.6360    5.6500 c3        1 0OA      0.081100
     18 O8         10.9150   -3.7440    5.8310 oh        1 0OA     -0.631800
     19 C5          8.1540   -6.1550    3.7510 c3        1 0OA      0.132100
     20 C6          9.2330   -6.8470    4.5790 c3        1 0OA     -0.075400
     21 C1         10.3570   -5.8980    4.9850 c3        1 0OA      0.148100
     22 O9         11.2120   -6.5680    5.8870 oh        1 0OA     -0.616800
     23 O10         8.7000   -5.8130    2.4710 os        1 0OA     -0.438600
     24 H2          3.6600   -1.2980    3.7210 h1        1 0OA      0.044700
     25 H3          2.9370   -2.6060    4.3320 h1        1 0OA      0.044700
     26 H4          1.6620   -2.8920    2.5110 h1        1 0OA      0.067700
     27 H5          2.6340   -3.1130   -0.5890 h1        1 0OA      0.035367
     28 H6          2.6680   -4.1740    0.6180 h1        1 0OA      0.035367
     29 H7          1.3820   -3.2290    0.4130 h1        1 0OA      0.035367
     30 H8          1.0640   -0.7630    3.2480 h1        1 0OA      0.059200
     31 H9          2.2130   -0.1140    2.3810 h1        1 0OA      0.059200
     32 H10         0.2620    1.1580    1.8500 h1        1 0OA      0.035200
     33 H11         0.6460    1.0230    0.2970 h1        1 0OA      0.035200
     34 H12        -1.6110   -0.3910    0.5170 hc        1 0OA      0.049200
     35 H13        -1.8880    0.8940    1.4040 hc        1 0OA      0.049200
     36 H15         7.1290   -5.1410    5.2130 h1        1 0OA      0.048700
     37 H16         9.1700   -3.5720    4.0110 h1        1 0OA      0.076700
     38 H17         8.8310   -2.2680    5.7290 ho        1 0OA      0.465000
     39 H18         9.4660   -4.8680    6.5310 h1        1 0OA      0.049700
     40 H19        11.0730   -3.6430    6.7010 ho        1 0OA      0.426000
     41 H20         7.4170   -6.7670    3.6240 h1        1 0OA      0.055700
     42 H21         8.8270   -7.2140    5.3800 hc        1 0OA      0.057200
     43 H22         9.6110   -7.5770    4.0540 hc        1 0OA      0.057200
     44 H23        10.8660   -5.6510    4.1890 h1        1 0OA      0.056700
     45 H24        12.0330   -6.6320    5.5300 ho        1 0OA      0.412000
     46 C7          8.7210   -6.9020    1.5330 c3        1 0OA      0.137400
     47 C13        -1.6230    1.3700   -0.6090 c3        1 0OA     -0.077400
     48 C14        -3.0240    2.0520   -0.5070 c3        1 0OA     -0.078400
     49 C15        -3.3500    2.7560   -1.8290 c3        1 0OA     -0.079400
     50 C19        -4.7580    3.3720   -1.7480 c3        1 0OA     -0.079400
     51 C22        -4.9820    4.2910   -2.9560 c3        1 0OA     -0.079400
     52 C24        -6.4560    4.2880   -3.3310 c3        1 0OA     -0.079400
     53 C25        -6.8240    5.6510   -4.0110 c3        1 0OA     -0.078400
     54 C26        -8.1730    5.5310   -4.6770 c3        1 0OA     -0.079400
     55 C27        -8.9600    6.8390   -4.4870 c3        1 0OA     -0.079400
     56 C28       -10.5000    6.5330   -4.5480 c3        1 0OA     -0.078400
     57 C29       -11.3020    7.8460   -4.3170 c3        1 0OA     -0.077400
     58 C30       -12.4320    7.5930   -3.2610 c3        1 0OA     -0.079400
     59 C31       -13.6640    8.4780   -3.5990 c3        1 0OA     -0.079400
     60 C32       -14.5500    8.6060   -2.3600 c3        1 0OA     -0.079400
     61 C33       -16.0280    8.5070   -2.7700 c3        1 0OA     -0.080400
     62 C34       -16.9200    8.7010   -1.5290 c3        1 0OA     -0.092100
     63 H35        -1.6020    0.7800   -1.3890 hc        1 0OA      0.038700
     64 H36        -0.9340    2.0560   -0.7000 hc        1 0OA      0.038700
     65 H37        -3.7000    1.3750   -0.3240 hc        1 0OA      0.039200
     66 H38        -3.0150    2.7110    0.2200 hc        1 0OA      0.039200
     67 H39        -3.3200    2.1080   -2.5590 hc        1 0OA      0.038700
     68 H40        -2.6950    3.4610   -1.9920 hc        1 0OA      0.038700
     69 H41        -4.8410    3.8970   -0.9140 hc        1 0OA      0.038700
     70 H42        -5.4310    2.6550   -1.7530 hc        1 0OA      0.038700
     71 H43        -4.4480    3.9660   -3.7190 hc        1 0OA      0.038700
     72 H44        -4.7070    5.1960   -2.7300 hc        1 0OA      0.038700
     73 H45        -6.6340    3.5490   -3.9570 hc        1 0OA      0.039200
     74 H46        -7.0000    4.1680   -2.5200 hc        1 0OA      0.039200
     75 H47        -6.1410    5.8770   -4.6880 hc        1 0OA      0.039200
     76 H48        -6.8570    6.3550   -3.3330 hc        1 0OA      0.039200
     77 H49        -8.6670    4.7950   -4.2770 hc        1 0OA      0.039200
     78 H50        -8.0510    5.3600   -5.6360 hc        1 0OA      0.039200
     79 H51        -8.7380    7.2330   -3.6120 hc        1 0OA      0.039700
     80 H52        -8.7190    7.4780   -5.2090 hc        1 0OA      0.039700
     81 H53       -10.7250    6.1650   -5.4270 hc        1 0OA      0.038700
     82 H54       -10.7310    5.8830   -3.8530 hc        1 0OA      0.038700
     83 H55       -11.7120    8.1400   -5.1780 hc        1 0OA      0.038200
     84 H56       -10.6980    8.5420   -3.9890 hc        1 0OA      0.038200
     85 H57       -12.1000    7.8230   -2.3660 hc        1 0OA      0.040200
     86 H58       -12.6950    6.6420   -3.2800 hc        1 0OA      0.040200
     87 H59       -13.3620    9.3680   -3.8790 hc        1 0OA      0.038200
     88 H60       -14.1740    8.0640   -4.3220 hc        1 0OA      0.038200
     89 H61       -14.3900    9.4640   -1.9350 hc        1 0OA      0.039700
     90 H62       -14.3380    7.8880   -1.7330 hc        1 0OA      0.039700
     91 C8          9.5690   -6.5070    0.3110 c3        1 0OA     -0.071700
     92 C9         10.9940   -6.9490    0.5400 c3        1 0OA     -0.073900
     93 C10        11.8680   -6.7560   -0.6910 c3        1 0OA     -0.073900
     94 C11        11.2620   -7.3780   -1.9380 c3        1 0OA     -0.075400
     95 C12         9.8410   -6.9390   -2.1690 c3        1 0OA     -0.073900
     96 C35         8.9630   -7.1310   -0.9350 c3        1 0OA     -0.073900
     97 H14         7.7960   -7.1050    1.2410 h1        1 0OA      0.055700
     98 H25         9.1130   -7.6970    1.9610 h1        1 0OA      0.055700
     99 H541      -16.2300    9.1980   -3.4270 hc        1 0OA      0.038200
    100 H551      -16.1990    7.6310   -3.1570 hc        1 0OA      0.038200
    101 H561      -16.5330    8.2150   -0.7670 hc        1 0OA      0.031700
    102 H571      -17.8330    8.3500   -1.7180 hc        1 0OA      0.031700
    103 H581      -16.9760    9.6640   -1.3110 hc        1 0OA      0.031700
    104 H591        9.5510   -5.5390    0.2160 hc        1 0OA      0.054700
    105 H601       10.9960   -7.9040    0.7860 hc        1 0OA      0.045450
    106 H611       11.3730   -6.4280    1.2840 hc        1 0OA      0.045450
    107 H621       11.9920   -5.7980   -0.8440 hc        1 0OA      0.031450
    108 H63        12.7490   -7.1690   -0.5250 hc        1 0OA      0.031450
    109 H64        11.8060   -7.1190   -2.7190 hc        1 0OA      0.030700
    110 H65        11.2820   -8.3550   -1.8480 hc        1 0OA      0.030700
    111 H66         9.4610   -7.4670   -2.9190 hc        1 0OA      0.031450
    112 H67         9.8390   -5.9890   -2.4160 hc        1 0OA      0.031450
    113 H68         8.8380   -8.0910   -0.7800 hc        1 0OA      0.045450
    114 H69         8.0900   -6.7210   -1.1010 hc        1 0OA      0.045450
@<TRIPOS>BOND
     1    1    2 1   
     2    2    3 1   
     3    2    4 1   
     4    2   13 1   
     5    4    5 1   
     6    5    6 1   
     7    5   24 1   
     8    5   25 1   
     9    6    7 1   
    10    6    9 1   
    11    6   26 1   
    12    7    8 1   
    13    8   27 1   
    14    8   28 1   
    15    8   29 1   
    16    9   10 1   
    17    9   30 1   
    18    9   31 1   
    19   10   11 1   
    20   11   12 1   
    21   11   32 1   
    22   11   33 1   
    23   12   34 1   
    24   12   35 1   
    25   12   47 1   
    26   13   14 1   
    27   14   15 1   
    28   14   19 1   
    29   14   36 1   
    30   15   16 1   
    31   15   17 1   
    32   15   37 1   
    33   16   38 1   
    34   17   18 1   
    35   17   21 1   
    36   17   39 1   
    37   18   40 1   
    38   19   20 1   
    39   19   23 1   
    40   19   41 1   
    41   20   21 1   
    42   20   42 1   
    43   20   43 1   
    44   21   22 1   
    45   21   44 1   
    46   22   45 1   
    47   23   46 1   
    48   46   91 1   
    49   46   97 1   
    50   46   98 1   
    51   47   48 1   
    52   47   63 1   
    53   47   64 1   
    54   48   49 1   
    55   48   65 1   
    56   48   66 1   
    57   49   50 1   
    58   49   67 1   
    59   49   68 1   
    60   50   51 1   
    61   50   69 1   
    62   50   70 1   
    63   51   52 1   
    64   51   71 1   
    65   51   72 1   
    66   52   53 1   
    67   52   73 1   
    68   52   74 1   
    69   53   54 1   
    70   53   75 1   
    71   53   76 1   
    72   54   55 1   
    73   54   77 1   
    74   54   78 1   
    75   55   56 1   
    76   55   79 1   
    77   55   80 1   
    78   56   57 1   
    79   56   81 1   
    80   56   82 1   
    81   57   58 1   
    82   57   83 1   
    83   57   84 1   
    84   58   59 1   
    85   58   85 1   
    86   58   86 1   
    87   59   60 1   
    88   59   87 1   
    89   59   88 1   
    90   60   61 1   
    91   60   89 1   
    92   60   90 1   
    93   61   62 1   
    94   61   99 1   
    95   61  100 1   
    96   62  101 1   
    97   62  102 1   
    98   62  103 1   
    99   91   92 1   
   100   91   96 1   
   101   91  104 1   
   102   92   93 1   
   103   92  105 1   
   104   92  106 1   
   105   93   94 1   
   106   93  107 1   
   107   93  108 1   
   108   94   95 1   
   109   94  109 1   
   110   94  110 1   
   111   95   96 1   
   112   95  111 1   
   113   95  112 1   
   114   96  113 1   
   115   96  114 1   
@<TRIPOS>SUBSTRUCTURE
     1 0OA         1 TEMP              0 ****  ****    0 ROOT
