@<TRIPOS>MOLECULE
0OB
   23    19     1     0     0
SMALL
bcc


@<TRIPOS>ATOM
      1 CAU         3.2120    0.7650   -3.1340 c1        1 0OB      0.329000
      2 OAC         4.0790   -0.1470   -3.0900 o         1 0OB     -0.581000
      3 CAM         2.2660    0.9660   -1.9700 c2        1 0OB     -0.220000
      4 CAN         1.1400   -0.0400   -2.0550 c3        1 0OB     -0.107000
      5 CAW         0.2370    0.1100   -0.8510 c2        1 0OB     -0.245000
      6 CAK        -1.0820    0.6270   -0.5610 c1        1 0OB     -0.186000
      7 SAS         0.6760   -0.7670    0.3450 ss        1 0OB      0.451000
      8 CAX        -1.5350    0.0760    0.8790 c1        1 0OB     -0.050000
      9 CAY        -0.4850   -0.7460    1.3990 c1        1 0OB     -0.317000
     10 CAJ        -0.6270   -1.3480    2.6390 c1        1 0OB     -0.093000
     11 CAH        -1.7960   -1.1530    3.3810 c1        1 0OB     -0.146000
     12 CAG        -2.8330   -0.3420    2.8680 c1        1 0OB     -0.146000
     13 CAI        -2.6920    0.2670    1.6160 c1        1 0OB     -0.102000
     14 H2          1.8980    1.8720   -2.0020 ha        1 0OB      0.066500
     15 H3          2.7520    0.8410   -1.1300 ha        1 0OB      0.066500
     16 H4          0.6230    0.1170   -2.8710 hc        1 0OB      0.107000
     17 H5          1.5110   -0.9450   -2.0740 hc        1 0OB      0.107000
     18 H6         -1.6060    1.2120   -1.1400 DU        1 0OB      0.159000
     19 H7          0.0880   -1.9100    2.9930 ha        1 0OB      0.125000
     20 H8         -1.8960   -1.5770    4.2550 ha        1 0OB      0.117000
     21 H9         -3.6490   -0.2070    3.3870 ha        1 0OB      0.117000
     22 H10        -3.4120    0.8220    1.2590 ha        1 0OB      0.129000
     23 O1          3.1310    1.5080   -4.1460 o         1 0OB     -0.581000
@<TRIPOS>BOND
     1    1    2 1   
     2    1   23 1   
     3    3    4 1   
     4    3   14 1   
     5    3   15 1   
     6    4    5 1   
     7    4   16 1   
     8    4   17 1   
     9    5    6 1   
    10    5    7 1   
    11    6    8 1   
    12    7    9 1   
    13    8   13 1   
    14    9   10 1   
    15   10   19 1   
    16   11   12 1   
    17   11   20 1   
    18   12   21 1   
    19   13   22 1   
@<TRIPOS>SUBSTRUCTURE
     1 0OB         1 TEMP              0 ****  ****    0 ROOT
