@<TRIPOS>MOLECULE
0OB
   23    21     1     0     0
SMALL
bcc


@<TRIPOS>ATOM
      1 CAU         0.9150   -1.8840   -0.8280 c1        1 0OB      0.427000
      2 OAC         2.0550   -1.6320   -0.6010 o         1 0OB     -0.213500
      3 CAM        -1.1680    0.2510    1.1740 c3        1 0OB     -0.139000
      4 CAN         0.1940    0.0240    1.6770 c2        1 0OB     -0.369000
      5 CAW         0.4970   -0.3370    2.9470 c2        1 0OB      0.056000
      6 CAK        -0.3690   -0.5770    3.9780 c1        1 0OB     -0.322000
      7 SAS        -2.0510    3.1320    8.0360 s         1 0OB     -0.242000
      8 CAX        -1.1200   -0.7940    4.9410 c1        1 0OB      0.003000
      9 CAY        -2.2440    1.6360    7.6170 c2        1 0OB     -0.080000
     10 CAJ        -3.0520    0.6940    8.3090 c2        1 0OB     -0.294000
     11 CAH        -3.2310   -0.6150    7.9800 c2        1 0OB      0.032000
     12 CAG        -2.6960   -1.3880    6.9110 c2        1 0OB     -0.163000
     13 CAI        -1.8920   -0.9750    5.9520 c1        1 0OB     -0.262000
     14 H2         -1.3800   -0.4180    0.2990 hc        1 0OB      0.053667
     15 H3         -1.9330    0.0490    1.9640 hc        1 0OB      0.053667
     16 H4         -1.2930    1.3100    0.8300 hc        1 0OB      0.053667
     17 H5          1.0060    0.1840    0.9540 ha        1 0OB      0.086000
     18 H6          1.5660   -0.4700    3.2150 ha        1 0OB      0.101000
     19 H7         -1.7310    1.2250    6.7180 h4        1 0OB      0.160000
     20 H8         -3.5790    1.0790    9.2010 ha        1 0OB      0.113000
     21 H9         -3.9030   -1.1920    8.6510 ha        1 0OB      0.084000
     22 H10        -3.0170   -2.4510    6.9230 ha        1 0OB      0.074000
     23 O1         -0.2070   -2.1630   -1.1110 o         1 0OB     -0.213500
@<TRIPOS>BOND
     1    1    2 1   
     2    1   23 1   
     3    3    4 1   
     4    3   14 1   
     5    3   15 1   
     6    3   16 1   
     7    4    5 1   
     8    4   17 1   
     9    5    6 1   
    10    5   18 1   
    11    6    8 1   
    12    7    9 1   
    13    8   13 1   
    14    9   10 1   
    15    9   19 1   
    16   10   11 1   
    17   10   20 1   
    18   11   12 1   
    19   11   21 1   
    20   12   13 1   
    21   12   22 1   
@<TRIPOS>SUBSTRUCTURE
     1 0OB         1 TEMP              0 ****  ****    0 ROOT
