@<TRIPOS>MOLECULE
0OB
   23    21     1     0     0
SMALL
bcc


@<TRIPOS>ATOM
      1 CAU         0.8410   -1.8490   -0.8610 c1        1 0OB      0.427000
      2 OAC         1.9900   -1.6390   -0.6340 o         1 0OB     -0.213500
      3 CAM        -1.1590    0.3280    1.1810 c3        1 0OB     -0.139000
      4 CAN         0.1950    0.0460    1.6770 c2        1 0OB     -0.369000
      5 CAW         0.4880   -0.3440    2.9400 c2        1 0OB      0.056000
      6 CAK        -0.3830   -0.5680    3.9700 c1        1 0OB     -0.322000
      7 SAS        -1.9170    3.1410    8.0880 s         1 0OB     -0.242000
      8 CAX        -1.1380   -0.7710    4.9320 c1        1 0OB      0.003000
      9 CAY        -2.1660    1.6580    7.6480 c2        1 0OB     -0.080000
     10 CAJ        -3.0060    0.7370    8.3280 c2        1 0OB     -0.294000
     11 CAH        -3.2330   -0.5610    7.9810 c2        1 0OB      0.032000
     12 CAG        -2.7290   -1.3370    6.8990 c2        1 0OB     -0.163000
     13 CAI        -1.9130   -0.9390    5.9430 c1        1 0OB     -0.262000
     14 H2         -1.3980   -0.3200    0.2970 hc        1 0OB      0.053667
     15 H3         -1.2470    1.3950    0.8520 hc        1 0OB      0.053667
     16 H4         -1.9290    0.1420    1.9700 hc        1 0OB      0.053667
     17 H5          1.0100    0.1870    0.9530 ha        1 0OB      0.086000
     18 H6          1.5530   -0.5190    3.2030 ha        1 0OB      0.101000
     19 H7         -1.6700    1.2420    6.7410 h4        1 0OB      0.160000
     20 H8         -3.5170    1.1270    9.2270 ha        1 0OB      0.113000
     21 H9         -3.9240   -1.1220    8.6460 ha        1 0OB      0.084000
     22 H10        -3.0880   -2.3870    6.8970 ha        1 0OB      0.074000
     23 O1         -0.2910   -2.0840   -1.1430 o         1 0OB     -0.213500
@<TRIPOS>BOND
     1    1    2 1   
     2    1   23 1   
     3    3    4 1   
     4    3   14 1   
     5    3   15 1   
     6    3   16 1   
     7    4    5 1   
     8    4   17 1   
     9    5    6 1   
    10    5   18 1   
    11    6    8 1   
    12    7    9 1   
    13    8   13 1   
    14    9   10 1   
    15    9   19 1   
    16   10   11 1   
    17   10   20 1   
    18   11   12 1   
    19   11   21 1   
    20   12   13 1   
    21   12   22 1   
@<TRIPOS>SUBSTRUCTURE
     1 0OB         1 TEMP              0 ****  ****    0 ROOT
