@<TRIPOS>MOLECULE
0OB
   23    24     1     0     0
SMALL
bcc


@<TRIPOS>ATOM
      1 CAU         4.0550   -0.4110   -0.0580 c         1 0OB      0.908600
      2 OAC         4.3180   -0.5920    1.1660 o         1 0OB     -0.845800
      3 CAM         2.5770   -0.3190   -0.4870 c3        1 0OB     -0.191400
      4 CAN         1.7410    0.3260    0.5960 c3        1 0OB     -0.027200
      5 CAW         0.2920    0.1820    0.3760 cc        1 0OB     -0.002600
      6 CAK        -0.4250   -0.9810    0.2880 cd        1 0OB     -0.172200
      7 SAS        -0.7110    1.5560    0.2140 ss        1 0OB     -0.035500
      8 CAX        -1.8310   -0.7450    0.0850 ca        1 0OB     -0.060800
      9 CAY        -2.1220    0.6490    0.0270 ca        1 0OB     -0.086100
     10 CAJ        -3.4390    1.0790   -0.1650 ca        1 0OB     -0.094000
     11 CAH        -4.4490    0.1390   -0.2960 ca        1 0OB     -0.147000
     12 CAG        -4.1620   -1.2370   -0.2390 ca        1 0OB     -0.145000
     13 CAI        -2.8640   -1.6820   -0.0510 ca        1 0OB     -0.101000
     14 H2          2.5030    0.2590   -1.4400 hc        1 0OB      0.028200
     15 H3          2.2140   -1.3590   -0.6840 hc        1 0OB      0.028200
     16 H4          2.0240   -0.1490    1.5800 hc        1 0OB      0.069200
     17 H5          2.0110    1.4140    0.6710 hc        1 0OB      0.069200
     18 H6          0.0030   -1.9840    0.3580 ha        1 0OB      0.162000
     19 H7         -3.6660    2.1530   -0.2110 ha        1 0OB      0.125000
     20 H8         -5.4870    0.4660   -0.4470 ha        1 0OB      0.117000
     21 H9         -4.9820   -1.9610   -0.3480 ha        1 0OB      0.117000
     22 H10        -2.6330   -2.7560   -0.0070 ha        1 0OB      0.129000
     23 O1          4.9300   -0.3160   -0.9650 o         1 0OB     -0.845800
@<TRIPOS>BOND
     1    1    2 1   
     2    1    3 1   
     3    1   23 1   
     4    3    4 1   
     5    3   14 1   
     6    3   15 1   
     7    4    5 1   
     8    4   16 1   
     9    4   17 1   
    10    5    6 2   
    11    5    7 1   
    12    6    8 1   
    13    6   18 1   
    14    7    9 1   
    15    8    9 ar  
    16    8   13 ar  
    17    9   10 ar  
    18   10   11 ar  
    19   10   19 1   
    20   11   12 ar  
    21   11   20 1   
    22   12   13 ar  
    23   12   21 1   
    24   13   22 1   
@<TRIPOS>SUBSTRUCTURE
     1 0OB         1 TEMP              0 ****  ****    0 ROOT
