@<TRIPOS>MOLECULE
0OB
   23    21     1     0     0
SMALL
bcc


@<TRIPOS>ATOM
      1 CAU         0.8610   -1.9090   -0.8390 c1        1 0OB      0.427000
      2 OAC         2.0080   -1.6920   -0.6120 o         1 0OB     -0.213500
      3 CAM        -1.1550    0.2760    1.1770 c3        1 0OB     -0.139000
      4 CAN         0.2000    0.0050    1.6780 c2        1 0OB     -0.369000
      5 CAW         0.4930   -0.3750    2.9440 c2        1 0OB      0.056000
      6 CAK        -0.3790   -0.6000    3.9730 c1        1 0OB     -0.322000
      7 SAS        -1.9530    3.1220    8.0640 s         1 0OB     -0.242000
      8 CAX        -1.1350   -0.8030    4.9350 c1        1 0OB      0.003000
      9 CAY        -2.1880    1.6350    7.6330 c2        1 0OB     -0.080000
     10 CAJ        -3.0220    0.7110    8.3170 c2        1 0OB     -0.294000
     11 CAH        -3.2390   -0.5910    7.9780 c2        1 0OB      0.032000
     12 CAG        -2.7260   -1.3690    6.9020 c2        1 0OB     -0.163000
     13 CAI        -1.9110   -0.9700    5.9450 c1        1 0OB     -0.262000
     14 H2         -1.3880   -0.3810    0.2980 hc        1 0OB      0.053667
     15 H3         -1.9250    0.0910    1.9670 hc        1 0OB      0.053667
     16 H4         -1.2490    1.3400    0.8400 hc        1 0OB      0.053667
     17 H5          1.0160    0.1470    0.9550 ha        1 0OB      0.087000
     18 H6          1.5580   -0.5410    3.2100 ha        1 0OB      0.101000
     19 H7         -1.6880    1.2180    6.7300 h4        1 0OB      0.160000
     20 H8         -3.5380    1.1020    9.2130 ha        1 0OB      0.113000
     21 H9         -3.9250   -1.1530    8.6450 ha        1 0OB      0.084000
     22 H10        -3.0770   -2.4220    6.9050 ha        1 0OB      0.074000
     23 O1         -0.2690   -2.1530   -1.1220 o         1 0OB     -0.213500
@<TRIPOS>BOND
     1    1    2 1   
     2    1   23 1   
     3    3    4 1   
     4    3   14 1   
     5    3   15 1   
     6    3   16 1   
     7    4    5 1   
     8    4   17 1   
     9    5    6 1   
    10    5   18 1   
    11    6    8 1   
    12    7    9 1   
    13    8   13 1   
    14    9   10 1   
    15    9   19 1   
    16   10   11 1   
    17   10   20 1   
    18   11   12 1   
    19   11   21 1   
    20   12   13 1   
    21   12   22 1   
@<TRIPOS>SUBSTRUCTURE
     1 0OB         1 TEMP              0 ****  ****    0 ROOT
