@<TRIPOS>MOLECULE
0OC
   21    20     1     0     0
SMALL
bcc


@<TRIPOS>ATOM
      1 CAA         0.0570    0.1630   -0.0330 c3        1 0OC      0.097600
      2 NAJ         1.4020   -0.3830    0.0740 n7        1 0OC     -0.914200
      3 CAB         2.1270    0.1070    1.2380 c3        1 0OC      0.097600
      4 SAK         2.5960   -0.0790   -1.8620 s4        1 0OC      1.690300
      5 OAC         3.7210   -0.6680   -1.3690 o         1 0OC     -0.442900
      6 OAD         1.6870   -0.7510   -2.6210 o         1 0OC     -0.442900
      7 CAI         2.5930    1.4670   -1.9510 cc        1 0OC     -0.648500
      8 CAF         1.5760    2.2550   -2.6130 cc        1 0OC     -0.001000
      9 CAE         1.8800    3.5930   -2.5890 cd        1 0OC     -0.231100
     10 SAH         3.3210    3.8770   -1.8080 ss        1 0OC      0.407200
     11 CAG         3.6060    2.3340   -1.4680 cd        1 0OC     -0.107100
     12 H1         -0.4500   -0.2900   -0.9290 h1        1 0OC      0.075700
     13 H2          0.1150    1.2770   -0.1600 h1        1 0OC      0.075700
     14 H3         -0.5630   -0.0550    0.8780 h1        1 0OC      0.075700
     15 H4          2.2020    1.2250    1.1890 h1        1 0OC      0.075700
     16 H5          3.1590   -0.3400    1.2360 h1        1 0OC      0.075700
     17 H6          1.6170   -0.1690    2.2000 h1        1 0OC      0.075700
     18 H7          0.6900    1.8070   -3.0810 ha        1 0OC      0.196000
     19 H8          1.2640    4.3830   -3.0320 h4        1 0OC      0.219000
     20 H9          4.4930    1.9620   -0.9340 h4        1 0OC      0.216000
     21 HAJ1        1.3360   -1.3930    0.1370 hn        1 0OC      0.410800
@<TRIPOS>BOND
     1    1    2 1   
     2    1   12 1   
     3    1   13 1   
     4    1   14 1   
     5    2    3 1   
     6    2   21 1   
     7    3   15 1   
     8    3   16 1   
     9    3   17 1   
    10    4    5 1   
    11    4    6 1   
    12    4    7 1   
    13    7    8 1   
    14    7   11 2   
    15    8    9 2   
    16    8   18 1   
    17    9   10 1   
    18    9   19 1   
    19   10   11 1   
    20   11   20 1   
@<TRIPOS>SUBSTRUCTURE
     1 0OC         1 TEMP              0 ****  ****    0 ROOT
