@<TRIPOS>MOLECULE
0OC
   21    20     1     0     0
SMALL
bcc


@<TRIPOS>ATOM
      1 CAA         0.0670    0.1470   -0.0340 c3        1 0OC      0.097600
      2 NAJ         1.4150   -0.3950    0.0620 n3        1 0OC     -0.914200
      3 CAB         2.1420    0.0850    1.2290 c3        1 0OC      0.097600
      4 SAK         2.6010   -0.0630   -1.8740 s4        1 0OC      1.690300
      5 OAC         3.7330   -0.6460   -1.3900 o         1 0OC     -0.442900
      6 OAD         1.6960   -0.7360   -2.6370 o         1 0OC     -0.442900
      7 CAI         2.5850    1.4840   -1.9490 cc        1 0OC     -0.648500
      8 CAF         1.5600    2.2690   -2.6020 cc        1 0OC     -0.001000
      9 CAE         1.8530    3.6100   -2.5660 cd        1 0OC     -0.231100
     10 SAH         3.2920    3.8990   -1.7860 ss        1 0OC      0.407200
     11 CAG         3.5910    2.3550   -1.4600 cd        1 0OC     -0.107100
     12 H1         -0.4410   -0.2990   -0.9320 h1        1 0OC      0.075867
     13 H2          0.1200    1.2620   -0.1490 h1        1 0OC      0.075867
     14 H3         -0.5480   -0.0850    0.8780 h1        1 0OC      0.075867
     15 H4          2.2110    1.2040    1.1940 h1        1 0OC      0.075867
     16 H5          3.1760   -0.3570    1.2180 h1        1 0OC      0.075867
     17 H6          1.6380   -0.2060    2.1900 h1        1 0OC      0.075867
     18 H7          0.6760    1.8180   -3.0720 ha        1 0OC      0.196000
     19 H8          1.2290    4.3980   -3.0000 h4        1 0OC      0.219000
     20 H9          4.4830    1.9850   -0.9310 h4        1 0OC      0.216000
     21 HAJ1        1.3540   -1.4060    0.1130 hn        1 0OC      0.410800
@<TRIPOS>BOND
     1    1    2 1   
     2    1   12 1   
     3    1   13 1   
     4    1   14 1   
     5    2    3 1   
     6    2   21 1   
     7    3   15 1   
     8    3   16 1   
     9    3   17 1   
    10    4    5 1   
    11    4    6 1   
    12    4    7 1   
    13    7    8 1   
    14    7   11 2   
    15    8    9 2   
    16    8   18 1   
    17    9   10 1   
    18    9   19 1   
    19   10   11 1   
    20   11   20 1   
@<TRIPOS>SUBSTRUCTURE
     1 0OC         1 TEMP              0 ****  ****    0 ROOT
