@<TRIPOS>MOLECULE
0OC
   20    20     1     0     0
SMALL
bcc


@<TRIPOS>ATOM
      1 CAA        -2.3450    0.9630    1.4230 c3        1 0OC      0.208600
      2 NAJ        -1.8930   -0.1510    0.6470 n3        1 0OC     -0.812500
      3 CAB        -2.2000   -1.4420    1.1850 c3        1 0OC      0.208600
      4 SAK        -1.0360    0.0380   -0.7280 sy        1 0OC      1.531200
      5 OAC        -1.1800   -1.1130   -1.5350 o         1 0OC     -0.655300
      6 OAD        -1.3690    1.2760   -1.3210 o         1 0OC     -0.655300
      7 CAI         0.5470    0.1110   -0.2020 cc        1 0OC     -0.422500
      8 CAF         1.2030    1.3220    0.2010 cc        1 0OC     -0.052000
      9 CAE         2.5160    1.1030    0.5460 cd        1 0OC     -0.200100
     10 SAH         2.9240   -0.5080    0.3780 ss        1 0OC      0.108200
     11 CAG         1.4250   -0.9630   -0.1380 cd        1 0OC     -0.061100
     12 H1         -2.1240    1.9210    0.8780 h1        1 0OC      0.043367
     13 H2         -3.4540    0.8970    1.5940 h1        1 0OC      0.043367
     14 H3         -1.8370    0.9840    2.4260 h1        1 0OC      0.043367
     15 H4         -3.3040   -1.5330    1.3750 h1        1 0OC      0.043367
     16 H5         -1.8970   -2.2420    0.4560 h1        1 0OC      0.043367
     17 H6         -1.6630   -1.6070    2.1580 h1        1 0OC      0.043367
     18 H7          0.6960    2.2920    0.2000 ha        1 0OC      0.171000
     19 H8          3.2190    1.8640    0.8810 h4        1 0OC      0.180000
     20 H9          1.1600   -1.9860   -0.4200 h4        1 0OC      0.192000
@<TRIPOS>BOND
     1    1    2 1   
     2    1   12 1   
     3    1   13 1   
     4    1   14 1   
     5    2    3 1   
     6    2    4 1   
     7    3   15 1   
     8    3   16 1   
     9    3   17 1   
    10    4    5 2   
    11    4    6 2   
    12    4    7 1   
    13    7    8 1   
    14    7   11 2   
    15    8    9 2   
    16    8   18 1   
    17    9   10 1   
    18    9   19 1   
    19   10   11 1   
    20   11   20 1   
@<TRIPOS>SUBSTRUCTURE
     1 0OC         1 TEMP              0 ****  ****    0 ROOT
