@<TRIPOS>MOLECULE
0OC
   20    16     1     0     0
SMALL
bcc


@<TRIPOS>ATOM
      1 CAA        -2.0530   -1.2670    0.8560 c3        1 0OC      0.208600
      2 NAJ        -0.6520   -1.0510    0.8750 n3        1 0OC     -0.795300
      3 CAB         0.0240   -0.8910    2.1210 c3        1 0OC      0.208600
      4 SAK         0.2090   -1.0810   -0.5260 s4        1 0OC      1.733700
      5 OAC         1.3790   -1.8010   -0.3730 o         1 0OC     -0.542900
      6 OAD        -0.4840   -1.8750   -1.5710 o         1 0OC     -0.542900
      7 CAI         0.5460    0.5800   -1.0840 cg        1 0OC     -0.459500
      8 CAF         1.8780    1.4120   -0.7830 cg        1 0OC     -0.459500
      9 CAE         1.7630    2.6990   -1.4160 c1        1 0OC     -0.175400
     10 SAH         0.4040    2.7560   -2.1270 ss        1 0OC      0.197800
     11 CAG        -0.3160    1.3930   -1.8820 c1        1 0OC     -0.175400
     12 H1         -2.2550   -2.2110    1.1730 h1        1 0OC      0.043367
     13 H2         -2.4970   -0.6110    1.4640 h1        1 0OC      0.043367
     14 H3         -2.3930   -1.1470   -0.0610 h1        1 0OC      0.043367
     15 H4         -0.5750   -0.5260    2.7580 h1        1 0OC      0.043367
     16 H5          0.3320   -1.7380    2.4240 h1        1 0OC      0.043367
     17 H6          0.8040   -0.2730    2.0030 h1        1 0OC      0.043367
     18 H7          2.6560    1.0940   -0.2470 DU        1 0OC      0.181000
     19 H8          2.4120    3.3910   -1.3960 DU        1 0OC      0.181000
     20 H9         -1.1810    1.1470   -2.2090 DU        1 0OC      0.181000
@<TRIPOS>BOND
     1    1    2 1   
     2    1   12 1   
     3    1   13 1   
     4    1   14 1   
     5    2    3 1   
     6    2    4 1   
     7    3   15 1   
     8    3   16 1   
     9    3   17 1   
    10    4    5 1   
    11    4    6 1   
    12    7    8 1   
    13    7   11 3   
    14    8    9 3   
    15    9   10 1   
    16   10   11 1   
@<TRIPOS>SUBSTRUCTURE
     1 0OC         1 TEMP              0 ****  ****    0 ROOT
