@<TRIPOS>MOLECULE
0OC
   21    20     1     0     0
SMALL
bcc


@<TRIPOS>ATOM
      1 CAA         0.0630    0.1560   -0.0210 c3        1 0OC      0.097600
      2 NAJ         1.4120   -0.3820    0.0810 n3        1 0OC     -0.914200
      3 CAB         2.1420    0.1180    1.2370 c3        1 0OC      0.097600
      4 SAK         2.5910   -0.0800   -1.8660 s4        1 0OC      1.690300
      5 OAC         3.7200   -0.6660   -1.3810 o         1 0OC     -0.442900
      6 OAD         1.6760   -0.7540   -2.6170 o         1 0OC     -0.442900
      7 CAI         2.5850    1.4660   -1.9570 cc        1 0OC     -0.648500
      8 CAF         1.5620    2.2520   -2.6110 cc        1 0OC     -0.001000
      9 CAE         1.8640    3.5900   -2.5920 cd        1 0OC     -0.231100
     10 SAH         3.3110    3.8770   -1.8250 ss        1 0OC      0.407200
     11 CAG         3.6010    2.3350   -1.4840 cd        1 0OC     -0.107100
     12 H1          0.1140    1.2690   -0.1530 h1        1 0OC      0.075700
     13 H2         -0.5500   -0.0630    0.8950 h1        1 0OC      0.075700
     14 H3         -0.4460   -0.3040   -0.9120 h1        1 0OC      0.075700
     15 H4          1.6390   -0.1550    2.2040 h1        1 0OC      0.075700
     16 H5          2.2110    1.2360    1.1820 h1        1 0OC      0.075700
     17 H6          3.1750   -0.3240    1.2320 h1        1 0OC      0.075700
     18 H7          0.6720    1.8020   -3.0710 ha        1 0OC      0.196000
     19 H8          1.2440    4.3780   -3.0310 h4        1 0OC      0.219000
     20 H9          4.4930    1.9640   -0.9570 h4        1 0OC      0.216000
     21 HAJ1        1.3530   -1.3920    0.1480 hn        1 0OC      0.410800
@<TRIPOS>BOND
     1    1    2 1   
     2    1   12 1   
     3    1   13 1   
     4    1   14 1   
     5    2    3 1   
     6    2   21 1   
     7    3   15 1   
     8    3   16 1   
     9    3   17 1   
    10    4    5 1   
    11    4    6 1   
    12    4    7 1   
    13    7    8 1   
    14    7   11 2   
    15    8    9 2   
    16    8   18 1   
    17    9   10 1   
    18    9   19 1   
    19   10   11 1   
    20   11   20 1   
@<TRIPOS>SUBSTRUCTURE
     1 0OC         1 TEMP              0 ****  ****    0 ROOT
