@<TRIPOS>MOLECULE
0OE
   60    65     1     0     0
SMALL
bcc


@<TRIPOS>ATOM
      1 N1          0.0220   -0.1930   -0.0510 na        1 0OE     -0.018600
      2 N2          1.3410   -0.3660   -0.0850 nc        1 0OE     -0.512800
      3 C3          1.7710   -0.3780    1.2020 cd        1 0OE      0.309200
      4 C4          0.6500   -0.2010    2.1010 cd        1 0OE     -0.265200
      5 C5         -0.4800   -0.0910    1.2580 cc        1 0OE     -0.007300
      6 C6         -1.8860    0.1070    1.5580 ca        1 0OE     -0.018000
      7 C7         -2.8730   -0.4910    0.7620 ca        1 0OE     -0.118000
      8 C8         -4.2200   -0.2840    1.0650 ca        1 0OE      0.015400
      9 C9         -4.5980    0.5040    2.1570 ca        1 0OE     -0.111000
     10 C10        -3.6110    1.0900    2.9470 ca        1 0OE     -0.115000
     11 C11        -2.2620    0.9000    2.6520 ca        1 0OE     -0.082000
     12 C12         0.7020   -0.2030    3.5440 cd        1 0OE      0.476400
     13 N13         1.7010    0.5380    4.2610 na        1 0OE     -0.163300
     14 C14         1.4270    0.3060    5.6250 ca        1 0OE     -0.091200
     15 C15         0.3310   -0.6410    5.6690 ca        1 0OE      0.063400
     16 N16        -0.0870   -0.9370    4.3530 nc        1 0OE     -0.539100
     17 C17         2.0310    0.7610    6.8000 ca        1 0OE     -0.144000
     18 C18         1.5380    0.2810    8.0050 ca        1 0OE     -0.104000
     19 C19         0.4670   -0.6390    8.0720 cp        1 0OE     -0.009000
     20 C20        -0.1360   -1.1090    6.9030 ca        1 0OE     -0.072000
     21 C21        -0.0050   -1.0940    9.3770 cp        1 0OE     -0.094000
     22 C22        -0.0920   -0.1980   10.4530 ca        1 0OE     -0.141000
     23 C23        -0.5400   -0.6330   11.6970 ca        1 0OE     -0.113000
     24 C24        -0.9060   -1.9680   11.8950 ca        1 0OE     -0.108600
     25 C25        -0.8200   -2.8620   10.8230 ca        1 0OE     -0.113000
     26 C26        -0.3770   -2.4320    9.5750 ca        1 0OE     -0.141000
     27 C27        -1.3890   -2.4400   13.2600 c         1 0OE      0.906200
     28 O28        -1.7100   -3.6550   13.3840 o         1 0OE     -0.827300
     29 O29        -1.4410   -1.5890   14.1930 o         1 0OE     -0.827300
     30 CL         -5.4160   -1.0050    0.0910 cl        1 0OE     -0.099400
     31 C31         2.3900    1.6900    3.7670 c3        1 0OE      0.046300
     32 C32         1.5930    2.9990    3.7980 c3        1 0OE     -0.134400
     33 C33         2.4850    4.1240    3.2720 c3        1 0OE      0.042300
     34 N34         1.8510    5.4070    3.2050 na        1 0OE     -0.206900
     35 C35         1.4090    6.0680    2.0470 cc        1 0OE      0.384400
     36 N36         0.8290    7.2480    2.3470 nd        1 0OE     -0.671000
     37 C37         0.8800    7.3570    3.7360 cd        1 0OE      0.286200
     38 C38         1.5060    6.2230    4.2870 cc        1 0OE     -0.250600
     39 H1         -0.5120   -0.1710   -0.8880 hn        1 0OE      0.324700
     40 H2          2.8180   -0.5270    1.4700 h4        1 0OE      0.050100
     41 H3         -2.5950   -1.1390   -0.0830 ha        1 0OE      0.142000
     42 H4         -5.6620    0.6540    2.3950 ha        1 0OE      0.150000
     43 H5         -3.8980    1.7010    3.8170 ha        1 0OE      0.148000
     44 H6         -1.4870    1.3580    3.2870 ha        1 0OE      0.152000
     45 H7          2.8700    1.4680    6.7720 ha        1 0OE      0.124000
     46 H8          1.9980    0.6200    8.9470 ha        1 0OE      0.143000
     47 H9         -0.9660   -1.8300    6.9490 ha        1 0OE      0.158000
     48 H10         0.1840    0.8570   10.3070 ha        1 0OE      0.109000
     49 H11        -0.6180    0.0600   12.5500 ha        1 0OE      0.154500
     50 H12        -1.1120   -3.9110   10.9950 ha        1 0OE      0.154500
     51 H13        -0.3070   -3.1450    8.7410 ha        1 0OE      0.109000
     52 H15         2.6980    1.4770    2.7020 h1        1 0OE      0.059700
     53 H16         3.3220    1.8180    4.3900 h1        1 0OE      0.059700
     54 H17         1.2630    3.2250    4.8450 hc        1 0OE      0.068200
     55 H18         0.6710    2.9020    3.1670 hc        1 0OE      0.068200
     56 H19         3.3900    4.2120    3.9410 h1        1 0OE      0.058700
     57 H20         2.8400    3.8580    2.2350 h1        1 0OE      0.058700
     58 H21         1.5440    5.6530    1.0440 h5        1 0OE      0.058100
     59 H22         0.4750    8.2240    4.2560 h4        1 0OE      0.041100
     60 H23         1.7220    5.9480    5.3170 h4        1 0OE      0.180000
@<TRIPOS>BOND
     1    1    2 1   
     2    1    5 1   
     3    1   39 1   
     4    2    3 2   
     5    3    4 1   
     6    3   40 1   
     7    4    5 2   
     8    4   12 1   
     9    5    6 1   
    10    6    7 ar  
    11    6   11 ar  
    12    7    8 ar  
    13    7   41 1   
    14    8    9 ar  
    15    8   30 1   
    16    9   10 ar  
    17    9   42 1   
    18   10   11 ar  
    19   10   43 1   
    20   11   44 1   
    21   12   13 1   
    22   12   16 2   
    23   13   14 1   
    24   13   31 1   
    25   14   15 ar  
    26   14   17 ar  
    27   15   16 1   
    28   15   20 ar  
    29   17   18 ar  
    30   17   45 1   
    31   18   19 ar  
    32   18   46 1   
    33   19   20 ar  
    34   19   21 1   
    35   20   47 1   
    36   21   22 ar  
    37   21   26 ar  
    38   22   23 ar  
    39   22   48 1   
    40   23   24 ar  
    41   23   49 1   
    42   24   25 ar  
    43   24   27 1   
    44   25   26 ar  
    45   25   50 1   
    46   26   51 1   
    47   27   28 1   
    48   27   29 1   
    49   31   32 1   
    50   31   52 1   
    51   31   53 1   
    52   32   33 1   
    53   32   54 1   
    54   32   55 1   
    55   33   34 1   
    56   33   56 1   
    57   33   57 1   
    58   34   35 1   
    59   34   38 1   
    60   35   36 2   
    61   35   58 1   
    62   36   37 1   
    63   37   38 2   
    64   37   59 1   
    65   38   60 1   
@<TRIPOS>SUBSTRUCTURE
     1 0OE         1 TEMP              0 ****  ****    0 ROOT
