@<TRIPOS>MOLECULE
0OE
   60    65     1     0     0
SMALL
bcc


@<TRIPOS>ATOM
      1 N1          0.0380   -0.1980   -0.0510 na        1 0OE     -0.018600
      2 N2          1.3590   -0.3620   -0.0830 nc        1 0OE     -0.512800
      3 C3          1.7870   -0.3690    1.2040 cd        1 0OE      0.309200
      4 C4          0.6620   -0.1990    2.1020 cd        1 0OE     -0.265200
      5 C5         -0.4670   -0.0990    1.2570 cc        1 0OE     -0.007300
      6 C6         -1.8750    0.0900    1.5540 ca        1 0OE     -0.018000
      7 C7         -2.8560   -0.5170    0.7570 ca        1 0OE     -0.118000
      8 C8         -4.2050   -0.3190    1.0580 ca        1 0OE      0.015400
      9 C9         -4.5900    0.4680    2.1480 ca        1 0OE     -0.111000
     10 C10        -3.6090    1.0620    2.9390 ca        1 0OE     -0.115000
     11 C11        -2.2580    0.8810    2.6470 ca        1 0OE     -0.082000
     12 C12         0.7120   -0.2000    3.5450 cd        1 0OE      0.476400
     13 N13         1.7050    0.5490    4.2620 na        1 0OE     -0.163300
     14 C14         1.4310    0.3160    5.6260 ca        1 0OE     -0.091200
     15 C15         0.3410   -0.6380    5.6700 ca        1 0OE      0.063400
     16 N16        -0.0730   -0.9380    4.3530 nc        1 0OE     -0.539100
     17 C17         2.0300    0.7760    6.8020 ca        1 0OE     -0.144000
     18 C18         1.5390    0.2950    8.0060 ca        1 0OE     -0.104000
     19 C19         0.4730   -0.6330    8.0720 cp        1 0OE     -0.009000
     20 C20        -0.1250   -1.1080    6.9030 ca        1 0OE     -0.072000
     21 C21         0.0020   -1.0900    9.3780 cp        1 0OE     -0.094000
     22 C22        -0.0930   -0.1930   10.4530 ca        1 0OE     -0.141000
     23 C23        -0.5400   -0.6300   11.6960 ca        1 0OE     -0.113000
     24 C24        -0.8960   -1.9680   11.8950 ca        1 0OE     -0.108600
     25 C25        -0.8020   -2.8620   10.8240 ca        1 0OE     -0.113000
     26 C26        -0.3600   -2.4310    9.5760 ca        1 0OE     -0.141000
     27 C27        -1.3780   -2.4420   13.2600 c         1 0OE      0.906200
     28 O28        -1.6910   -3.6590   13.3840 o         1 0OE     -0.827300
     29 O29        -1.4380   -1.5910   14.1910 o         1 0OE     -0.827300
     30 Cl         -5.3940   -1.0500    0.0840 cl        1 0OE     -0.099400
     31 C31         2.3860    1.7060    3.7680 c3        1 0OE      0.046300
     32 C32         1.5800    3.0090    3.7990 c3        1 0OE     -0.134400
     33 C33         2.4650    4.1410    3.2750 c3        1 0OE      0.042300
     34 N34         1.8230    5.4200    3.2090 na        1 0OE     -0.206900
     35 C35         1.3810    6.0800    2.0510 cc        1 0OE      0.384400
     36 N36         0.7910    7.2560    2.3520 nd        1 0OE     -0.671000
     37 C37         0.8370    7.3610    3.7410 cd        1 0OE      0.286200
     38 C38         1.4680    6.2310    4.2920 cc        1 0OE     -0.250600
     39 H1         -0.4950   -0.1810   -0.8890 hn        1 0OE      0.324700
     40 H2          2.8340   -0.5100    1.4740 h4        1 0OE      0.050100
     41 H3         -2.5720   -1.1640   -0.0860 ha        1 0OE      0.142000
     42 H4         -5.6560    0.6110    2.3840 ha        1 0OE      0.150000
     43 H5         -3.9020    1.6730    3.8070 ha        1 0OE      0.148000
     44 H6         -1.4880    1.3460    3.2820 ha        1 0OE      0.152000
     45 H7          2.8630    1.4900    6.7740 ha        1 0OE      0.124000
     46 H8          1.9940    0.6380    8.9490 ha        1 0OE      0.143000
     47 H9         -0.9500   -1.8350    6.9490 ha        1 0OE      0.158000
     48 H10         0.1760    0.8630   10.3060 ha        1 0OE      0.109000
     49 H11        -0.6230    0.0630   12.5490 ha        1 0OE      0.154500
     50 H12        -1.0870   -3.9130   10.9960 ha        1 0OE      0.154500
     51 H13        -0.2840   -3.1440    8.7420 ha        1 0OE      0.109000
     52 H15         3.3170    1.8410    4.3920 h1        1 0OE      0.059700
     53 H16         2.6960    1.4950    2.7040 h1        1 0OE      0.059700
     54 H17         1.2470    3.2320    4.8460 hc        1 0OE      0.068200
     55 H18         0.6600    2.9060    3.1670 hc        1 0OE      0.068200
     56 H19         2.8240    3.8780    2.2380 h1        1 0OE      0.058700
     57 H20         3.3680    4.2340    3.9460 h1        1 0OE      0.058700
     58 H21         1.5220    5.6690    1.0480 h5        1 0OE      0.058100
     59 H22         0.4240    8.2240    4.2610 h4        1 0OE      0.041100
     60 H23         1.6810    5.9550    5.3220 h4        1 0OE      0.180000
@<TRIPOS>BOND
     1    1    2 1   
     2    1    5 1   
     3    1   39 1   
     4    2    3 2   
     5    3    4 1   
     6    3   40 1   
     7    4    5 2   
     8    4   12 1   
     9    5    6 1   
    10    6    7 ar  
    11    6   11 ar  
    12    7    8 ar  
    13    7   41 1   
    14    8    9 ar  
    15    8   30 1   
    16    9   10 ar  
    17    9   42 1   
    18   10   11 ar  
    19   10   43 1   
    20   11   44 1   
    21   12   13 1   
    22   12   16 2   
    23   13   14 1   
    24   13   31 1   
    25   14   15 ar  
    26   14   17 ar  
    27   15   16 1   
    28   15   20 ar  
    29   17   18 ar  
    30   17   45 1   
    31   18   19 ar  
    32   18   46 1   
    33   19   20 ar  
    34   19   21 1   
    35   20   47 1   
    36   21   22 ar  
    37   21   26 ar  
    38   22   23 ar  
    39   22   48 1   
    40   23   24 ar  
    41   23   49 1   
    42   24   25 ar  
    43   24   27 1   
    44   25   26 ar  
    45   25   50 1   
    46   26   51 1   
    47   27   28 1   
    48   27   29 1   
    49   31   32 1   
    50   31   52 1   
    51   31   53 1   
    52   32   33 1   
    53   32   54 1   
    54   32   55 1   
    55   33   34 1   
    56   33   56 1   
    57   33   57 1   
    58   34   35 1   
    59   34   38 1   
    60   35   36 2   
    61   35   58 1   
    62   36   37 1   
    63   37   38 2   
    64   37   59 1   
    65   38   60 1   
@<TRIPOS>SUBSTRUCTURE
     1 0OE         1 TEMP              0 ****  ****    0 ROOT
