@<TRIPOS>MOLECULE
0OE
   60    65     1     0     0
SMALL
bcc


@<TRIPOS>ATOM
      1 N1          4.4290    2.0610   -1.9010 na        1 0OE     -0.018600
      2 N2          4.5000    1.3160   -3.0020 nc        1 0OE     -0.512800
      3 C3          3.3730    0.5630   -3.0420 cd        1 0OE      0.309200
      4 C4          2.5410    0.8530   -1.8930 cd        1 0OE     -0.265200
      5 C5          3.2500    1.8400   -1.1690 cc        1 0OE     -0.007300
      6 C6          2.9430    2.5260    0.0720 ca        1 0OE     -0.018000
      7 C7          3.3210    3.8640    0.2550 ca        1 0OE     -0.118000
      8 C8          3.0200    4.5050    1.4580 ca        1 0OE      0.015400
      9 C9          2.3390    3.8340    2.4790 ca        1 0OE     -0.111000
     10 C10         1.9610    2.5060    2.2860 ca        1 0OE     -0.115000
     11 C11         2.2620    1.8500    1.0950 ca        1 0OE     -0.082000
     12 C12         1.2440    0.2850   -1.6100 cd        1 0OE      0.476400
     13 N13         0.9980   -1.1240   -1.7330 na        1 0OE     -0.163300
     14 C14        -0.3540   -1.2980   -1.3680 ca        1 0OE     -0.091200
     15 C15        -0.8890    0.0280   -1.1310 ca        1 0OE      0.063400
     16 N16         0.1360    0.9850   -1.2980 nc        1 0OE     -0.539100
     17 C17        -1.1680   -2.4290   -1.2720 ca        1 0OE     -0.144000
     18 C18        -2.5000   -2.2370   -0.9330 ca        1 0OE     -0.104000
     19 C19        -3.0420   -0.9540   -0.6930 cp        1 0OE     -0.009000
     20 C20        -2.2400    0.1850   -0.7980 ca        1 0OE     -0.072000
     21 C21        -4.4520   -0.8290   -0.3320 cp        1 0OE     -0.094000
     22 C22        -5.0490   -1.7570    0.5350 ca        1 0OE     -0.141000
     23 C23        -6.3930   -1.6380    0.8760 ca        1 0OE     -0.113000
     24 C24        -7.1700   -0.5970    0.3590 ca        1 0OE     -0.108600
     25 C25        -6.5760    0.3290   -0.5050 ca        1 0OE     -0.113000
     26 C26        -5.2310    0.2190   -0.8470 ca        1 0OE     -0.141000
     27 C27        -8.6420   -0.4760    0.7310 c         1 0OE      0.906200
     28 O28        -9.2970    0.4850    0.2390 o         1 0OE     -0.827300
     29 O29        -9.1250   -1.3440    1.5100 o         1 0OE     -0.827300
     30 CL          3.4860    6.1270    1.6800 cl        1 0OE     -0.099400
     31 C31         1.9910   -2.1490   -1.6370 c3        1 0OE      0.046300
     32 C32         2.4480   -2.4930   -0.2150 c3        1 0OE     -0.134400
     33 C33         3.4740   -3.6240   -0.2950 c3        1 0OE      0.042300
     34 N34         4.0210   -4.0250    0.9670 na        1 0OE     -0.206900
     35 C35         5.3090   -3.7430    1.4530 cc        1 0OE      0.384400
     36 N36         5.4870   -4.2450    2.6920 nd        1 0OE     -0.671000
     37 C37         4.2810   -4.8590    3.0310 cd        1 0OE      0.286200
     38 C38         3.3590   -4.7290    1.9770 cc        1 0OE     -0.250600
     39 H1          5.1470    2.7090   -1.6760 hn        1 0OE      0.324700
     40 H2          3.1580   -0.1300   -3.8570 h4        1 0OE      0.050100
     41 H3          3.8300    4.4180   -0.5480 ha        1 0OE      0.142000
     42 H4          2.0960    4.3500    3.4200 ha        1 0OE      0.150000
     43 H5          1.4130    1.9740    3.0790 ha        1 0OE      0.148000
     44 H6          1.9520    0.8040    0.9450 ha        1 0OE      0.152000
     45 H7         -0.7700   -3.4340   -1.4620 ha        1 0OE      0.124000
     46 H8         -3.1660   -3.1110   -0.8540 ha        1 0OE      0.143000
     47 H9         -2.6590    1.1860   -0.6180 ha        1 0OE      0.158000
     48 H10        -4.4460   -2.5750    0.9550 ha        1 0OE      0.109000
     49 H11        -6.8740   -2.3570    1.5590 ha        1 0OE      0.154500
     50 H12        -7.2010    1.1440   -0.9050 ha        1 0OE      0.154500
     51 H13        -4.7760    0.9490   -1.5320 ha        1 0OE      0.109000
     52 H15         1.5640   -3.0780   -2.1160 h1        1 0OE      0.059700
     53 H16         2.8870   -1.8170   -2.2370 h1        1 0OE      0.059700
     54 H17         2.8970   -1.5900    0.2730 hc        1 0OE      0.068200
     55 H18         1.5700   -2.8120    0.4060 hc        1 0OE      0.068200
     56 H19         2.9850   -4.5250   -0.7680 h1        1 0OE      0.058700
     57 H20         4.3280   -3.3010   -0.9570 h1        1 0OE      0.058700
     58 H21         6.0520   -3.1920    0.8690 h5        1 0OE      0.058100
     59 H22         4.1430   -5.3510    3.9930 h4        1 0OE      0.041100
     60 H23         2.3300   -5.0670    1.8730 h4        1 0OE      0.180000
@<TRIPOS>BOND
     1    1    2 1   
     2    1    5 1   
     3    1   39 1   
     4    2    3 2   
     5    3    4 1   
     6    3   40 1   
     7    4    5 2   
     8    4   12 1   
     9    5    6 1   
    10    6    7 ar  
    11    6   11 ar  
    12    7    8 ar  
    13    7   41 1   
    14    8    9 ar  
    15    8   30 1   
    16    9   10 ar  
    17    9   42 1   
    18   10   11 ar  
    19   10   43 1   
    20   11   44 1   
    21   12   13 1   
    22   12   16 2   
    23   13   14 1   
    24   13   31 1   
    25   14   15 ar  
    26   14   17 ar  
    27   15   16 1   
    28   15   20 ar  
    29   17   18 ar  
    30   17   45 1   
    31   18   19 ar  
    32   18   46 1   
    33   19   20 ar  
    34   19   21 1   
    35   20   47 1   
    36   21   22 ar  
    37   21   26 ar  
    38   22   23 ar  
    39   22   48 1   
    40   23   24 ar  
    41   23   49 1   
    42   24   25 ar  
    43   24   27 1   
    44   25   26 ar  
    45   25   50 1   
    46   26   51 1   
    47   27   28 1   
    48   27   29 1   
    49   31   32 1   
    50   31   52 1   
    51   31   53 1   
    52   32   33 1   
    53   32   54 1   
    54   32   55 1   
    55   33   34 1   
    56   33   56 1   
    57   33   57 1   
    58   34   35 1   
    59   34   38 1   
    60   35   36 2   
    61   35   58 1   
    62   36   37 1   
    63   37   38 2   
    64   37   59 1   
    65   38   60 1   
@<TRIPOS>SUBSTRUCTURE
     1 0OE         1 TEMP              0 ****  ****    0 ROOT
