@<TRIPOS>MOLECULE
0OE
   60    47     1     0     0
SMALL
bcc


@<TRIPOS>ATOM
      1 N1         -0.7090    0.0980   -5.3130 n2        1 0OE     -0.122000
      2 N2         -1.5780    1.1560   -5.2970 n2        1 0OE     -0.122000
      3 C3         -1.8570    1.4520   -4.0090 c1        1 0OE     -0.071000
      4 C4         -1.1730    0.5940   -3.2290 c1        1 0OE     -0.114000
      5 C5         -0.4580   -0.2490   -4.0570 c1        1 0OE     -0.071000
      6 C6          0.5000   -1.3750   -3.6010 c1        1 0OE     -0.062500
      7 C7          1.8710   -1.1620   -3.5990 c1        1 0OE     -0.130000
      8 C8          2.7370   -2.1940   -3.2250 c1        1 0OE     -0.081500
      9 C9          2.2200   -3.4400   -2.8540 c2        1 0OE     -0.125000
     10 C10         0.8540   -3.6520   -2.8560 c1        1 0OE     -0.118000
     11 C11        -0.0150   -2.6200   -3.2300 c1        1 0OE     -0.093500
     12 C12        -1.0240    0.6900   -1.6780 c1        1 0OE      0.078000
     13 N13        -0.3270    1.2870   -0.6810 n2        1 0OE     -0.189000
     14 C14        -0.8700    0.8990    0.5020 c1        1 0OE     -0.041000
     15 C15        -1.9030    0.0610    0.2350 c1        1 0OE     -0.072000
     16 N16        -1.9960   -0.0660   -1.1180 n1        1 0OE     -0.131000
     17 C17        -0.5370    1.2080    1.8410 c1        1 0OE     -0.143000
     18 C18        -1.2620    0.6580    2.8780 c1        1 0OE     -0.103000
     19 C19        -2.3320   -0.2090    2.6040 c1        1 0OE     -0.009000
     20 C20        -2.6560   -0.5090    1.3110 c2        1 0OE     -0.074000
     21 C21        -2.9940   -0.7250    3.8650 c1        1 0OE     -0.081500
     22 C22        -2.5860   -1.9340    4.4170 c2        1 0OE     -0.125000
     23 C23        -3.2320   -2.4390    5.5460 c1        1 0OE     -0.118000
     24 C24        -4.2730   -1.7410    6.1120 c1        1 0OE     -0.062500
     25 C25        -4.6850   -0.5190    5.5540 c1        1 0OE     -0.093500
     26 C26        -4.0450   -0.0190    4.4360 c1        1 0OE     -0.130000
     27 C27        -5.0360   -2.3370    7.3350 c1        1 0OE      0.355000
     28 O28        -4.6660   -2.0480    8.5140 o         1 0OE     -0.562000
     29 O29        -6.1120   -3.0360    7.1480 o         1 0OE     -0.562000
     30 CL          4.4000   -1.8730   -3.0250 cl        1 0OE     -0.022000
     31 C31         0.6260    2.3640   -0.8190 c2        1 0OE     -0.010000
     32 C32         2.0640    1.8060   -0.7080 c3        1 0OE     -0.212000
     33 C33         3.0520    2.8930   -1.1310 c3        1 0OE     -0.017000
     34 N34         4.3730    2.3430   -1.2120 n3        1 0OE     -0.162000
     35 C35         5.2300    2.1880   -0.1820 c1        1 0OE     -0.099000
     36 N36         6.3550    1.6570   -0.6570 n2        1 0OE     -0.144000
     37 C37         6.2090    1.4830   -1.9600 c1        1 0OE     -0.178000
     38 C38         4.9670    1.9140   -2.3030 c1        1 0OE     -0.165000
     39 H1         -0.3690   -0.2920   -6.0420 DU        1 0OE      0.202000
     40 H2         -2.4340    2.1480   -3.7060 DU        1 0OE      0.202000
     41 H3          2.2190   -0.3200   -3.8430 ha        1 0OE      0.125500
     42 H4          2.8330   -4.1700   -2.5880 ha        1 0OE      0.129500
     43 H5          0.5010   -4.5130   -2.5990 ha        1 0OE      0.151500
     44 H6         -0.9850   -2.8070   -3.3450 ha        1 0OE      0.165000
     45 H7          0.2230    1.8520    2.0380 ha        1 0OE      0.124000
     46 H8         -0.9850    0.8150    3.8070 ha        1 0OE      0.143000
     47 H9         -3.3840   -1.1430    1.1220 ha        1 0OE      0.155000
     48 H10        -1.8550   -2.4240    4.0190 ha        1 0OE      0.129500
     49 H11        -2.8740   -3.2640    6.0020 ha        1 0OE      0.151500
     50 H12        -5.4010   -0.0380    5.9430 ha        1 0OE      0.165000
     51 H13        -4.3790    0.7810    4.0060 ha        1 0OE      0.125500
     52 H15         0.5140    2.7800   -1.6730 ha        1 0OE      0.097500
     53 H16         0.4710    3.0540   -0.0810 ha        1 0OE      0.097500
     54 H17         2.2390    1.5470    0.1990 hc        1 0OE      0.110500
     55 H18         2.1630    1.0080   -1.3110 hc        1 0OE      0.110500
     56 H19         2.7860    3.2540   -2.0200 h1        1 0OE      0.097000
     57 H20         3.0400    3.6200   -0.4680 h1        1 0OE      0.097000
     58 H21         5.0540    2.4260    0.7590 DU        1 0OE      0.202000
     59 H22         6.8740    1.1110   -2.5660 DU        1 0OE      0.202000
     60 H23         4.6130    1.9710   -3.2060 DU        1 0OE      0.202000
@<TRIPOS>BOND
     1    1    2 1   
     2    1    5 1   
     3    2    3 1   
     4    3    4 1   
     5    4    5 1   
     6    6   11 1   
     7    7    8 1   
     8    7   41 1   
     9    8    9 1   
    10    9   10 1   
    11    9   42 1   
    12   10   43 1   
    13   11   44 1   
    14   12   13 1   
    15   12   16 1   
    16   13   14 1   
    17   14   17 1   
    18   15   20 1   
    19   17   45 1   
    20   18   19 1   
    21   18   46 1   
    22   19   20 1   
    23   20   47 1   
    24   21   22 1   
    25   21   26 1   
    26   22   23 1   
    27   22   48 1   
    28   23   49 1   
    29   24   25 1   
    30   25   50 1   
    31   26   51 1   
    32   27   28 1   
    33   27   29 1   
    34   31   32 1   
    35   31   52 1   
    36   31   53 1   
    37   32   33 1   
    38   32   54 1   
    39   32   55 1   
    40   33   34 1   
    41   33   56 1   
    42   33   57 1   
    43   34   35 1   
    44   34   38 1   
    45   35   36 1   
    46   36   37 1   
    47   37   38 1   
@<TRIPOS>SUBSTRUCTURE
     1 0OE         1 TEMP              0 ****  ****    0 ROOT
