@<TRIPOS>MOLECULE
0OE
   60    65     1     0     0
SMALL
bcc


@<TRIPOS>ATOM
      1 N1          0.0290   -0.1970   -0.0520 na        1 0OE     -0.018600
      2 N2          1.3490   -0.3650   -0.0860 nc        1 0OE     -0.512800
      3 C3          1.7780   -0.3730    1.2020 cd        1 0OE      0.309200
      4 C4          0.6550   -0.2000    2.1000 cd        1 0OE     -0.265200
      5 C5         -0.4750   -0.0960    1.2560 cc        1 0OE     -0.007300
      6 C6         -1.8810    0.0960    1.5550 ca        1 0OE     -0.018000
      7 C7         -2.8650   -0.5080    0.7590 ca        1 0OE     -0.118000
      8 C8         -4.2140   -0.3070    1.0610 ca        1 0OE      0.015400
      9 C9         -4.5960    0.4810    2.1510 ca        1 0OE     -0.111000
     10 C10        -3.6110    1.0730    2.9420 ca        1 0OE     -0.115000
     11 C11        -2.2620    0.8880    2.6480 ca        1 0OE     -0.082000
     12 C12         0.7070   -0.2020    3.5430 cd        1 0OE      0.476400
     13 N13         1.7030    0.5430    4.2600 na        1 0OE     -0.163300
     14 C14         1.4290    0.3110    5.6240 ca        1 0OE     -0.091200
     15 C15         0.3360   -0.6390    5.6680 ca        1 0OE      0.063400
     16 N16        -0.0810   -0.9370    4.3520 nc        1 0OE     -0.539100
     17 C17         2.0310    0.7690    6.7990 ca        1 0OE     -0.144000
     18 C18         1.5390    0.2890    8.0040 ca        1 0OE     -0.104000
     19 C19         0.4700   -0.6340    8.0710 cp        1 0OE     -0.009000
     20 C20        -0.1310   -1.1070    6.9020 ca        1 0OE     -0.072000
     21 C21        -0.0020   -1.0910    9.3760 cp        1 0OE     -0.094000
     22 C22        -0.0920   -0.1930   10.4520 ca        1 0OE     -0.141000
     23 C23        -0.5400   -0.6290   11.6950 ca        1 0OE     -0.113000
     24 C24        -0.9020   -1.9650   11.8940 ca        1 0OE     -0.108600
     25 C25        -0.8120   -2.8590   10.8230 ca        1 0OE     -0.113000
     26 C26        -0.3700   -2.4290    9.5750 ca        1 0OE     -0.141000
     27 C27        -1.3850   -2.4380   13.2590 c         1 0OE      0.906200
     28 O28        -1.7020   -3.6540   13.3840 o         1 0OE     -0.827300
     29 O29        -1.4400   -1.5870   14.1910 o         1 0OE     -0.827300
     30 CL         -5.4050   -1.0350    0.0880 cl        1 0OE     -0.099400
     31 C31         2.3880    1.6980    3.7660 c3        1 0OE      0.046300
     32 C32         1.5870    3.0040    3.7980 c3        1 0OE     -0.134400
     33 C33         2.4760    4.1330    3.2750 c3        1 0OE      0.042300
     34 N34         1.8390    5.4140    3.2110 na        1 0OE     -0.206900
     35 C35         1.3990    6.0780    2.0540 cc        1 0OE      0.384400
     36 N36         0.8150    7.2560    2.3570 nd        1 0OE     -0.671000
     37 C37         0.8620    7.3600    3.7470 cd        1 0OE      0.286200
     38 C38         1.4880    6.2250    4.2950 cc        1 0OE     -0.250600
     39 H1         -0.5050   -0.1790   -0.8900 hn        1 0OE      0.324700
     40 H2          2.8250   -0.5180    1.4700 h4        1 0OE      0.050100
     41 H3         -2.5840   -1.1560   -0.0840 ha        1 0OE      0.142000
     42 H4         -5.6600    0.6260    2.3890 ha        1 0OE      0.150000
     43 H5         -3.9020    1.6840    3.8100 ha        1 0OE      0.148000
     44 H6         -1.4890    1.3510    3.2820 ha        1 0OE      0.152000
     45 H7          2.8670    1.4790    6.7710 ha        1 0OE      0.124000
     46 H8          1.9960    0.6300    8.9470 ha        1 0OE      0.143000
     47 H9         -0.9590   -1.8310    6.9490 ha        1 0OE      0.158000
     48 H10         0.1810    0.8610   10.3050 ha        1 0OE      0.109000
     49 H11        -0.6200    0.0650   12.5480 ha        1 0OE      0.154500
     50 H12        -1.1000   -3.9090   10.9950 ha        1 0OE      0.154500
     51 H13        -0.2970   -3.1430    8.7410 ha        1 0OE      0.109000
     52 H15         3.3200    1.8280    4.3890 h1        1 0OE      0.059700
     53 H16         2.6950    1.4860    2.7010 h1        1 0OE      0.059700
     54 H17         1.2560    3.2280    4.8460 hc        1 0OE      0.068200
     55 H18         0.6660    2.9050    3.1670 hc        1 0OE      0.068200
     56 H19         2.8320    3.8700    2.2370 h1        1 0OE      0.058700
     57 H20         3.3810    4.2220    3.9440 h1        1 0OE      0.058700
     58 H21         1.5380    5.6680    1.0500 h5        1 0OE      0.058100
     59 H22         0.4530    8.2230    4.2680 h4        1 0OE      0.041100
     60 H23         1.7010    5.9470    5.3240 h4        1 0OE      0.180000
@<TRIPOS>BOND
     1    1    2 1   
     2    1    5 1   
     3    1   39 1   
     4    2    3 2   
     5    3    4 1   
     6    3   40 1   
     7    4    5 2   
     8    4   12 1   
     9    5    6 1   
    10    6    7 ar  
    11    6   11 ar  
    12    7    8 ar  
    13    7   41 1   
    14    8    9 ar  
    15    8   30 1   
    16    9   10 ar  
    17    9   42 1   
    18   10   11 ar  
    19   10   43 1   
    20   11   44 1   
    21   12   13 1   
    22   12   16 2   
    23   13   14 1   
    24   13   31 1   
    25   14   15 ar  
    26   14   17 ar  
    27   15   16 1   
    28   15   20 ar  
    29   17   18 ar  
    30   17   45 1   
    31   18   19 ar  
    32   18   46 1   
    33   19   20 ar  
    34   19   21 1   
    35   20   47 1   
    36   21   22 ar  
    37   21   26 ar  
    38   22   23 ar  
    39   22   48 1   
    40   23   24 ar  
    41   23   49 1   
    42   24   25 ar  
    43   24   27 1   
    44   25   26 ar  
    45   25   50 1   
    46   26   51 1   
    47   27   28 1   
    48   27   29 1   
    49   31   32 1   
    50   31   52 1   
    51   31   53 1   
    52   32   33 1   
    53   32   54 1   
    54   32   55 1   
    55   33   34 1   
    56   33   56 1   
    57   33   57 1   
    58   34   35 1   
    59   34   38 1   
    60   35   36 2   
    61   35   58 1   
    62   36   37 1   
    63   37   38 2   
    64   37   59 1   
    65   38   60 1   
@<TRIPOS>SUBSTRUCTURE
     1 0OE         1 TEMP              0 ****  ****    0 ROOT
