@<TRIPOS>MOLECULE
0OF
   60    64     1     0     0
SMALL
bcc


@<TRIPOS>ATOM
      1 C1         -0.1460    0.1100    0.1420 c3        1 0OF     -0.158400
      2 C2          1.3700    0.0460   -0.0010 c         1 0OF      0.711500
      3 N3          2.1820   -0.0410    1.1270 n         1 0OF     -0.387000
      4 C4          1.6710    0.0270    2.4420 ca        1 0OF      0.078600
      5 C5          0.5450   -0.7420    2.8620 ca        1 0OF      0.031600
      6 N6         -0.1320   -1.6220    1.9800 n         1 0OF     -0.298200
      7 C7         -0.6630   -1.1870    0.7620 c         1 0OF      0.716500
      8 O8          1.8820    0.0730   -1.1350 o         1 0OF     -0.611500
      9 O9         -1.5030   -1.8630    0.1480 o         1 0OF     -0.593500
     10 C10         0.0990   -0.6350    4.1980 ca        1 0OF     -0.077000
     11 C11         0.7480    0.2030    5.0960 ca        1 0OF     -0.166300
     12 C12         1.8390    0.9720    4.6880 ca        1 0OF     -0.075000
     13 C13         2.2870    0.8900    3.3780 ca        1 0OF     -0.140000
     14 C14        -0.4440   -2.9210    2.4900 ca        1 0OF      0.030600
     15 C15         0.5940   -3.7280    3.0040 ca        1 0OF     -0.124500
     16 C16         0.3080   -4.9960    3.5000 ca        1 0OF     -0.120500
     17 C17        -0.9980   -5.4850    3.4860 ca        1 0OF     -0.127000
     18 C18        -2.0250   -4.6970    2.9700 ca        1 0OF     -0.120500
     19 C19        -1.7610   -3.4210    2.4770 ca        1 0OF     -0.124500
     20 C20         0.2710    0.2790    6.5410 c3        1 0OF      0.690200
     21 F21         0.9140   -0.5910    7.3890 f         1 0OF     -0.234633
     22 F22         0.4440    1.5080    7.1310 f         1 0OF     -0.234633
     23 F23        -1.0620    0.0030    6.7220 f         1 0OF     -0.234633
     24 C24         3.5990   -0.3260    0.9590 c3        1 0OF      0.093000
     25 C25         3.9500   -1.8060    0.9630 c3        1 0OF     -0.117100
     26 C26        -0.6510    1.3500    0.7960 ca        1 0OF     -0.046300
     27 C27         0.0460    2.5510    0.6200 ca        1 0OF     -0.204000
     28 C28        -0.4690    3.7270    1.1790 ca        1 0OF      0.133100
     29 C29        -1.6690    3.7230    1.9070 ca        1 0OF     -0.141000
     30 C30        -2.3650    2.5210    2.0640 cp        1 0OF      0.010000
     31 C31        -1.8550    1.3390    1.5030 ca        1 0OF     -0.147000
     32 O32         0.1640    4.9420    1.0560 oh        1 0OF     -0.494100
     33 C33        -3.6190    2.4940    2.8080 cp        1 0OF     -0.164300
     34 C34        -4.7050    1.7000    2.3690 ca        1 0OF      0.409200
     35 N35        -5.8840    1.6290    3.0120 nb        1 0OF     -0.662000
     36 C36        -6.0250    2.3610    4.1350 ca        1 0OF      0.399200
     37 C37        -5.0090    3.1840    4.6540 ca        1 0OF     -0.245300
     38 C38        -3.7920    3.2490    3.9770 ca        1 0OF     -0.078000
     39 H1         -0.5520    0.1140   -0.9220 hc        1 0OF      0.138700
     40 H2         -0.7690   -1.2280    4.5370 ha        1 0OF      0.170000
     41 H3          2.3350    1.6490    5.4030 ha        1 0OF      0.158000
     42 H4          3.1400    1.5170    3.0690 ha        1 0OF      0.152000
     43 H5          1.6320   -3.3590    3.0160 ha        1 0OF      0.147500
     44 H6          1.1240   -5.6170    3.9010 ha        1 0OF      0.138500
     45 H7         -1.2150   -6.4900    3.8770 ha        1 0OF      0.137000
     46 H8         -3.0560   -5.0800    2.9500 ha        1 0OF      0.138500
     47 H9         -2.5810   -2.8200    2.0510 ha        1 0OF      0.147500
     48 H10         3.9250    0.1240   -0.0240 h1        1 0OF      0.065200
     49 H11         4.1680    0.1880    1.7840 h1        1 0OF      0.065200
     50 H12         3.4610   -2.3340    0.1100 hc        1 0OF      0.048033
     51 H13         3.6340   -2.2970    1.9150 hc        1 0OF      0.048033
     52 H14         5.0570   -1.9070    0.8580 hc        1 0OF      0.048033
     53 H15         0.9820    2.5730    0.0410 ha        1 0OF      0.146000
     54 H16        -2.0510    4.6630    2.3300 ha        1 0OF      0.158000
     55 H17        -2.4150    0.3980    1.6230 ha        1 0OF      0.147000
     56 H18         0.9400    4.8210    0.4890 ho        1 0OF      0.423000
     57 H19        -4.6230    1.0950    1.4480 h4        1 0OF      0.029100
     58 H20        -7.0040    2.2800    4.6410 h4        1 0OF      0.025100
     59 H21        -5.1750    3.7590    5.5740 ha        1 0OF      0.147000
     60 H22        -2.9730    3.8780    4.3570 ha        1 0OF      0.144000
@<TRIPOS>BOND
     1    1    2 1   
     2    1    7 1   
     3    1   26 1   
     4    1   39 1   
     5    2    3 1   
     6    2    8 2   
     7    3    4 1   
     8    3   24 1   
     9    4    5 ar  
    10    4   13 ar  
    11    5    6 1   
    12    5   10 ar  
    13    6    7 1   
    14    6   14 1   
    15    7    9 2   
    16   10   11 ar  
    17   10   40 1   
    18   11   12 ar  
    19   11   20 1   
    20   12   13 ar  
    21   12   41 1   
    22   13   42 1   
    23   14   15 ar  
    24   14   19 ar  
    25   15   16 ar  
    26   15   43 1   
    27   16   17 ar  
    28   16   44 1   
    29   17   18 ar  
    30   17   45 1   
    31   18   19 ar  
    32   18   46 1   
    33   19   47 1   
    34   20   21 1   
    35   20   22 1   
    36   20   23 1   
    37   24   25 1   
    38   24   48 1   
    39   24   49 1   
    40   25   50 1   
    41   25   51 1   
    42   25   52 1   
    43   26   27 ar  
    44   26   31 ar  
    45   27   28 ar  
    46   27   53 1   
    47   28   29 ar  
    48   28   32 1   
    49   29   30 ar  
    50   29   54 1   
    51   30   31 ar  
    52   30   33 1   
    53   31   55 1   
    54   32   56 1   
    55   33   34 ar  
    56   33   38 ar  
    57   34   35 ar  
    58   34   57 1   
    59   35   36 ar  
    60   36   37 ar  
    61   36   58 1   
    62   37   38 ar  
    63   37   59 1   
    64   38   60 1   
@<TRIPOS>SUBSTRUCTURE
     1 0OF         1 TEMP              0 ****  ****    0 ROOT
