@<TRIPOS>MOLECULE
0OF
   60    64     1     0     0
SMALL
bcc


@<TRIPOS>ATOM
      1 C1         -0.1440    0.1090    0.1420 c3        1 0OF     -0.158400
      2 C2          1.3730    0.0460    0.0010 c         1 0OF      0.711500
      3 N3          2.1830   -0.0400    1.1300 n         1 0OF     -0.387000
      4 C4          1.6710    0.0290    2.4440 ca        1 0OF      0.078600
      5 C5          0.5450   -0.7420    2.8630 ca        1 0OF      0.031600
      6 N6         -0.1300   -1.6230    1.9800 n         1 0OF     -0.298200
      7 C7         -0.6600   -1.1880    0.7620 c         1 0OF      0.716500
      8 O8          1.8850    0.0730   -1.1330 o         1 0OF     -0.611500
      9 O9         -1.4990   -1.8650    0.1470 o         1 0OF     -0.593500
     10 C10         0.0980   -0.6340    4.1980 ca        1 0OF     -0.077000
     11 C11         0.7450    0.2040    5.0970 ca        1 0OF     -0.166300
     12 C12         1.8360    0.9750    4.6900 ca        1 0OF     -0.075000
     13 C13         2.2850    0.8930    3.3800 ca        1 0OF     -0.140000
     14 C14        -0.4410   -2.9210    2.4900 ca        1 0OF      0.030600
     15 C15         0.5970   -3.7270    3.0060 ca        1 0OF     -0.124500
     16 C16         0.3120   -4.9950    3.5020 ca        1 0OF     -0.120500
     17 C17        -0.9940   -5.4850    3.4870 ca        1 0OF     -0.127000
     18 C18        -2.0210   -4.6980    2.9700 ca        1 0OF     -0.120500
     19 C19        -1.7580   -3.4220    2.4760 ca        1 0OF     -0.124500
     20 C20         0.2670    0.2800    6.5420 c3        1 0OF      0.690200
     21 F21         0.9090   -0.5900    7.3900 f         1 0OF     -0.234633
     22 F22         0.4380    1.5090    7.1320 f         1 0OF     -0.234633
     23 F23        -1.0660    0.0020    6.7210 f         1 0OF     -0.234633
     24 C24         3.6010   -0.3220    0.9630 c3        1 0OF      0.093000
     25 C25         3.9540   -1.8010    0.9710 c3        1 0OF     -0.117100
     26 C26        -0.6500    1.3490    0.7950 ca        1 0OF     -0.046300
     27 C27         0.0460    2.5510    0.6190 ca        1 0OF     -0.204000
     28 C28        -0.4700    3.7260    1.1770 ca        1 0OF      0.133100
     29 C29        -1.6720    3.7220    1.9030 ca        1 0OF     -0.141000
     30 C30        -2.3660    2.5190    2.0600 cp        1 0OF      0.010000
     31 C31        -1.8550    1.3380    1.5010 ca        1 0OF     -0.147000
     32 O32         0.1610    4.9420    1.0530 oh        1 0OF     -0.494100
     33 C33        -3.6210    2.4910    2.8040 cp        1 0OF     -0.164300
     34 C34        -4.7060    1.6960    2.3650 ca        1 0OF      0.409200
     35 N35        -5.8850    1.6250    3.0070 nb        1 0OF     -0.662000
     36 C36        -6.0280    2.3570    4.1290 ca        1 0OF      0.399200
     37 C37        -5.0130    3.1820    4.6480 ca        1 0OF     -0.245300
     38 C38        -3.7960    3.2480    3.9730 ca        1 0OF     -0.078000
     39 H1         -0.5480    0.1120   -0.9220 hc        1 0OF      0.138700
     40 H2         -0.7700   -1.2290    4.5370 ha        1 0OF      0.170000
     41 H3          2.3290    1.6520    5.4050 ha        1 0OF      0.158000
     42 H4          3.1370    1.5210    3.0730 ha        1 0OF      0.152000
     43 H5          1.6340   -3.3570    3.0190 ha        1 0OF      0.147500
     44 H6          1.1270   -5.6150    3.9040 ha        1 0OF      0.138500
     45 H7         -1.2100   -6.4900    3.8780 ha        1 0OF      0.137000
     46 H8         -3.0520   -5.0820    2.9490 ha        1 0OF      0.138500
     47 H9         -2.5780   -2.8220    2.0500 ha        1 0OF      0.147500
     48 H10         4.1680    0.1940    1.7880 h1        1 0OF      0.065200
     49 H11         3.9270    0.1270   -0.0200 h1        1 0OF      0.065200
     50 H12         3.4660   -2.3320    0.1180 hc        1 0OF      0.048033
     51 H13         3.6380   -2.2920    1.9220 hc        1 0OF      0.048033
     52 H14         5.0610   -1.9020    0.8670 hc        1 0OF      0.048033
     53 H15         0.9820    2.5730    0.0400 ha        1 0OF      0.146000
     54 H16        -2.0550    4.6620    2.3250 ha        1 0OF      0.158000
     55 H17        -2.4140    0.3960    1.6210 ha        1 0OF      0.147000
     56 H18         0.9380    4.8210    0.4870 ho        1 0OF      0.423000
     57 H19        -4.6220    1.0900    1.4440 h4        1 0OF      0.029100
     58 H20        -7.0070    2.2760    4.6340 h4        1 0OF      0.025100
     59 H21        -5.1810    3.7570    5.5680 ha        1 0OF      0.147000
     60 H22        -2.9770    3.8770    4.3530 ha        1 0OF      0.144000
@<TRIPOS>BOND
     1    1    2 1   
     2    1    7 1   
     3    1   26 1   
     4    1   39 1   
     5    2    3 1   
     6    2    8 2   
     7    3    4 1   
     8    3   24 1   
     9    4    5 ar  
    10    4   13 ar  
    11    5    6 1   
    12    5   10 ar  
    13    6    7 1   
    14    6   14 1   
    15    7    9 2   
    16   10   11 ar  
    17   10   40 1   
    18   11   12 ar  
    19   11   20 1   
    20   12   13 ar  
    21   12   41 1   
    22   13   42 1   
    23   14   15 ar  
    24   14   19 ar  
    25   15   16 ar  
    26   15   43 1   
    27   16   17 ar  
    28   16   44 1   
    29   17   18 ar  
    30   17   45 1   
    31   18   19 ar  
    32   18   46 1   
    33   19   47 1   
    34   20   21 1   
    35   20   22 1   
    36   20   23 1   
    37   24   25 1   
    38   24   48 1   
    39   24   49 1   
    40   25   50 1   
    41   25   51 1   
    42   25   52 1   
    43   26   27 ar  
    44   26   31 ar  
    45   27   28 ar  
    46   27   53 1   
    47   28   29 ar  
    48   28   32 1   
    49   29   30 ar  
    50   29   54 1   
    51   30   31 ar  
    52   30   33 1   
    53   31   55 1   
    54   32   56 1   
    55   33   34 ar  
    56   33   38 ar  
    57   34   35 ar  
    58   34   57 1   
    59   35   36 ar  
    60   36   37 ar  
    61   36   58 1   
    62   37   38 ar  
    63   37   59 1   
    64   38   60 1   
@<TRIPOS>SUBSTRUCTURE
     1 0OF         1 TEMP              0 ****  ****    0 ROOT
