@<TRIPOS>MOLECULE
0OF
   60    64     1     0     0
SMALL
bcc


@<TRIPOS>ATOM
      1 C1         -1.2690   -1.5910   -1.7320 c3        1 0OF     -0.158400
      2 C2         -2.4720   -2.0760   -0.9300 c         1 0OF      0.711500
      3 N3         -2.6850   -1.6190    0.3680 n         1 0OF     -0.387000
      4 C4         -1.7700   -0.7810    1.0420 ca        1 0OF      0.078600
      5 C5         -1.2170    0.3860    0.4340 ca        1 0OF      0.031600
      6 N6         -1.5510    0.7730   -0.8880 n         1 0OF     -0.298200
      7 C7         -1.3820   -0.0880   -1.9770 c         1 0OF      0.716500
      8 O8         -3.2650   -2.8860   -1.4430 o         1 0OF     -0.611500
      9 O9         -1.3810    0.3410   -3.1420 o         1 0OF     -0.593500
     10 C10        -0.3190    1.1860    1.1750 ca        1 0OF     -0.077000
     11 C11         0.0190    0.8490    2.4800 ca        1 0OF     -0.166300
     12 C12        -0.5040   -0.3000    3.0740 ca        1 0OF     -0.075000
     13 C13        -1.3790   -1.1060    2.3620 ca        1 0OF     -0.140000
     14 C14        -1.8580    2.1540   -1.0900 ca        1 0OF      0.030600
     15 C15        -2.8770    2.7550   -0.3190 ca        1 0OF     -0.124500
     16 C16        -3.1910    4.0970   -0.5060 ca        1 0OF     -0.120500
     17 C17        -2.5140    4.8570   -1.4590 ca        1 0OF     -0.127000
     18 C18        -1.5150    4.2670   -2.2300 ca        1 0OF     -0.120500
     19 C19        -1.1790    2.9270   -2.0530 ca        1 0OF     -0.124500
     20 C20         0.9640    1.7450    3.2730 c3        1 0OF      0.690200
     21 F21         0.3270    2.7000    4.0280 f         1 0OF     -0.234633
     22 F22         1.7540    1.0760    4.1760 f         1 0OF     -0.234633
     23 F23         1.8550    2.4590    2.5100 f         1 0OF     -0.234633
     24 C24        -3.9490   -1.9180    1.0250 c3        1 0OF      0.093000
     25 C25        -5.0360   -0.8780    0.8040 c3        1 0OF     -0.117100
     26 C26         0.0480   -2.0300   -1.1900 ca        1 0OF     -0.046300
     27 C27         0.1450   -3.2650   -0.5380 ca        1 0OF     -0.204000
     28 C28         1.3970   -3.7040   -0.0910 ca        1 0OF      0.133100
     29 C29         2.5530   -2.9330   -0.2910 ca        1 0OF     -0.141000
     30 C30         2.4480   -1.7090   -0.9580 cp        1 0OF      0.010000
     31 C31         1.1960   -1.2650   -1.4100 ca        1 0OF     -0.147000
     32 O32         1.5690   -4.9010    0.5650 oh        1 0OF     -0.494100
     33 C33         3.6370   -0.8950   -1.1840 cp        1 0OF     -0.164300
     34 C34         3.8190   -0.2030   -2.4050 ca        1 0OF      0.409200
     35 N35         4.8900    0.5640   -2.6730 nb        1 0OF     -0.662000
     36 C36         5.8340    0.6720   -1.7170 ca        1 0OF      0.399200
     37 C37         5.7500    0.0240   -0.4710 ca        1 0OF     -0.245300
     38 C38         4.6350   -0.7710   -0.2060 ca        1 0OF     -0.078000
     39 H1         -1.3760   -2.0700   -2.7590 hc        1 0OF      0.138700
     40 H2          0.1140    2.0950    0.7180 ha        1 0OF      0.170000
     41 H3         -0.2140   -0.5690    4.1030 ha        1 0OF      0.158000
     42 H4         -1.7690   -2.0180    2.8420 ha        1 0OF      0.152000
     43 H5         -3.4250    2.1660    0.4340 ha        1 0OF      0.147500
     44 H6         -3.9850    4.5570    0.1020 ha        1 0OF      0.138500
     45 H7         -2.7710    5.9170   -1.6030 ha        1 0OF      0.137000
     46 H8         -0.9820    4.8600   -2.9890 ha        1 0OF      0.138500
     47 H9         -0.4020    2.4700   -2.6870 ha        1 0OF      0.147500
     48 H10        -4.3110   -2.9140    0.6350 h1        1 0OF      0.065200
     49 H11        -3.7620   -2.0220    2.1310 h1        1 0OF      0.065200
     50 H12        -5.9460   -1.1900    1.3720 hc        1 0OF      0.048033
     51 H13        -4.7170    0.1290    1.1640 hc        1 0OF      0.048033
     52 H14        -5.3010   -0.8010   -0.2780 hc        1 0OF      0.048033
     53 H15        -0.7500   -3.8860   -0.3860 ha        1 0OF      0.146000
     54 H16         3.5240   -3.3080    0.0660 ha        1 0OF      0.158000
     55 H17         1.1220   -0.3030   -1.9420 ha        1 0OF      0.147000
     56 H18         0.7150   -5.3570    0.5860 ho        1 0OF      0.423000
     57 H19         3.0670   -0.2780   -3.2110 h4        1 0OF      0.029100
     58 H20         6.7000    1.3110   -1.9670 h4        1 0OF      0.025100
     59 H21         6.5460    0.1460    0.2740 ha        1 0OF      0.147000
     60 H22         4.5330   -1.2880    0.7590 ha        1 0OF      0.144000
@<TRIPOS>BOND
     1    1    2 1   
     2    1    7 1   
     3    1   26 1   
     4    1   39 1   
     5    2    3 1   
     6    2    8 2   
     7    3    4 1   
     8    3   24 1   
     9    4    5 ar  
    10    4   13 ar  
    11    5    6 1   
    12    5   10 ar  
    13    6    7 1   
    14    6   14 1   
    15    7    9 2   
    16   10   11 ar  
    17   10   40 1   
    18   11   12 ar  
    19   11   20 1   
    20   12   13 ar  
    21   12   41 1   
    22   13   42 1   
    23   14   15 ar  
    24   14   19 ar  
    25   15   16 ar  
    26   15   43 1   
    27   16   17 ar  
    28   16   44 1   
    29   17   18 ar  
    30   17   45 1   
    31   18   19 ar  
    32   18   46 1   
    33   19   47 1   
    34   20   21 1   
    35   20   22 1   
    36   20   23 1   
    37   24   25 1   
    38   24   48 1   
    39   24   49 1   
    40   25   50 1   
    41   25   51 1   
    42   25   52 1   
    43   26   27 ar  
    44   26   31 ar  
    45   27   28 ar  
    46   27   53 1   
    47   28   29 ar  
    48   28   32 1   
    49   29   30 ar  
    50   29   54 1   
    51   30   31 ar  
    52   30   33 1   
    53   31   55 1   
    54   32   56 1   
    55   33   34 ar  
    56   33   38 ar  
    57   34   35 ar  
    58   34   57 1   
    59   35   36 ar  
    60   36   37 ar  
    61   36   58 1   
    62   37   38 ar  
    63   37   59 1   
    64   38   60 1   
@<TRIPOS>SUBSTRUCTURE
     1 0OF         1 TEMP              0 ****  ****    0 ROOT
