@<TRIPOS>MOLECULE
0OF
   60    54     1     0     0
SMALL
bcc


@<TRIPOS>ATOM
      1 C1          0.1410   -0.1650   -2.6400 c3        1 0OF     -0.105000
      2 C2          1.6430   -0.1700   -2.6230 c2        1 0OF      0.317000
      3 N3          2.1350   -0.2120   -1.3020 n         1 0OF     -0.282000
      4 C4          1.2500    0.4280   -0.4120 c2        1 0OF      0.089000
      5 C5          0.2980   -0.4250    0.0170 c2        1 0OF      0.037000
      6 N6          0.3050   -1.6270   -0.7550 n         1 0OF     -0.242000
      7 C7         -0.3230   -1.4260   -2.0010 c2        1 0OF      0.324000
      8 O8          2.3300   -0.2530   -3.6030 o         1 0OF     -0.330000
      9 O9         -1.1370   -2.1720   -2.4800 o         1 0OF     -0.321000
     10 C10        -0.1070   -0.4120    1.3850 c1        1 0OF     -0.075000
     11 C11         0.4810    0.4830    2.2770 c1        1 0OF     -0.165000
     12 C12         1.4580    1.3590    1.8360 c1        1 0OF     -0.072000
     13 C13         1.8530    1.3460    0.5040 c1        1 0OF     -0.151000
     14 C14         0.6700   -2.9200   -0.2340 c2        1 0OF      0.040000
     15 C15        -0.0210   -4.0660   -0.6670 c2        1 0OF     -0.118000
     16 C16         0.1740   -5.2760   -0.0250 c1        1 0OF     -0.119000
     17 C17         1.0500   -5.3590    1.0470 c1        1 0OF     -0.123750
     18 C18         1.7350   -4.2230    1.4760 c1        1 0OF     -0.123750
     19 C19         1.5410   -3.0050    0.8320 c1        1 0OF     -0.132000
     20 C20         0.1070    0.4400    3.7540 c3        1 0OF      0.470000
     21 F21         0.9840   -0.3710    4.4240 f         1 0OF     -0.164000
     22 F22         0.1650    1.7010    4.2710 f         1 0OF     -0.164000
     23 F23        -1.1520   -0.0480    3.8910 f         1 0OF     -0.164000
     24 C24         3.4340   -0.7010   -0.9420 c3        1 0OF     -0.023000
     25 C25         4.5020    0.1140   -1.6770 c3        1 0OF     -0.241000
     26 C26        -0.2180    0.8430   -1.7180 c1        1 0OF     -0.044000
     27 C27         0.5770    1.9840   -1.6020 c1        1 0OF     -0.148000
     28 C28         0.1050    3.0960   -0.9070 c1        1 0OF      0.088000
     29 C29        -1.1610    3.0700   -0.3280 c2        1 0OF     -0.198000
     30 C30        -1.9560    1.9360   -0.4420 c1        1 0OF      0.016000
     31 C31        -1.4860    0.8210   -1.1370 c2        1 0OF     -0.147000
     32 O32         0.8770    4.2880   -0.8670 o         1 0OF     -0.248000
     33 C33        -3.4300    1.9580    0.0980 c1        1 0OF     -0.099000
     34 C34        -4.4860    1.5250   -0.7220 c1        1 0OF     -0.055000
     35 N35        -5.7640    1.6090   -0.2810 n1        1 0OF     -0.135000
     36 C36        -6.0320    2.1220    0.9840 c1        1 0OF     -0.123750
     37 C37        -4.9900    2.5500    1.7940 c1        1 0OF     -0.123750
     38 C38        -3.6940    2.4660    1.3470 c1        1 0OF     -0.079000
     39 H1         -0.2860    0.1100   -3.4530 hc        1 0OF      0.179000
     40 H2         -0.8030   -1.0370    1.7000 ha        1 0OF      0.169000
     41 H3          1.8690    1.9860    2.4610 ha        1 0OF      0.157000
     42 H4          2.5480    1.9680    0.1910 ha        1 0OF      0.155000
     43 H5         -0.6480   -4.0080   -1.4370 ha        1 0OF      0.155000
     44 H6         -0.3230   -6.0990   -0.3360 ha        1 0OF      0.139000
     45 H7          1.1880   -6.2180    1.5030 ha        1 0OF      0.145750
     46 H8          2.3640   -4.2830    2.2440 ha        1 0OF      0.145750
     47 H9          2.0310   -2.1920    1.1420 ha        1 0OF      0.141000
     48 H10         3.5100   -1.6610   -1.2000 h1        1 0OF      0.104000
     49 H11         3.5620   -0.6110    0.0270 h1        1 0OF      0.104000
     50 H12         4.1200    0.4700   -2.5180 hc        1 0OF      0.089667
     51 H13         4.7950    0.8630   -1.1080 hc        1 0OF      0.089667
     52 H14         5.2820   -0.4680   -1.8870 hc        1 0OF      0.089667
     53 H15         1.4820    2.0030   -2.0140 ha        1 0OF      0.161000
     54 H16        -1.4860    3.8390    0.1520 ha        1 0OF      0.142000
     55 H17        -2.0550    0.0090   -1.2180 ha        1 0OF      0.149000
     56 H18         0.3650    4.9880   -1.1270 ho        1 0OF      0.222000
     57 H19        -4.2990    1.1630   -1.6150 ha        1 0OF      0.167000
     58 H20        -6.9520    2.1820    1.3010 ha        1 0OF      0.145750
     59 H21        -5.1790    2.9120    2.6870 ha        1 0OF      0.145750
     60 H22        -2.9400    2.7760    1.9340 ha        1 0OF      0.141000
@<TRIPOS>BOND
     1    1    2 1   
     2    1    7 1   
     3    1   26 1   
     4    1   39 1   
     5    2    3 1   
     6    2    8 1   
     7    3    4 1   
     8    3   24 1   
     9    4    5 1   
    10    4   13 1   
    11    5    6 1   
    12    5   10 1   
    13    6    7 1   
    14    6   14 1   
    15    7    9 1   
    16   10   40 1   
    17   11   12 1   
    18   11   20 1   
    19   12   41 1   
    20   13   42 1   
    21   14   15 1   
    22   14   19 1   
    23   15   16 1   
    24   15   43 1   
    25   16   44 1   
    26   17   18 1   
    27   17   45 1   
    28   18   46 1   
    29   19   47 1   
    30   20   21 1   
    31   20   22 1   
    32   20   23 1   
    33   24   25 1   
    34   24   48 1   
    35   24   49 1   
    36   25   50 1   
    37   25   51 1   
    38   25   52 1   
    39   26   31 1   
    40   27   28 1   
    41   27   53 1   
    42   28   29 1   
    43   29   30 1   
    44   29   54 1   
    45   30   31 1   
    46   31   55 1   
    47   32   56 1   
    48   33   38 1   
    49   34   35 1   
    50   34   57 1   
    51   36   37 1   
    52   36   58 1   
    53   37   59 1   
    54   38   60 1   
@<TRIPOS>SUBSTRUCTURE
     1 0OF         1 TEMP              0 ****  ****    0 ROOT
