@<TRIPOS>MOLECULE
0OF
   60    64     1     0     0
SMALL
bcc


@<TRIPOS>ATOM
      1 C1         -0.1480    0.1230    0.1430 c3        1 0OF     -0.158400
      2 C2          1.3690    0.0590   -0.0000 c         1 0OF      0.711500
      3 N3          2.1800   -0.0330    1.1270 n         1 0OF     -0.387000
      4 C4          1.6690    0.0300    2.4420 ca        1 0OF      0.078600
      5 C5          0.5440   -0.7410    2.8590 ca        1 0OF      0.031600
      6 N6         -0.1340   -1.6170    1.9730 n         1 0OF     -0.298200
      7 C7         -0.6650   -1.1760    0.7570 c         1 0OF      0.716500
      8 O8          1.8800    0.0910   -1.1350 o         1 0OF     -0.611500
      9 O9         -1.5060   -1.8490    0.1400 o         1 0OF     -0.593500
     10 C10         0.0980   -0.6390    4.1950 ca        1 0OF     -0.077000
     11 C11         0.7470    0.1940    5.0970 ca        1 0OF     -0.166300
     12 C12         1.8380    0.9650    4.6920 ca        1 0OF     -0.075000
     13 C13         2.2860    0.8880    3.3820 ca        1 0OF     -0.140000
     14 C14        -0.4460   -2.9170    2.4770 ca        1 0OF      0.030600
     15 C15         0.5920   -3.7270    2.9880 ca        1 0OF     -0.124500
     16 C16         0.3050   -4.9970    3.4780 ca        1 0OF     -0.120500
     17 C17        -1.0010   -5.4860    3.4620 ca        1 0OF     -0.127000
     18 C18        -2.0270   -4.6950    2.9500 ca        1 0OF     -0.120500
     19 C19        -1.7640   -3.4170    2.4620 ca        1 0OF     -0.124500
     20 C20         0.2710    0.2640    6.5430 c3        1 0OF      0.690200
     21 F21         0.9130   -0.6110    7.3870 f         1 0OF     -0.234633
     22 F22         0.4440    1.4900    7.1390 f         1 0OF     -0.234633
     23 F23        -1.0620   -0.0130    6.7230 f         1 0OF     -0.234633
     24 C24         3.5970   -0.3170    0.9580 c3        1 0OF      0.093000
     25 C25         3.9490   -1.7970    0.9570 c3        1 0OF     -0.117100
     26 C26        -0.6510    1.3610    0.8020 ca        1 0OF     -0.046300
     27 C27         0.0460    2.5620    0.6310 ca        1 0OF     -0.204000
     28 C28        -0.4680    3.7360    1.1960 ca        1 0OF      0.133100
     29 C29        -1.6690    3.7290    1.9230 ca        1 0OF     -0.141000
     30 C30        -2.3650    2.5270    2.0750 cp        1 0OF      0.010000
     31 C31        -1.8560    1.3480    1.5090 ca        1 0OF     -0.147000
     32 O32         0.1650    4.9520    1.0770 oh        1 0OF     -0.494100
     33 C33        -3.6190    2.4970    2.8200 cp        1 0OF     -0.164300
     34 C34        -4.7050    1.7050    2.3780 ca        1 0OF      0.409200
     35 N35        -5.8840    1.6330    3.0210 nb        1 0OF     -0.662000
     36 C36        -6.0250    2.3600    4.1470 ca        1 0OF      0.399200
     37 C37        -5.0080    3.1810    4.6690 ca        1 0OF     -0.245300
     38 C38        -3.7910    3.2480    3.9920 ca        1 0OF     -0.078000
     39 H1         -0.5530    0.1320   -0.9210 hc        1 0OF      0.138700
     40 H2         -0.7700   -1.2340    4.5330 ha        1 0OF      0.170000
     41 H3          2.3340    1.6380    5.4100 ha        1 0OF      0.158000
     42 H4          3.1390    1.5170    3.0760 ha        1 0OF      0.152000
     43 H5          1.6290   -3.3580    3.0020 ha        1 0OF      0.147500
     44 H6          1.1210   -5.6200    3.8770 ha        1 0OF      0.138500
     45 H7         -1.2180   -6.4920    3.8490 ha        1 0OF      0.137000
     46 H8         -3.0590   -5.0780    2.9280 ha        1 0OF      0.138500
     47 H9         -2.5840   -2.8150    2.0390 ha        1 0OF      0.147500
     48 H10         4.1670    0.1940    1.7850 h1        1 0OF      0.065200
     49 H11         3.9230    0.1360   -0.0240 h1        1 0OF      0.065200
     50 H12         3.4590   -2.3230    0.1020 hc        1 0OF      0.048033
     51 H13         3.6320   -2.2920    1.9070 hc        1 0OF      0.048033
     52 H14         5.0560   -1.8990    0.8520 hc        1 0OF      0.048033
     53 H15         0.9810    2.5860    0.0520 ha        1 0OF      0.146000
     54 H16        -2.0500    4.6680    2.3500 ha        1 0OF      0.158000
     55 H17        -2.4160    0.4060    1.6250 ha        1 0OF      0.147000
     56 H18         0.9410    4.8320    0.5100 ho        1 0OF      0.423000
     57 H19        -4.6230    1.1040    1.4540 h4        1 0OF      0.029100
     58 H20        -7.0030    2.2780    4.6520 h4        1 0OF      0.025100
     59 H21        -5.1740    3.7520    5.5920 ha        1 0OF      0.147000
     60 H22        -2.9720    3.8750    4.3750 ha        1 0OF      0.144000
@<TRIPOS>BOND
     1    1    2 1   
     2    1    7 1   
     3    1   26 1   
     4    1   39 1   
     5    2    3 1   
     6    2    8 2   
     7    3    4 1   
     8    3   24 1   
     9    4    5 ar  
    10    4   13 ar  
    11    5    6 1   
    12    5   10 ar  
    13    6    7 1   
    14    6   14 1   
    15    7    9 2   
    16   10   11 ar  
    17   10   40 1   
    18   11   12 ar  
    19   11   20 1   
    20   12   13 ar  
    21   12   41 1   
    22   13   42 1   
    23   14   15 ar  
    24   14   19 ar  
    25   15   16 ar  
    26   15   43 1   
    27   16   17 ar  
    28   16   44 1   
    29   17   18 ar  
    30   17   45 1   
    31   18   19 ar  
    32   18   46 1   
    33   19   47 1   
    34   20   21 1   
    35   20   22 1   
    36   20   23 1   
    37   24   25 1   
    38   24   48 1   
    39   24   49 1   
    40   25   50 1   
    41   25   51 1   
    42   25   52 1   
    43   26   27 ar  
    44   26   31 ar  
    45   27   28 ar  
    46   27   53 1   
    47   28   29 ar  
    48   28   32 1   
    49   29   30 ar  
    50   29   54 1   
    51   30   31 ar  
    52   30   33 1   
    53   31   55 1   
    54   32   56 1   
    55   33   34 ar  
    56   33   38 ar  
    57   34   35 ar  
    58   34   57 1   
    59   35   36 ar  
    60   36   37 ar  
    61   36   58 1   
    62   37   38 ar  
    63   37   59 1   
    64   38   60 1   
@<TRIPOS>SUBSTRUCTURE
     1 0OF         1 TEMP              0 ****  ****    0 ROOT
