@<TRIPOS>MOLECULE
0OG
   64    69     1     0     0
SMALL
bcc


@<TRIPOS>ATOM
      1 C01         0.6390    0.6880   -0.3310 cc        1 0OG      0.290600
      2 C02         1.7810   -0.1880   -0.2430 cc        1 0OG     -0.284300
      3 C03         1.9710   -0.4070    1.1370 cd        1 0OG     -0.134800
      4 N04         0.9560    0.3210    1.7960 na        1 0OG      0.192300
      5 N05         0.1770    0.9740    0.9240 nd        1 0OG     -0.490800
      6 C06         0.7810    0.4520    3.2130 ca        1 0OG     -0.035200
      7 C07         0.8350    1.7480    3.7920 ca        1 0OG     -0.105000
      8 C08         0.6730    1.9360    5.1530 ca        1 0OG     -0.136000
      9 C09         0.4510    0.8110    5.9580 ca        1 0OG     -0.068200
     10 C10         0.3820   -0.5160    5.3720 ca        1 0OG      0.068400
     11 C11         0.5340   -0.6850    3.9920 ca        1 0OG     -0.046000
     12 N12         0.2590    0.6430    7.3350 na        1 0OG     -0.159300
     13 C13         0.0870   -0.7600    7.5400 cc        1 0OG      0.530400
     14 N14         0.1590   -1.4640    6.3870 nd        1 0OG     -0.563100
     15 C15        -0.1600   -1.3430    8.8610 ca        1 0OG     -0.174900
     16 C16         0.6500   -0.9970    9.9500 ca        1 0OG     -0.069000
     17 C17         0.3800   -1.4710   11.2330 ca        1 0OG     -0.170600
     18 C18        -0.6510   -2.3950   11.4230 ca        1 0OG     -0.050000
     19 C19        -1.4480   -2.7870   10.3530 ca        1 0OG     -0.242000
     20 C20        -1.2230   -2.2430    9.0770 ca        1 0OG      0.148100
     21 C21         3.0130   -1.1920    1.7240 cd        1 0OG      0.312200
     22 C22         4.2800   -1.5190    1.2610 cc        1 0OG     -0.237300
     23 C23         4.8840   -2.3620    2.2630 cc        1 0OG     -0.280300
     24 C24         3.9580   -2.5050    3.2810 cd        1 0OG      0.274000
     25 O25         2.7920   -1.7940    2.9700 os        1 0OG     -0.343800
     26 C26         3.9510   -3.2090    4.5650 c3        1 0OG     -0.142400
     27 C27         0.0560    1.2100   -1.5880 c3        1 0OG     -0.095700
     28 C28        -1.3980    0.8400   -1.7490 c3        1 0OG     -0.090100
     29 C29         0.4260    1.6980    8.3030 c3        1 0OG      0.118500
     30 C30        -0.7420    1.9830    9.1850 cc        1 0OG     -0.278200
     31 C31        -0.6450    1.7820   10.5530 cd        1 0OG      0.058600
     32 N32        -1.6670    2.1160   11.3950 n         1 0OG     -0.415100
     33 C33        -2.8800    2.6550   10.9150 c         1 0OG      0.679700
     34 C34        -2.9850    2.8370    9.4710 cd        1 0OG     -0.294200
     35 C35        -1.9530    2.5080    8.6470 cc        1 0OG     -0.007000
     36 O36        -3.7720    2.9450   11.7420 o         1 0OG     -0.671500
     37 O37        -2.0460   -2.5440    8.0140 oh        1 0OG     -0.487100
     38 C38         1.1450   -0.8970   12.4130 c         1 0OG      0.914200
     39 O39         1.3970   -1.6350   13.3980 o         1 0OG     -0.827300
     40 O40         1.4550    0.3330   12.3360 o         1 0OG     -0.827300
     41 H1          2.3610   -0.5970   -1.0610 ha        1 0OG      0.161000
     42 H2          1.0050    2.6250    3.1480 ha        1 0OG      0.142000
     43 H3          0.7170    2.9460    5.5830 ha        1 0OG      0.136000
     44 H4          0.4830   -1.6930    3.5500 ha        1 0OG      0.162000
     45 H5          1.5140   -0.3260    9.8170 ha        1 0OG      0.147000
     46 H6         -0.8200   -2.7990   12.4340 ha        1 0OG      0.152000
     47 H7         -2.2640   -3.5080   10.4990 ha        1 0OG      0.120000
     48 H8          4.7380   -1.2010    0.3300 ha        1 0OG      0.157000
     49 H9          5.8800   -2.7910    2.2130 ha        1 0OG      0.156000
     50 H10         4.0940   -4.3060    4.3980 hc        1 0OG      0.066033
     51 H11         4.7850   -2.8330    5.2100 hc        1 0OG      0.066033
     52 H12         2.9830   -3.0490    5.1040 hc        1 0OG      0.066033
     53 H13         0.1630    2.3290   -1.6110 hc        1 0OG      0.044200
     54 H14         0.6490    0.7980   -2.4490 hc        1 0OG      0.044200
     55 H15        -2.0110    1.2800   -0.9250 hc        1 0OG      0.037033
     56 H16        -1.7830    1.2250   -2.7240 hc        1 0OG      0.037033
     57 H17        -1.5280   -0.2690   -1.7280 hc        1 0OG      0.037033
     58 H18         1.3270    1.4560    8.9430 h1        1 0OG      0.061700
     59 H19         0.6640    2.6410    7.7250 h1        1 0OG      0.061700
     60 H21         0.2640    1.3280   11.0390 h4        1 0OG      0.244000
     61 H22        -3.9390    3.2380    9.1070 ha        1 0OG      0.150000
     62 H23        -2.0350    2.6360    7.5560 ha        1 0OG      0.133000
     63 H24        -2.6850   -3.2040    8.3210 ho        1 0OG      0.407000
     64 H20        -1.5700    1.9390   12.3730 hn        1 0OG      0.348500
@<TRIPOS>BOND
     1    1    2 1   
     2    1    5 2   
     3    1   27 1   
     4    2    3 2   
     5    2   41 1   
     6    3    4 1   
     7    3   21 1   
     8    4    5 1   
     9    4    6 1   
    10    6    7 ar  
    11    6   11 ar  
    12    7    8 ar  
    13    7   42 1   
    14    8    9 ar  
    15    8   43 1   
    16    9   10 ar  
    17    9   12 1   
    18   10   11 ar  
    19   10   14 1   
    20   11   44 1   
    21   12   13 1   
    22   12   29 1   
    23   13   14 2   
    24   13   15 1   
    25   15   16 ar  
    26   15   20 ar  
    27   16   17 ar  
    28   16   45 1   
    29   17   18 ar  
    30   17   38 1   
    31   18   19 ar  
    32   18   46 1   
    33   19   20 ar  
    34   19   47 1   
    35   20   37 1   
    36   21   22 2   
    37   21   25 1   
    38   22   23 1   
    39   22   48 1   
    40   23   24 2   
    41   23   49 1   
    42   24   25 1   
    43   24   26 1   
    44   26   50 1   
    45   26   51 1   
    46   26   52 1   
    47   27   28 1   
    48   27   53 1   
    49   27   54 1   
    50   28   55 1   
    51   28   56 1   
    52   28   57 1   
    53   29   30 1   
    54   29   58 1   
    55   29   59 1   
    56   30   31 2   
    57   30   35 1   
    58   31   32 1   
    59   31   60 1   
    60   32   33 1   
    61   32   64 1   
    62   33   34 1   
    63   33   36 2   
    64   34   35 2   
    65   34   61 1   
    66   35   62 1   
    67   37   63 1   
    68   38   39 1   
    69   38   40 1   
@<TRIPOS>SUBSTRUCTURE
     1 0OG         1 TEMP              0 ****  ****    0 ROOT
