@<TRIPOS>MOLECULE
0OG
   64    49     1     0     0
SMALL
bcc


@<TRIPOS>ATOM
      1 C01         0.2690   -2.5780   -3.7040 c1        1 0OG     -0.069000
      2 C02        -0.8030   -3.4240   -3.5770 c1        1 0OG     -0.218000
      3 C03        -1.1480   -3.4730   -2.2520 c1        1 0OG     -0.069000
      4 N04        -0.2980   -2.6650   -1.5680 n2        1 0OG     -0.051000
      5 N05         0.5810   -2.1100   -2.4710 n2        1 0OG     -0.051000
      6 C06        -0.3630   -2.3680   -0.1640 c1        1 0OG     -0.069000
      7 C07         0.5350   -2.7040    0.8440 c2        1 0OG     -0.076500
      8 C08         1.1060   -1.7060    1.6290 c1        1 0OG     -0.189500
      9 C09         0.7740   -0.3490    1.4010 c1        1 0OG     -0.044000
     10 C10        -0.1100   -0.0190    0.4090 c1        1 0OG     -0.044000
     11 C11        -0.6900   -1.0340   -0.3890 c1        1 0OG     -0.055000
     12 N12         1.2170    0.8070    1.9710 n1        1 0OG     -0.158500
     13 C13         0.6100    1.8520    1.3340 c1        1 0OG      0.113000
     14 N14        -0.2090    1.3400    0.3690 n1        1 0OG     -0.158500
     15 C15         0.0200    3.1040    0.6700 c1        1 0OG     -0.098000
     16 C16         0.6900    3.7090   -0.3890 c1        1 0OG     -0.055000
     17 C17         0.1070    4.7810   -1.0600 c1        1 0OG     -0.069000
     18 C18        -1.1450    5.2460   -0.6720 c2        1 0OG     -0.076500
     19 C19        -1.8150    4.6420    0.3860 c1        1 0OG     -0.189500
     20 C20        -1.2330    3.5710    1.0580 c1        1 0OG      0.093000
     21 C21        -2.2400   -4.3540   -1.6390 c1        1 0OG     -0.001500
     22 C22        -2.2200   -5.7370   -1.5630 c1        1 0OG     -0.194500
     23 C23        -3.4230   -6.1500   -1.0490 c1        1 0OG     -0.194500
     24 C24        -4.1910   -5.0250   -0.8050 c1        1 0OG     -0.001500
     25 O25        -3.4570   -3.9210   -1.1700 os        1 0OG     -0.084000
     26 C26        -5.6150   -5.0140   -0.2540 c2        1 0OG     -0.166000
     27 C27         1.0290   -2.2730   -5.0030 c2        1 0OG     -0.080000
     28 C28         0.5640   -0.9230   -5.5620 c3        1 0OG     -0.208000
     29 C29         2.0410    0.4470    3.1060 c2        1 0OG      0.060000
     30 C30         2.6890    1.7110    3.6920 c1        1 0OG     -0.302000
     31 C31         1.8260    2.7610    4.3670 c1        1 0OG      0.078000
     32 N32         2.4520    3.8820    5.0770 n2        1 0OG     -0.242000
     33 C33         3.9130    4.0100    5.1090 c1        1 0OG      0.316000
     34 C34         4.7830    2.9650    4.4370 c1        1 0OG     -0.145000
     35 C35         4.1590    1.8370    3.7230 c1        1 0OG     -0.145000
     36 O36         4.4290    4.9420    5.7000 o         1 0OG     -0.389000
     37 O37        -1.5280    3.6240    2.4390 oh        1 0OG     -0.252000
     38 C38         0.8610    5.4740   -2.1830 c1        1 0OG      0.372000
     39 O39         0.6110    5.1820   -3.3830 os        1 0OG     -0.610000
     40 O40         1.6890    6.3860   -1.9160 o         1 0OG     -0.528000
     41 H1         -1.2440   -3.9090   -4.3060 DU        1 0OG      0.157333
     42 H2          0.7500   -3.6240    1.1160 ha        1 0OG      0.149000
     43 H3          1.6820   -2.2260    2.2320 ha        1 0OG      0.127500
     44 H4         -1.4000   -0.6420   -0.9410 ha        1 0OG      0.160000
     45 H5          1.5780    3.3900   -0.6530 ha        1 0OG      0.160000
     46 H6         -1.5450    6.0180   -1.1310 ha        1 0OG      0.149000
     47 H7         -2.7200    4.9380    0.6270 ha        1 0OG      0.127500
     48 H8         -1.4900   -6.3200   -1.8600 DU        1 0OG      0.157333
     49 H9         -3.6910   -7.0800   -0.8840 DU        1 0OG      0.157333
     50 H10        -6.1250   -5.7570   -0.6500 ha        1 0OG      0.104333
     51 H11        -5.5890   -5.1180    0.7210 ha        1 0OG      0.104333
     52 H12        -6.0480   -4.1630   -0.4820 ha        1 0OG      0.104333
     53 H13         0.8480   -2.9800   -5.6620 ha        1 0OG      0.083500
     54 H14         1.9940   -2.2370   -4.8180 ha        1 0OG      0.083500
     55 H15        -0.4080   -0.9400   -5.6940 hc        1 0OG      0.077000
     56 H16         1.0090   -0.7550   -6.4240 hc        1 0OG      0.077000
     57 H17         0.7970   -0.2090   -4.9290 hc        1 0OG      0.077000
     58 H18         2.7440   -0.1770    2.8150 ha        1 0OG      0.101500
     59 H19         1.4840    0.0160    3.7920 ha        1 0OG      0.101500
     60 H21         0.8500    2.6780    4.3470 ha        1 0OG      0.218000
     61 H22         5.7600    3.0520    4.4590 ha        1 0OG      0.137500
     62 H23         4.7200    1.1320    3.3360 ha        1 0OG      0.137500
     63 H24        -2.3490    3.9520    2.5540 ho        1 0OG      0.206000
     64 H20         1.9270    4.5160    5.4850 hn        1 0OG      0.292000
@<TRIPOS>BOND
     1    1    2 1   
     2    1    5 1   
     3    2    3 1   
     4    3    4 1   
     5    4    5 1   
     6    6    7 1   
     7    6   11 1   
     8    7    8 1   
     9    7   42 1   
    10    8   43 1   
    11    9   10 1   
    12   11   44 1   
    13   12   13 1   
    14   13   14 1   
    15   15   20 1   
    16   16   17 1   
    17   16   45 1   
    18   17   18 1   
    19   18   19 1   
    20   18   46 1   
    21   19   47 1   
    22   20   37 1   
    23   21   22 1   
    24   21   25 1   
    25   22   23 1   
    26   23   24 1   
    27   24   25 1   
    28   26   50 1   
    29   26   51 1   
    30   26   52 1   
    31   27   28 1   
    32   27   53 1   
    33   27   54 1   
    34   28   55 1   
    35   28   56 1   
    36   28   57 1   
    37   29   30 1   
    38   29   58 1   
    39   29   59 1   
    40   30   31 1   
    41   31   60 1   
    42   32   33 1   
    43   32   64 1   
    44   33   36 1   
    45   34   35 1   
    46   34   61 1   
    47   35   62 1   
    48   37   63 1   
    49   38   40 1   
@<TRIPOS>SUBSTRUCTURE
     1 0OG         1 TEMP              0 ****  ****    0 ROOT
