@<TRIPOS>MOLECULE
0OG
   64    69     1     0     0
SMALL
bcc


@<TRIPOS>ATOM
      1 C01         0.6400    0.6530   -0.3350 cc        1 0OG      0.290600
      2 C02         1.7970   -0.2010   -0.2390 cc        1 0OG     -0.284300
      3 C03         1.9870   -0.4080    1.1440 cd        1 0OG     -0.134800
      4 N04         0.9570    0.3050    1.7950 na        1 0OG      0.192300
      5 N05         0.1690    0.9390    0.9170 nd        1 0OG     -0.490800
      6 C06         0.7760    0.4420    3.2110 ca        1 0OG     -0.035200
      7 C07         0.8050    1.7420    3.7810 ca        1 0OG     -0.105000
      8 C08         0.6370    1.9350    5.1420 ca        1 0OG     -0.136000
      9 C09         0.4330    0.8120    5.9530 ca        1 0OG     -0.068200
     10 C10         0.3890   -0.5200    5.3750 ca        1 0OG      0.068400
     11 C11         0.5470   -0.6950    3.9970 ca        1 0OG     -0.046000
     12 N12         0.2410    0.6490    7.3300 na        1 0OG     -0.159300
     13 C13         0.0940   -0.7570    7.5440 cc        1 0OG      0.530400
     14 N14         0.1810   -1.4660    6.3950 nd        1 0OG     -0.563100
     15 C15        -0.1450   -1.3360    8.8680 ca        1 0OG     -0.174900
     16 C16         0.6560   -0.9690    9.9560 ca        1 0OG     -0.069000
     17 C17         0.3930   -1.4400   11.2410 ca        1 0OG     -0.170600
     18 C18        -0.6220   -2.3810   11.4350 ca        1 0OG     -0.050000
     19 C19        -1.4100   -2.7930   10.3660 ca        1 0OG     -0.242000
     20 C20        -1.1930   -2.2530    9.0870 ca        1 0OG      0.148100
     21 C21         3.0420   -1.1710    1.7390 cd        1 0OG      0.312200
     22 C22         4.3160   -1.4750    1.2820 cc        1 0OG     -0.237300
     23 C23         4.9320   -2.3020    2.2900 cc        1 0OG     -0.280300
     24 C24         4.0040   -2.4580    3.3050 cd        1 0OG      0.274000
     25 O25         2.8270   -1.7720    2.9860 os        1 0OG     -0.343800
     26 C26         4.0060   -3.1570    4.5920 c3        1 0OG     -0.142400
     27 C27         0.0510    1.1570   -1.5970 c3        1 0OG     -0.095700
     28 C28        -1.3960    0.7600   -1.7590 c3        1 0OG     -0.090100
     29 C29         0.3880    1.7120    8.2920 c3        1 0OG      0.118500
     30 C30        -0.7870    1.9810    9.1710 cc        1 0OG     -0.278200
     31 C31        -0.6890    1.7900   10.5400 cd        1 0OG      0.058600
     32 N32        -1.7180    2.1110   11.3780 n         1 0OG     -0.415100
     33 C33        -2.9390    2.6250   10.8940 c         1 0OG      0.679700
     34 C34        -3.0450    2.7960    9.4480 cd        1 0OG     -0.294200
     35 C35        -2.0060    2.4810    8.6270 cc        1 0OG     -0.007000
     36 O36        -3.8370    2.9040   11.7170 o         1 0OG     -0.671500
     37 O37        -2.0080   -2.5750    8.0250 oh        1 0OG     -0.487100
     38 C38         1.1450   -0.8460   12.4190 c         1 0OG      0.914200
     39 O39         1.4080   -1.5730   13.4090 o         1 0OG     -0.827300
     40 O40         1.4340    0.3890   12.3360 o         1 0OG     -0.827300
     41 H1          2.3870   -0.6040   -1.0520 ha        1 0OG      0.161000
     42 H2          0.9600    2.6180    3.1330 ha        1 0OG      0.142000
     43 H3          0.6620    2.9480    5.5650 ha        1 0OG      0.136000
     44 H4          0.5150   -1.7060    3.5610 ha        1 0OG      0.162000
     45 H5          1.5080   -0.2840    9.8210 ha        1 0OG      0.147000
     46 H6         -0.7860   -2.7810   12.4480 ha        1 0OG      0.152000
     47 H7         -2.2130   -3.5280   10.5150 ha        1 0OG      0.120000
     48 H8          4.7720   -1.1520    0.3520 ha        1 0OG      0.157000
     49 H9          5.9360   -2.7120    2.2470 ha        1 0OG      0.156000
     50 H10         4.1620   -4.2530    4.4300 hc        1 0OG      0.065700
     51 H11         4.8350   -2.7680    5.2360 hc        1 0OG      0.065700
     52 H12         3.0350   -3.0070    5.1290 hc        1 0OG      0.065700
     53 H13         0.6530    0.7500   -2.4530 hc        1 0OG      0.044200
     54 H14         0.1380    2.2770   -1.6270 hc        1 0OG      0.044200
     55 H15        -1.5060   -0.3510   -1.7320 hc        1 0OG      0.037033
     56 H16        -1.7860    1.1310   -2.7380 hc        1 0OG      0.037033
     57 H17        -2.0190    1.1940   -0.9400 hc        1 0OG      0.037033
     58 H18         1.2910    1.4900    8.9350 h1        1 0OG      0.061700
     59 H19         0.6100    2.6550    7.7090 h1        1 0OG      0.061700
     60 H21         0.2270    1.3550   11.0300 h4        1 0OG      0.244000
     61 H22        -4.0050    3.1780    9.0800 ha        1 0OG      0.150000
     62 H23        -2.0880    2.6010    7.5360 ha        1 0OG      0.133000
     63 H24        -2.6360   -3.2440    8.3340 ho        1 0OG      0.407000
     64 H20        -1.6190    1.9410   12.3580 hn        1 0OG      0.348500
@<TRIPOS>BOND
     1    1    2 1   
     2    1    5 2   
     3    1   27 1   
     4    2    3 2   
     5    2   41 1   
     6    3    4 1   
     7    3   21 1   
     8    4    5 1   
     9    4    6 1   
    10    6    7 ar  
    11    6   11 ar  
    12    7    8 ar  
    13    7   42 1   
    14    8    9 ar  
    15    8   43 1   
    16    9   10 ar  
    17    9   12 1   
    18   10   11 ar  
    19   10   14 1   
    20   11   44 1   
    21   12   13 1   
    22   12   29 1   
    23   13   14 2   
    24   13   15 1   
    25   15   16 ar  
    26   15   20 ar  
    27   16   17 ar  
    28   16   45 1   
    29   17   18 ar  
    30   17   38 1   
    31   18   19 ar  
    32   18   46 1   
    33   19   20 ar  
    34   19   47 1   
    35   20   37 1   
    36   21   22 2   
    37   21   25 1   
    38   22   23 1   
    39   22   48 1   
    40   23   24 2   
    41   23   49 1   
    42   24   25 1   
    43   24   26 1   
    44   26   50 1   
    45   26   51 1   
    46   26   52 1   
    47   27   28 1   
    48   27   53 1   
    49   27   54 1   
    50   28   55 1   
    51   28   56 1   
    52   28   57 1   
    53   29   30 1   
    54   29   58 1   
    55   29   59 1   
    56   30   31 2   
    57   30   35 1   
    58   31   32 1   
    59   31   60 1   
    60   32   33 1   
    61   32   64 1   
    62   33   34 1   
    63   33   36 2   
    64   34   35 2   
    65   34   61 1   
    66   35   62 1   
    67   37   63 1   
    68   38   39 1   
    69   38   40 1   
@<TRIPOS>SUBSTRUCTURE
     1 0OG         1 TEMP              0 ****  ****    0 ROOT
