@<TRIPOS>MOLECULE
0OG
   64    69     1     0     0
SMALL
bcc


@<TRIPOS>ATOM
      1 C01         0.6600    0.6850   -0.3300 cc        1 0OG      0.290600
      2 C02         1.8010   -0.1900   -0.2380 cc        1 0OG     -0.284300
      3 C03         1.9860   -0.4090    1.1430 cd        1 0OG     -0.134800
      4 N04         0.9690    0.3190    1.7980 na        1 0OG      0.192300
      5 N05         0.1930    0.9720    0.9230 nd        1 0OG     -0.490800
      6 C06         0.7890    0.4510    3.2150 ca        1 0OG     -0.035200
      7 C07         0.8410    1.7460    3.7930 ca        1 0OG     -0.105000
      8 C08         0.6740    1.9350    5.1540 ca        1 0OG     -0.136000
      9 C09         0.4490    0.8110    5.9580 ca        1 0OG     -0.068200
     10 C10         0.3820   -0.5170    5.3730 ca        1 0OG      0.068400
     11 C11         0.5390   -0.6860    3.9930 ca        1 0OG     -0.046000
     12 N12         0.2530    0.6430    7.3340 na        1 0OG     -0.159300
     13 C13         0.0800   -0.7610    7.5400 cc        1 0OG      0.530400
     14 N14         0.1560   -1.4650    6.3870 nd        1 0OG     -0.563100
     15 C15        -0.1710   -1.3430    8.8600 ca        1 0OG     -0.174900
     16 C16         0.6360   -0.9970    9.9510 ca        1 0OG     -0.069000
     17 C17         0.3620   -1.4710   11.2330 ca        1 0OG     -0.170600
     18 C18        -0.6690   -2.3950   11.4210 ca        1 0OG     -0.050000
     19 C19        -1.4640   -2.7870   10.3480 ca        1 0OG     -0.242000
     20 C20        -1.2350   -2.2430    9.0720 ca        1 0OG      0.148100
     21 C21         3.0260   -1.1940    1.7350 cd        1 0OG      0.312200
     22 C22         4.2950   -1.5200    1.2770 cc        1 0OG     -0.237300
     23 C23         4.8950   -2.3630    2.2800 cc        1 0OG     -0.280300
     24 C24         3.9650   -2.5060    3.2960 cd        1 0OG      0.274000
     25 O25         2.8010   -1.7960    2.9790 os        1 0OG     -0.343800
     26 C26         3.9540   -3.2110    4.5790 c3        1 0OG     -0.142400
     27 C27         0.0810    1.2070   -1.5900 c3        1 0OG     -0.095700
     28 C28        -1.3730    0.8380   -1.7550 c3        1 0OG     -0.090100
     29 C29         0.4180    1.6980    8.3030 c3        1 0OG      0.118500
     30 C30        -0.7530    1.9830    9.1820 cc        1 0OG     -0.278200
     31 C31        -0.6600    1.7820   10.5500 cd        1 0OG      0.058600
     32 N32        -1.6840    2.1170   11.3890 ns        1 0OG     -0.415100
     33 C33        -2.8950    2.6560   10.9060 c         1 0OG      0.679700
     34 C34        -2.9960    2.8370    9.4610 cd        1 0OG     -0.294200
     35 C35        -1.9620    2.5080    8.6400 cc        1 0OG     -0.007000
     36 O36        -3.7890    2.9460   11.7300 o         1 0OG     -0.671500
     37 O37        -2.0550   -2.5440    8.0080 oh        1 0OG     -0.487100
     38 C38         1.1240   -0.8970   12.4150 c         1 0OG      0.914200
     39 O39         1.3720   -1.6350   13.4020 o         1 0OG     -0.827300
     40 O40         1.4350    0.3330   12.3390 o         1 0OG     -0.827300
     41 H1          2.3850   -0.5990   -1.0530 ha        1 0OG      0.161000
     42 H2          1.0120    2.6240    3.1490 ha        1 0OG      0.142000
     43 H3          0.7170    2.9450    5.5840 ha        1 0OG      0.136000
     44 H4          0.4890   -1.6940    3.5510 ha        1 0OG      0.162000
     45 H5          1.5000   -0.3270    9.8210 ha        1 0OG      0.147000
     46 H6         -0.8420   -2.7980   12.4310 ha        1 0OG      0.152000
     47 H7         -2.2800   -3.5070   10.4920 ha        1 0OG      0.120000
     48 H8          4.7570   -1.2020    0.3470 ha        1 0OG      0.157000
     49 H9          5.8910   -2.7920    2.2350 ha        1 0OG      0.156000
     50 H10         4.0950   -4.3080    4.4130 hc        1 0OG      0.066033
     51 H11         4.7860   -2.8360    5.2260 hc        1 0OG      0.066033
     52 H12         2.9830   -3.0490    5.1150 hc        1 0OG      0.066033
     53 H13         0.6770    0.7940   -2.4480 hc        1 0OG      0.044200
     54 H14         0.1890    2.3250   -1.6130 hc        1 0OG      0.044200
     55 H15        -1.5040   -0.2710   -1.7340 hc        1 0OG      0.037033
     56 H16        -1.7540    1.2220   -2.7320 hc        1 0OG      0.037033
     57 H17        -1.9880    1.2790   -0.9340 hc        1 0OG      0.037033
     58 H18         1.3160    1.4550    8.9450 h1        1 0OG      0.061700
     59 H19         0.6580    2.6400    7.7250 h1        1 0OG      0.061700
     60 H21         0.2480    1.3280   11.0390 h4        1 0OG      0.244000
     61 H22        -3.9490    3.2390    9.0950 ha        1 0OG      0.150000
     62 H23        -2.0410    2.6360    7.5490 ha        1 0OG      0.133000
     63 H24        -2.6950   -3.2030    8.3120 ho        1 0OG      0.407000
     64 H20        -1.5890    1.9400   12.3670 hn        1 0OG      0.348500
@<TRIPOS>BOND
     1    1    2 1   
     2    1    5 2   
     3    1   27 1   
     4    2    3 2   
     5    2   41 1   
     6    3    4 1   
     7    3   21 1   
     8    4    5 1   
     9    4    6 1   
    10    6    7 ar  
    11    6   11 ar  
    12    7    8 ar  
    13    7   42 1   
    14    8    9 ar  
    15    8   43 1   
    16    9   10 ar  
    17    9   12 1   
    18   10   11 ar  
    19   10   14 1   
    20   11   44 1   
    21   12   13 1   
    22   12   29 1   
    23   13   14 2   
    24   13   15 1   
    25   15   16 ar  
    26   15   20 ar  
    27   16   17 ar  
    28   16   45 1   
    29   17   18 ar  
    30   17   38 1   
    31   18   19 ar  
    32   18   46 1   
    33   19   20 ar  
    34   19   47 1   
    35   20   37 1   
    36   21   22 2   
    37   21   25 1   
    38   22   23 1   
    39   22   48 1   
    40   23   24 2   
    41   23   49 1   
    42   24   25 1   
    43   24   26 1   
    44   26   50 1   
    45   26   51 1   
    46   26   52 1   
    47   27   28 1   
    48   27   53 1   
    49   27   54 1   
    50   28   55 1   
    51   28   56 1   
    52   28   57 1   
    53   29   30 1   
    54   29   58 1   
    55   29   59 1   
    56   30   31 2   
    57   30   35 1   
    58   31   32 1   
    59   31   60 1   
    60   32   33 1   
    61   32   64 1   
    62   33   34 1   
    63   33   36 2   
    64   34   35 2   
    65   34   61 1   
    66   35   62 1   
    67   37   63 1   
    68   38   39 1   
    69   38   40 1   
@<TRIPOS>SUBSTRUCTURE
     1 0OG         1 TEMP              0 ****  ****    0 ROOT
