@<TRIPOS>MOLECULE
0OG
   64    69     1     0     0
SMALL
bcc


@<TRIPOS>ATOM
      1 C01        -6.4960    0.7690   -1.4440 cc        1 0OG      0.293600
      2 C02        -6.6820    0.6910   -0.0170 cc        1 0OG     -0.284300
      3 C03        -5.4050    0.3980    0.5050 cd        1 0OG     -0.132800
      4 N04        -4.5330    0.3240   -0.6030 na        1 0OG      0.188300
      5 N05        -5.1840    0.5350   -1.7550 nd        1 0OG     -0.491800
      6 C06        -3.1390   -0.0110   -0.5740 ca        1 0OG     -0.027200
      7 C07        -2.6950   -1.1510   -1.2960 ca        1 0OG     -0.105000
      8 C08        -1.3620   -1.5230   -1.3050 ca        1 0OG     -0.132000
      9 C09        -0.4490   -0.7440   -0.5830 ca        1 0OG     -0.071200
     10 C10        -0.8940    0.4300    0.1470 ca        1 0OG      0.072400
     11 C11        -2.2440    0.7980    0.1350 ca        1 0OG     -0.050000
     12 N12         0.9330   -0.8390   -0.3710 na        1 0OG     -0.150300
     13 C13         1.2820    0.2590    0.4690 cc        1 0OG      0.523400
     14 N14         0.2060    1.0220    0.7870 nd        1 0OG     -0.612100
     15 C15         2.6470    0.5290    0.9250 ca        1 0OG     -0.228900
     16 C16         3.4470   -0.5290    1.3840 ca        1 0OG     -0.069000
     17 C17         4.7790   -0.3330    1.7340 ca        1 0OG     -0.172600
     18 C18         5.3080    0.9620    1.7310 ca        1 0OG     -0.053000
     19 C19         4.5270    2.0380    1.3320 ca        1 0OG     -0.192000
     20 C20         3.1980    1.8260    0.9110 ca        1 0OG      0.161100
     21 C21        -5.0920    0.1900    1.8860 cd        1 0OG      0.309200
     22 C22        -5.8810   -0.2360    2.9450 cc        1 0OG     -0.234300
     23 C23        -5.0420   -0.2330    4.1170 cc        1 0OG     -0.279300
     24 C24        -3.7880    0.1940    3.7130 cd        1 0OG      0.275000
     25 O25        -3.7960    0.4650    2.3400 os        1 0OG     -0.345800
     26 C26        -2.5110    0.4040    4.3990 c3        1 0OG     -0.142400
     27 C27        -7.5630    1.0500   -2.4320 c3        1 0OG     -0.096700
     28 C28        -7.2650    2.2660   -3.2760 c3        1 0OG     -0.090100
     29 C29         1.7400   -1.9330   -0.8540 c3        1 0OG      0.118500
     30 C30         2.8640   -1.5780   -1.7660 cc        1 0OG     -0.285200
     31 C31         4.1750   -1.8020   -1.3750 cd        1 0OG      0.062600
     32 N32         5.2190   -1.5690   -2.2230 n         1 0OG     -0.414100
     33 C33         5.0210   -1.0670   -3.5270 c         1 0OG      0.679700
     34 C34         3.6400   -0.8080   -3.9220 cd        1 0OG     -0.292200
     35 C35         2.6100   -1.0540   -3.0680 cc        1 0OG     -0.010000
     36 O36         6.0210   -0.8870   -4.2540 o         1 0OG     -0.667500
     37 O37         2.5480    2.9590    0.4870 oh        1 0OG     -0.512100
     38 C38         5.6570   -1.5380    2.0240 c         1 0OG      0.914200
     39 O39         6.5960   -1.4290    2.8520 o         1 0OG     -0.828300
     40 O40         5.3990   -2.5960    1.3670 o         1 0OG     -0.828300
     41 H1         -7.6020    0.8350    0.5350 ha        1 0OG      0.162000
     42 H2         -3.4210   -1.7520   -1.8650 ha        1 0OG      0.144000
     43 H3         -1.0370   -2.4090   -1.8680 ha        1 0OG      0.138000
     44 H4         -2.5790    1.6850    0.6950 ha        1 0OG      0.163000
     45 H5          3.0380   -1.5480    1.4730 ha        1 0OG      0.144000
     46 H6          6.3520    1.1070    2.0520 ha        1 0OG      0.154000
     47 H7          4.9240    3.0620    1.3240 ha        1 0OG      0.137000
     48 H8         -6.9270   -0.5250    2.9070 ha        1 0OG      0.158000
     49 H9         -5.3490   -0.5190    5.1180 ha        1 0OG      0.157000
     50 H10        -2.1870   -0.5440    4.8980 hc        1 0OG      0.066033
     51 H11        -1.7160    0.7180    3.6750 hc        1 0OG      0.066033
     52 H12        -2.6230    1.1990    5.1780 hc        1 0OG      0.066033
     53 H13        -7.6980    0.1550   -3.0980 hc        1 0OG      0.045200
     54 H14        -8.5260    1.2030   -1.8750 hc        1 0OG      0.045200
     55 H15        -7.1260    3.1680   -2.6330 hc        1 0OG      0.037033
     56 H16        -6.3340    2.1140   -3.8730 hc        1 0OG      0.037033
     57 H17        -8.1120    2.4580   -3.9790 hc        1 0OG      0.037033
     58 H18         2.1440   -2.5020    0.0370 h1        1 0OG      0.064700
     59 H19         1.0450   -2.6300   -1.4110 h1        1 0OG      0.064700
     60 H21         4.4470   -2.1750   -0.3470 h4        1 0OG      0.248000
     61 H22         3.4990   -0.4000   -4.9300 ha        1 0OG      0.150000
     62 H23         1.5680   -0.8540   -3.3630 ha        1 0OG      0.130000
     63 H24         1.6370    2.7390    0.2510 ho        1 0OG      0.435000
     64 H20         6.1520   -1.7240   -1.9010 hn        1 0OG      0.348500
@<TRIPOS>BOND
     1    1    2 1   
     2    1    5 2   
     3    1   27 1   
     4    2    3 2   
     5    2   41 1   
     6    3    4 1   
     7    3   21 1   
     8    4    5 1   
     9    4    6 1   
    10    6    7 ar  
    11    6   11 ar  
    12    7    8 ar  
    13    7   42 1   
    14    8    9 ar  
    15    8   43 1   
    16    9   10 ar  
    17    9   12 1   
    18   10   11 ar  
    19   10   14 1   
    20   11   44 1   
    21   12   13 1   
    22   12   29 1   
    23   13   14 2   
    24   13   15 1   
    25   15   16 ar  
    26   15   20 ar  
    27   16   17 ar  
    28   16   45 1   
    29   17   18 ar  
    30   17   38 1   
    31   18   19 ar  
    32   18   46 1   
    33   19   20 ar  
    34   19   47 1   
    35   20   37 1   
    36   21   22 2   
    37   21   25 1   
    38   22   23 1   
    39   22   48 1   
    40   23   24 2   
    41   23   49 1   
    42   24   25 1   
    43   24   26 1   
    44   26   50 1   
    45   26   51 1   
    46   26   52 1   
    47   27   28 1   
    48   27   53 1   
    49   27   54 1   
    50   28   55 1   
    51   28   56 1   
    52   28   57 1   
    53   29   30 1   
    54   29   58 1   
    55   29   59 1   
    56   30   31 2   
    57   30   35 1   
    58   31   32 1   
    59   31   60 1   
    60   32   33 1   
    61   32   64 1   
    62   33   34 1   
    63   33   36 2   
    64   34   35 2   
    65   34   61 1   
    66   35   62 1   
    67   37   63 1   
    68   38   39 1   
    69   38   40 1   
@<TRIPOS>SUBSTRUCTURE
     1 0OG         1 TEMP              0 ****  ****    0 ROOT
