@<TRIPOS>MOLECULE
0OJ
   45    48     1     0     0
SMALL
bcc


@<TRIPOS>ATOM
      1 OAF         0.0000    0.0000    0.0000 o         1 0OJ     -0.626833
      2 PBC         1.6100    0.0000    0.0000 p5        1 0OJ      0.834900
      3 OAG         2.1470    0.0000    1.5180 o         1 0OJ     -0.626833
      4 OAB         2.1030   -1.2080   -0.6990 o         1 0OJ     -0.626833
      5 OAS         2.1460    1.3160   -0.7590 os        1 0OJ     -0.484800
      6 PBE         3.5450    1.7170   -1.4470 p5        1 0OJ      0.996800
      7 OAI         4.0250    0.5930   -2.2790 o         1 0OJ     -0.670500
      8 OAD         4.6310    2.0440   -0.3050 o         1 0OJ     -0.670500
      9 OAT         3.3320    3.0180   -2.3730 os        1 0OJ     -0.489800
     10 PBD         4.1530    3.6650   -3.5980 p5        1 0OJ      0.944800
     11 OAH         4.5470    2.5990   -4.5460 o         1 0OJ     -0.700500
     12 OAC         5.4730    4.3940   -3.0330 o         1 0OJ     -0.700500
     13 OAR         3.2270    4.7420   -4.3550 os        1 0OJ     -0.493200
     14 CAL         3.6330    5.4150   -5.5490 c3        1 0OJ      0.315400
     15 CAY         2.5230    6.3650   -6.0020 c3        1 0OJ     -0.044700
     16 CAZ         2.9840    7.1950   -7.2170 cx        1 0OJ     -0.082700
     17 CAN         2.3430    8.5650   -7.4430 cx        1 0OJ     -0.071400
     18 CAX         1.3050    5.5640   -6.5270 c3        1 0OJ      0.202100
     19 OAE         0.4450    5.1840   -5.4520 oh        1 0OJ     -0.550800
     20 CAM         0.6020    6.5840   -7.4580 c3        1 0OJ     -0.031400
     21 CBB         1.7630    7.3330   -8.1430 cx        1 0OJ     -0.184300
     22 N9          1.8900    7.1970   -9.5970 na        1 0OJ      0.280000
     23 C8          3.0380    6.9430  -10.2860 cc        1 0OJ      0.081700
     24 N7          2.7880    6.8860  -11.5620 nd        1 0OJ     -0.544100
     25 C5          1.4670    7.1000  -11.7720 ca        1 0OJ     -0.244200
     26 C4          0.8740    7.2960  -10.5130 ca        1 0OJ      0.282800
     27 N3         -0.4330    7.5280  -10.4440 nb        1 0OJ     -0.740000
     28 C2         -1.1650    7.5740  -11.5370 ca        1 0OJ      0.485900
     29 N1         -0.6530    7.3950  -12.7410 nb        1 0OJ     -0.705000
     30 C6          0.6430    7.1540  -12.9090 ca        1 0OJ      0.395200
     31 N6          1.1710    6.9680  -14.1740 nv        1 0OJ     -0.562500
     32 H5          3.8230    4.6850   -6.3270 h1        1 0OJ     -0.029800
     33 H6          4.5360    5.9800   -5.3560 h1        1 0OJ     -0.029800
     34 H7          2.2220    7.0190   -5.1920 hc        1 0OJ      0.040700
     35 H8          3.8880    6.9370   -7.7550 hc        1 0OJ      0.063700
     36 H9          1.7590    8.9490   -6.6160 hc        1 0OJ      0.036200
     37 H10         2.9010    9.2430   -8.0770 hc        1 0OJ      0.036200
     38 H11         1.6330    4.6980   -7.0900 h1        1 0OJ      0.020700
     39 H12        -0.0900    4.4560   -5.7200 ho        1 0OJ      0.375000
     40 H13        -0.0010    6.0680   -8.1950 hc        1 0OJ      0.025700
     41 H14        -0.0010    7.2710   -6.8780 hc        1 0OJ      0.025700
     42 H15         4.0150    6.8080   -9.8370 h5        1 0OJ      0.022800
     43 H16        -2.2270    7.7680  -11.4460 h5        1 0OJ     -0.039900
     44 H17         0.5900    7.0890  -14.9810 hn        1 0OJ      0.242800
     45 H18         2.1380    6.7350  -14.2840 hn        1 0OJ      0.242800
@<TRIPOS>BOND
     1    1    2 1   
     2    2    3 1   
     3    2    4 1   
     4    2    5 1   
     5    5    6 1   
     6    6    7 1   
     7    6    8 1   
     8    6    9 1   
     9    9   10 1   
    10   10   11 1   
    11   10   12 1   
    12   10   13 1   
    13   13   14 1   
    14   14   15 1   
    15   14   32 1   
    16   14   33 1   
    17   15   16 1   
    18   15   18 1   
    19   15   34 1   
    20   16   17 1   
    21   16   21 1   
    22   16   35 1   
    23   17   21 1   
    24   17   36 1   
    25   17   37 1   
    26   18   19 1   
    27   18   20 1   
    28   18   38 1   
    29   19   39 1   
    30   20   21 1   
    31   20   40 1   
    32   20   41 1   
    33   21   22 1   
    34   22   23 1   
    35   22   26 1   
    36   23   24 2   
    37   23   42 1   
    38   24   25 1   
    39   25   26 ar  
    40   25   30 ar  
    41   26   27 ar  
    42   27   28 ar  
    43   28   29 ar  
    44   28   43 1   
    45   29   30 ar  
    46   30   31 1   
    47   31   44 1   
    48   31   45 1   
@<TRIPOS>SUBSTRUCTURE
     1 0OJ         1 TEMP              0 ****  ****    0 ROOT
