@<TRIPOS>MOLECULE
0OK
   27    29     1     0     0
SMALL
bcc


@<TRIPOS>ATOM
      1 CAG        -2.5530   -0.8190   -0.8400 ca        1 0OK     -0.130000
      2 CAC        -3.9390   -0.9500   -0.8130 ca        1 0OK     -0.118500
      3 CAB        -4.7150   -0.1370    0.0100 ca        1 0OK     -0.130000
      4 CAD        -4.0980    0.8110    0.8240 ca        1 0OK     -0.118500
      5 CAH        -2.7130    0.9540    0.8200 ca        1 0OK     -0.130000
      6 CAM        -1.9230    0.1430   -0.0240 ca        1 0OK      0.035600
      7 NAQ        -0.5090    0.3070   -0.0480 n         1 0OK     -0.316500
      8 CAK         0.0250    1.6040   -0.0430 cc        1 0OK      0.493800
      9 NAL         1.2920    1.9280   -0.0240 nd        1 0OK     -0.613100
     10 CAO         2.2340    0.8880   -0.0040 ca        1 0OK      0.174400
     11 CAI         3.6190    1.1750    0.0310 ca        1 0OK     -0.120000
     12 CAE         4.5380    0.1370    0.0480 ca        1 0OK     -0.095000
     13 CAF         4.1190   -1.1990    0.0310 ca        1 0OK     -0.151000
     14 CAJ         2.7650   -1.5030   -0.0030 ca        1 0OK     -0.061000
     15 CAP         1.8190   -0.4700   -0.0210 ca        1 0OK     -0.188600
     16 CAN         0.3780   -0.8010   -0.0560 c         1 0OK      0.713100
     17 OAA        -0.0550   -1.9650   -0.0930 o         1 0OK     -0.609500
     18 H1         -1.9510   -1.4850   -1.4790 ha        1 0OK      0.148500
     19 H2         -4.4200   -1.7080   -1.4510 ha        1 0OK      0.138000
     20 H3         -5.8100   -0.2460    0.0220 ha        1 0OK      0.137000
     21 H4         -4.7050    1.4500    1.4830 ha        1 0OK      0.138000
     22 H5         -2.2460    1.6960    1.4860 ha        1 0OK      0.148500
     23 H6         -0.7190    2.4310   -0.0670 h5        1 0OK      0.060800
     24 H7          3.9590    2.2220    0.0440 ha        1 0OK      0.154000
     25 H8          5.6150    0.3660    0.0750 ha        1 0OK      0.138000
     26 H9          4.8650   -2.0070    0.0460 ha        1 0OK      0.140000
     27 H10         2.4150   -2.5490   -0.0160 ha        1 0OK      0.159000
@<TRIPOS>BOND
     1    1    2 ar  
     2    1    6 ar  
     3    1   18 1   
     4    2    3 ar  
     5    2   19 1   
     6    3    4 ar  
     7    3   20 1   
     8    4    5 ar  
     9    4   21 1   
    10    5    6 ar  
    11    5   22 1   
    12    6    7 1   
    13    7    8 1   
    14    7   16 1   
    15    8    9 2   
    16    8   23 1   
    17    9   10 1   
    18   10   11 ar  
    19   10   15 ar  
    20   11   12 ar  
    21   11   24 1   
    22   12   13 ar  
    23   12   25 1   
    24   13   14 ar  
    25   13   26 1   
    26   14   15 ar  
    27   14   27 1   
    28   15   16 1   
    29   16   17 2   
@<TRIPOS>SUBSTRUCTURE
     1 0OK         1 TEMP              0 ****  ****    0 ROOT
