@<TRIPOS>MOLECULE
0OK
   27    22     1     0     0
SMALL
bcc


@<TRIPOS>ATOM
      1 CAG         2.5110   -1.2160   -0.3520 c1        1 0OK     -0.149000
      2 CAC         3.8970   -1.1740   -0.3730 c1        1 0OK     -0.115000
      3 CAB         4.5730   -0.2100    0.3570 c1        1 0OK     -0.115000
      4 CAD         3.8640    0.7130    1.1100 c1        1 0OK     -0.115000
      5 CAH         2.4780    0.6720    1.1310 c1        1 0OK     -0.115000
      6 CAM         1.8020   -0.2920    0.4000 c1        1 0OK      0.043000
      7 NAQ         0.3830   -0.3120    0.3940 n3        1 0OK     -0.250000
      8 CAK        -0.3250   -1.1070    1.3480 c2        1 0OK      0.070000
      9 NAL        -1.7700   -1.1290    1.3410 n1        1 0OK     -0.186000
     10 CAO        -2.5090   -0.3410    0.3620 c1        1 0OK      0.035000
     11 CAI        -3.9150   -0.3620    0.3580 c2        1 0OK     -0.120000
     12 CAE        -4.6180    0.3900   -0.5720 c1        1 0OK     -0.095000
     13 CAF        -3.9320    1.1630   -1.5010 c1        1 0OK     -0.115000
     14 CAJ        -2.5440    1.1840   -1.4980 c1        1 0OK     -0.115000
     15 CAP        -1.8320    0.4230   -0.5560 c1        1 0OK     -0.168000
     16 CAN        -0.3250    0.4460   -0.5490 c1        1 0OK      0.350000
     17 OAA         0.2770    1.0820   -1.3920 o         1 0OK     -0.334000
     18 H1          2.0350   -1.8950   -0.8670 ha        1 0OK      0.137000
     19 H2          4.3960   -1.8250   -0.9030 ha        1 0OK      0.145333
     20 H3          5.5480   -0.1810    0.3420 ha        1 0OK      0.145333
     21 H4          4.3400    1.3930    1.6240 ha        1 0OK      0.145333
     22 H5          1.9790    1.3220    1.6610 ha        1 0OK      0.145333
     23 H6          0.1680   -1.6350    2.0040 h5        1 0OK      0.190000
     24 H7         -4.3970   -0.9050    1.0110 ha        1 0OK      0.154000
     25 H8         -5.5940    0.3750   -0.5750 ha        1 0OK      0.138000
     26 H9         -4.4270    1.6920   -2.1560 ha        1 0OK      0.145333
     27 H10        -2.0630    1.7280   -2.1510 ha        1 0OK      0.145333
@<TRIPOS>BOND
     1    1    6 1   
     2    1   18 1   
     3    2    3 1   
     4    2   19 1   
     5    3   20 1   
     6    4    5 1   
     7    4   21 1   
     8    5   22 1   
     9    6    7 1   
    10    7    8 1   
    11    7   16 1   
    12    8    9 1   
    13    8   23 1   
    14   10   11 1   
    15   10   15 1   
    16   11   12 1   
    17   11   24 1   
    18   12   25 1   
    19   13   14 1   
    20   13   26 1   
    21   14   27 1   
    22   16   17 1   
@<TRIPOS>SUBSTRUCTURE
     1 0OK         1 TEMP              0 ****  ****    0 ROOT
