@<TRIPOS>MOLECULE
0OK
   27    29     1     0     0
SMALL
bcc


@<TRIPOS>ATOM
      1 CAG         0.0760    0.3290    0.0320 ca        1 0OK     -0.130000
      2 CAC         1.4670    0.2820    0.0540 ca        1 0OK     -0.118500
      3 CAB         2.1490   -0.0620    1.2200 ca        1 0OK     -0.130000
      4 CAD         1.4310   -0.3510    2.3800 ca        1 0OK     -0.118500
      5 CAH         0.0400   -0.3020    2.3820 ca        1 0OK     -0.130000
      6 CAM        -0.6560    0.0310    1.2000 ca        1 0OK      0.035600
      7 NAQ        -2.0790    0.0560    1.1940 n         1 0OK     -0.316500
      8 CAK        -2.7790   -0.9640    1.8560 cc        1 0OK      0.493800
      9 NAL        -4.0770   -1.0700    1.9790 nd        1 0OK     -0.613100
     10 CAO        -4.8730   -0.0690    1.4010 ca        1 0OK      0.174400
     11 CAI        -6.2830   -0.1190    1.5120 ca        1 0OK     -0.120000
     12 CAE        -7.0570    0.8750    0.9340 ca        1 0OK     -0.095000
     13 CAF        -6.4660    1.9370    0.2370 ca        1 0OK     -0.151000
     14 CAJ        -5.0850    2.0060    0.1160 ca        1 0OK     -0.061000
     15 CAP        -4.2840    1.0110    0.6920 ca        1 0OK     -0.188600
     16 CAN        -2.8130    1.0920    0.5600 c         1 0OK      0.713100
     17 OAA        -2.2320    1.9960   -0.0630 o         1 0OK     -0.609500
     18 H1         -0.4480    0.6260   -0.8910 ha        1 0OK      0.148500
     19 H2          2.0290    0.5220   -0.8620 ha        1 0OK      0.138000
     20 H3          3.2480   -0.1000    1.2270 ha        1 0OK      0.137000
     21 H4          1.9640   -0.6140    3.3060 ha        1 0OK      0.138000
     22 H5         -0.5050   -0.5150    3.3140 ha        1 0OK      0.148500
     23 H6         -2.1510   -1.7640    2.3080 h5        1 0OK      0.060800
     24 H7         -6.7570   -0.9500    2.0580 ha        1 0OK      0.154000
     25 H8         -8.1540    0.8310    1.0240 ha        1 0OK      0.138000
     26 H9         -7.0990    2.7150   -0.2140 ha        1 0OK      0.140000
     27 H10        -4.6010    2.8330   -0.4290 ha        1 0OK      0.159000
@<TRIPOS>BOND
     1    1    2 ar  
     2    1    6 ar  
     3    1   18 1   
     4    2    3 ar  
     5    2   19 1   
     6    3    4 ar  
     7    3   20 1   
     8    4    5 ar  
     9    4   21 1   
    10    5    6 ar  
    11    5   22 1   
    12    6    7 1   
    13    7    8 1   
    14    7   16 1   
    15    8    9 2   
    16    8   23 1   
    17    9   10 1   
    18   10   11 ar  
    19   10   15 ar  
    20   11   12 ar  
    21   11   24 1   
    22   12   13 ar  
    23   12   25 1   
    24   13   14 ar  
    25   13   26 1   
    26   14   15 ar  
    27   14   27 1   
    28   15   16 1   
    29   16   17 2   
@<TRIPOS>SUBSTRUCTURE
     1 0OK         1 TEMP              0 ****  ****    0 ROOT
