@<TRIPOS>MOLECULE
0OK
   27    29     1     0     0
SMALL
bcc


@<TRIPOS>ATOM
      1 CAG         0.0800    0.3470    0.0410 ca        1 0OK     -0.130000
      2 CAC         1.4710    0.3040    0.0680 ca        1 0OK     -0.118500
      3 CAB         2.1500   -0.0510    1.2320 ca        1 0OK     -0.130000
      4 CAD         1.4280   -0.3540    2.3860 ca        1 0OK     -0.118500
      5 CAH         0.0370   -0.3090    2.3840 ca        1 0OK     -0.130000
      6 CAM        -0.6560    0.0340    1.2020 ca        1 0OK      0.035600
      7 NAQ        -2.0790    0.0560    1.1920 n         1 0OK     -0.316500
      8 CAK        -2.7780   -0.9740    1.8390 cc        1 0OK      0.493800
      9 NAL        -4.0760   -1.0840    1.9570 nd        1 0OK     -0.613100
     10 CAO        -4.8730   -0.0790    1.3870 ca        1 0OK      0.174400
     11 CAI        -6.2830   -0.1350    1.4920 ca        1 0OK     -0.120000
     12 CAE        -7.0580    0.8630    0.9220 ca        1 0OK     -0.095000
     13 CAF        -6.4670    1.9340    0.2390 ca        1 0OK     -0.151000
     14 CAJ        -5.0860    2.0090    0.1240 ca        1 0OK     -0.061000
     15 CAP        -4.2840    1.0100    0.6920 ca        1 0OK     -0.188600
     16 CAN        -2.8130    1.0960    0.5660 c         1 0OK      0.713100
     17 OAA        -2.2320    2.0090   -0.0450 o         1 0OK     -0.609500
     18 H1         -0.4420    0.6520   -0.8810 ha        1 0OK      0.148500
     19 H2          2.0350    0.5550   -0.8430 ha        1 0OK      0.138000
     20 H3          3.2490   -0.0860    1.2440 ha        1 0OK      0.137000
     21 H4          1.9580   -0.6260    3.3110 ha        1 0OK      0.138000
     22 H5         -0.5110   -0.5330    3.3110 ha        1 0OK      0.148500
     23 H6         -2.1500   -1.7770    2.2860 h5        1 0OK      0.060800
     24 H7         -6.7570   -0.9730    2.0270 ha        1 0OK      0.154000
     25 H8         -8.1550    0.8150    1.0080 ha        1 0OK      0.138000
     26 H9         -7.1010    2.7160   -0.2050 ha        1 0OK      0.140000
     27 H10        -4.6030    2.8440   -0.4090 ha        1 0OK      0.159000
@<TRIPOS>BOND
     1    1    2 ar  
     2    1    6 ar  
     3    1   18 1   
     4    2    3 ar  
     5    2   19 1   
     6    3    4 ar  
     7    3   20 1   
     8    4    5 ar  
     9    4   21 1   
    10    5    6 ar  
    11    5   22 1   
    12    6    7 1   
    13    7    8 1   
    14    7   16 1   
    15    8    9 2   
    16    8   23 1   
    17    9   10 1   
    18   10   11 ar  
    19   10   15 ar  
    20   11   12 ar  
    21   11   24 1   
    22   12   13 ar  
    23   12   25 1   
    24   13   14 ar  
    25   13   26 1   
    26   14   15 ar  
    27   14   27 1   
    28   15   16 1   
    29   16   17 2   
@<TRIPOS>SUBSTRUCTURE
     1 0OK         1 TEMP              0 ****  ****    0 ROOT
