@<TRIPOS>MOLECULE
0OL
   29    30     1     0     0
SMALL
bcc


@<TRIPOS>ATOM
      1 CAJ        -0.1280    0.1090    0.2230 c3        1 0OL      0.078500
      2 CAH         1.3770    0.1100   -0.0460 c3        1 0OL     -0.103400
      3 CAG         2.1620   -0.0760    1.2360 c3        1 0OL     -0.078400
      4 CAI         1.6900   -1.3020    1.9880 c3        1 0OL     -0.103400
      5 CAK         0.1750   -1.2650    2.2080 c3        1 0OL      0.078500
      6 NAN        -0.5920   -1.0220    1.0060 n         1 0OL     -0.450800
      7 CAL        -1.3030   -2.0420    0.3700 c         1 0OL      0.662700
      8 OAA        -1.6390   -1.9320   -0.8270 o         1 0OL     -0.594100
      9 CAM        -1.7340   -3.2290    1.1650 ca        1 0OL     -0.132600
     10 CAE        -2.4900   -3.0800    2.3320 ca        1 0OL     -0.095000
     11 CAC        -2.9320   -4.2100    3.0200 ca        1 0OL     -0.137000
     12 CAB        -2.6180   -5.4840    2.5480 ca        1 0OL     -0.114000
     13 CAD        -1.8680   -5.6320    1.3810 ca        1 0OL     -0.137000
     14 CAF        -1.4310   -4.5070    0.6830 ca        1 0OL     -0.095000
     15 H1         -0.3930    1.0380    0.8050 h1        1 0OL      0.059950
     16 H2         -0.6800    0.1360   -0.7590 h1        1 0OL      0.059950
     17 H3          1.6490    1.0860   -0.5240 hc        1 0OL      0.050200
     18 H4          1.6340   -0.7060   -0.7700 hc        1 0OL      0.050200
     19 H5          3.2530   -0.1720    1.0020 hc        1 0OL      0.042200
     20 H6          2.0360    0.8310    1.8850 hc        1 0OL      0.042200
     21 H7          1.9700   -2.2260    1.4180 hc        1 0OL      0.050200
     22 H8          2.1900   -1.3550    2.9890 hc        1 0OL      0.050200
     23 H9         -0.1470   -2.2310    2.6870 h1        1 0OL      0.059950
     24 H10        -0.0610   -0.4260    2.9250 h1        1 0OL      0.059950
     25 H11        -2.7410   -2.0740    2.7010 ha        1 0OL      0.145000
     26 H12        -3.5310   -4.0930    3.9350 ha        1 0OL      0.136500
     27 H13        -2.9660   -6.3740    3.0940 ha        1 0OL      0.134000
     28 H14        -1.6270   -6.6370    1.0040 ha        1 0OL      0.136500
     29 H15        -0.8600   -4.6160   -0.2520 ha        1 0OL      0.145000
@<TRIPOS>BOND
     1    1    2 1   
     2    1    6 1   
     3    1   15 1   
     4    1   16 1   
     5    2    3 1   
     6    2   17 1   
     7    2   18 1   
     8    3    4 1   
     9    3   19 1   
    10    3   20 1   
    11    4    5 1   
    12    4   21 1   
    13    4   22 1   
    14    5    6 1   
    15    5   23 1   
    16    5   24 1   
    17    6    7 1   
    18    7    8 2   
    19    7    9 1   
    20    9   10 ar  
    21    9   14 ar  
    22   10   11 ar  
    23   10   25 1   
    24   11   12 ar  
    25   11   26 1   
    26   12   13 ar  
    27   12   27 1   
    28   13   14 ar  
    29   13   28 1   
    30   14   29 1   
@<TRIPOS>SUBSTRUCTURE
     1 0OL         1 TEMP              0 ****  ****    0 ROOT
