@<TRIPOS>MOLECULE
0OL
   29    30     1     0     0
SMALL
bcc


@<TRIPOS>ATOM
      1 CAJ        -0.1150    0.1070    0.2220 c3        1 0OL      0.078000
      2 CAH         1.3890    0.0950   -0.0550 c3        1 0OL     -0.103400
      3 CAG         2.1790   -0.0990    1.2230 c3        1 0OL     -0.078400
      4 CAI         1.7000   -1.3210    1.9770 c3        1 0OL     -0.103400
      5 CAK         0.1870   -1.2700    2.2050 c3        1 0OL      0.078000
      6 NAN        -0.5850   -1.0200    1.0070 n         1 0OL     -0.450800
      7 CAL        -1.3080   -2.0340    0.3740 c         1 0OL      0.662700
      8 OAA        -1.6490   -1.9210   -0.8210 o         1 0OL     -0.594100
      9 CAM        -1.7450   -3.2170    1.1720 ca        1 0OL     -0.132600
     10 CAE        -2.4950   -3.0620    2.3420 ca        1 0OL     -0.095000
     11 CAC        -2.9420   -4.1880    3.0320 ca        1 0OL     -0.137000
     12 CAB        -2.6400   -5.4650    2.5600 ca        1 0OL     -0.114000
     13 CAD        -1.8970   -5.6190    1.3890 ca        1 0OL     -0.137000
     14 CAF        -1.4540   -4.4970    0.6900 ca        1 0OL     -0.095000
     15 H1         -0.3680    1.0380    0.8050 h1        1 0OL      0.059950
     16 H2         -0.6720    0.1390   -0.7570 h1        1 0OL      0.059950
     17 H3          1.6350   -0.7240   -0.7800 hc        1 0OL      0.050200
     18 H4          1.6680    1.0680   -0.5340 hc        1 0OL      0.050200
     19 H5          2.0650    0.8080    1.8730 hc        1 0OL      0.042200
     20 H6          3.2680   -0.2060    0.9830 hc        1 0OL      0.042200
     21 H7          1.9680   -2.2470    1.4060 hc        1 0OL      0.050200
     22 H8          2.2050   -1.3790    2.9750 hc        1 0OL      0.050200
     23 H9         -0.0380   -0.4280    2.9230 h1        1 0OL      0.059950
     24 H10        -0.1420   -2.2330    2.6860 h1        1 0OL      0.059950
     25 H11        -2.7360   -2.0540    2.7120 ha        1 0OL      0.145000
     26 H12        -3.5370   -4.0660    3.9500 ha        1 0OL      0.136500
     27 H13        -2.9940   -6.3510    3.1070 ha        1 0OL      0.134000
     28 H14        -1.6650   -6.6260    1.0120 ha        1 0OL      0.136500
     29 H15        -0.8870   -4.6110   -0.2480 ha        1 0OL      0.145000
@<TRIPOS>BOND
     1    1    2 1   
     2    1    6 1   
     3    1   15 1   
     4    1   16 1   
     5    2    3 1   
     6    2   17 1   
     7    2   18 1   
     8    3    4 1   
     9    3   19 1   
    10    3   20 1   
    11    4    5 1   
    12    4   21 1   
    13    4   22 1   
    14    5    6 1   
    15    5   23 1   
    16    5   24 1   
    17    6    7 1   
    18    7    8 2   
    19    7    9 1   
    20    9   10 ar  
    21    9   14 ar  
    22   10   11 ar  
    23   10   25 1   
    24   11   12 ar  
    25   11   26 1   
    26   12   13 ar  
    27   12   27 1   
    28   13   14 ar  
    29   13   28 1   
    30   14   29 1   
@<TRIPOS>SUBSTRUCTURE
     1 0OL         1 TEMP              0 ****  ****    0 ROOT
