@<TRIPOS>MOLECULE
0OL
   29    26     1     0     0
SMALL
bcc


@<TRIPOS>ATOM
      1 CAJ         0.5980    1.9760   -1.4730 c3        1 0OL      0.021300
      2 CAH         2.1120    2.0250   -1.5110 c3        1 0OL     -0.103400
      3 CAG         2.7070    2.0170   -0.1540 c3        1 0OL     -0.078400
      4 CAI         2.1840    0.8980    0.6800 c3        1 0OL     -0.103400
      5 CAK         0.6650    0.8570    0.7010 c3        1 0OL      0.021300
      6 NAN         0.0970    0.8820   -0.6340 n3        1 0OL     -0.270400
      7 CAL        -0.8810   -0.0890   -1.1000 c1        1 0OL      0.569500
      8 OAA        -1.3160   -0.0130   -2.2260 o         1 0OL     -0.588500
      9 CAM        -1.4540   -1.1350   -0.1250 c1        1 0OL     -0.112000
     10 CAE        -2.4980   -0.7940    0.7220 c1        1 0OL     -0.043500
     11 CAC        -3.0870   -1.7680    1.5310 c1        1 0OL     -0.061750
     12 CAB        -2.6290   -3.0780    1.4880 c1        1 0OL     -0.061750
     13 CAD        -1.5820   -3.4220    0.6400 c1        1 0OL     -0.061750
     14 CAF        -0.9930   -2.4520   -0.1680 c1        1 0OL     -0.061750
     15 H1          0.2590    1.8550   -2.3920 h1        1 0OL      0.059950
     16 H2          0.2610    2.8310   -1.1180 h1        1 0OL      0.059950
     17 H3          2.4420    1.2480   -2.0050 hc        1 0OL      0.050200
     18 H4          2.3940    2.8450   -1.9790 hc        1 0OL      0.050200
     19 H5          3.6810    1.9270   -0.2340 hc        1 0OL      0.042200
     20 H6          2.5000    2.8660    0.2890 hc        1 0OL      0.042200
     21 H7          2.5150    1.0080    1.6060 hc        1 0OL      0.050200
     22 H8          2.5210    0.0500    0.3200 hc        1 0OL      0.050200
     23 H9          0.3740    0.0290    1.1580 h1        1 0OL      0.059950
     24 H10         0.3320    1.6340    1.2050 h1        1 0OL      0.059950
     25 H11        -2.8260    0.1390    0.7530 ha        1 0OL      0.085500
     26 H12        -3.8190   -1.5290    2.1250 ha        1 0OL      0.081000
     27 H13        -3.0460   -3.7660    2.0600 ha        1 0OL      0.081000
     28 H14        -1.2580   -4.3480    0.6100 ha        1 0OL      0.081000
     29 H15        -0.2530   -2.6950   -0.7680 ha        1 0OL      0.081000
@<TRIPOS>BOND
     1    1    2 1   
     2    1    6 1   
     3    1   15 1   
     4    1   16 1   
     5    2    3 1   
     6    2   17 1   
     7    2   18 1   
     8    3    4 1   
     9    3   19 1   
    10    3   20 1   
    11    4    5 1   
    12    4   21 1   
    13    4   22 1   
    14    5    6 1   
    15    5   23 1   
    16    5   24 1   
    17    6    7 2   
    18    7    8 2   
    19    9   10 3   
    20   10   25 1   
    21   11   12 3   
    22   11   26 1   
    23   12   27 1   
    24   13   14 3   
    25   13   28 1   
    26   14   29 1   
@<TRIPOS>SUBSTRUCTURE
     1 0OL         1 TEMP              0 ****  ****    0 ROOT
