@<TRIPOS>MOLECULE
0OL
   29    30     1     0     0
SMALL
bcc


@<TRIPOS>ATOM
      1 CAJ        -0.0950    0.0930    0.2000 c3        1 0OL      0.078000
      2 CAH         1.4160    0.0860   -0.0340 c3        1 0OL     -0.103400
      3 CAG         2.1710   -0.0860    1.2670 c3        1 0OL     -0.078400
      4 CAI         1.6780   -1.3000    2.0240 c3        1 0OL     -0.103400
      5 CAK         0.1590   -1.2560    2.2090 c3        1 0OL      0.078000
      6 NAN        -0.5810   -1.0260    0.9870 n         1 0OL     -0.450800
      7 CAL        -1.2800   -2.0520    0.3480 c         1 0OL      0.662700
      8 OAA        -1.5880   -1.9570   -0.8570 o         1 0OL     -0.594100
      9 CAM        -1.7330   -3.2270    1.1500 ca        1 0OL     -0.132600
     10 CAE        -2.5160   -3.0600    2.2960 ca        1 0OL     -0.095000
     11 CAC        -2.9770   -4.1790    2.9890 ca        1 0OL     -0.137000
     12 CAB        -2.6550   -5.4610    2.5420 ca        1 0OL     -0.114000
     13 CAD        -1.8790   -5.6270    1.3950 ca        1 0OL     -0.137000
     14 CAF        -1.4220   -4.5120    0.6930 ca        1 0OL     -0.095000
     15 H1         -0.3700    1.0310    0.7630 h1        1 0OL      0.059950
     16 H2         -0.6250    0.1080   -0.7940 h1        1 0OL      0.059950
     17 H3          1.6870   -0.7410   -0.7410 hc        1 0OL      0.050200
     18 H4          1.7030    1.0550   -0.5190 hc        1 0OL      0.050200
     19 H5          2.0340    0.8300    1.9020 hc        1 0OL      0.042200
     20 H6          3.2670   -0.1890    1.0590 hc        1 0OL      0.042200
     21 H7          1.9670   -2.2320    1.4730 hc        1 0OL      0.050200
     22 H8          2.1550   -1.3420    3.0370 hc        1 0OL      0.050200
     23 H9         -0.0910   -0.4060    2.9090 h1        1 0OL      0.059950
     24 H10        -0.1780   -2.2130    2.6940 h1        1 0OL      0.059950
     25 H11        -2.7730   -2.0490    2.6460 ha        1 0OL      0.145000
     26 H12        -3.5970   -4.0490    3.8880 ha        1 0OL      0.136500
     27 H13        -3.0190   -6.3420    3.0920 ha        1 0OL      0.134000
     28 H14        -1.6310   -6.6370    1.0380 ha        1 0OL      0.136500
     29 H15        -0.8290   -4.6360   -0.2270 ha        1 0OL      0.145000
@<TRIPOS>BOND
     1    1    2 1   
     2    1    6 1   
     3    1   15 1   
     4    1   16 1   
     5    2    3 1   
     6    2   17 1   
     7    2   18 1   
     8    3    4 1   
     9    3   19 1   
    10    3   20 1   
    11    4    5 1   
    12    4   21 1   
    13    4   22 1   
    14    5    6 1   
    15    5   23 1   
    16    5   24 1   
    17    6    7 1   
    18    7    8 2   
    19    7    9 1   
    20    9   10 ar  
    21    9   14 ar  
    22   10   11 ar  
    23   10   25 1   
    24   11   12 ar  
    25   11   26 1   
    26   12   13 ar  
    27   12   27 1   
    28   13   14 ar  
    29   13   28 1   
    30   14   29 1   
@<TRIPOS>SUBSTRUCTURE
     1 0OL         1 TEMP              0 ****  ****    0 ROOT
