@<TRIPOS>MOLECULE
0OL
   29    30     1     0     0
SMALL
bcc


@<TRIPOS>ATOM
      1 CAJ        -2.4710   -0.8180    0.6930 c3        1 0OL      0.078000
      2 CAH        -3.4120   -0.4350   -0.4510 c3        1 0OL     -0.103400
      3 CAG        -3.4740    1.0670   -0.6290 c3        1 0OL     -0.078400
      4 CAI        -2.0860    1.6530   -0.7760 c3        1 0OL     -0.103400
      5 CAK        -1.1790    1.2200    0.3800 c3        1 0OL      0.078000
      6 NAN        -1.1570   -0.2080    0.6120 n         1 0OL     -0.450800
      7 CAL        -0.0650   -0.9950    0.2380 c         1 0OL      0.662700
      8 OAA        -0.1910   -2.2280    0.0900 o         1 0OL     -0.594100
      9 CAM         1.2770   -0.3550    0.1040 ca        1 0OL     -0.132600
     10 CAE         1.8370    0.3740    1.1570 ca        1 0OL     -0.095000
     11 CAC         3.1180    0.9080    1.0260 ca        1 0OL     -0.137000
     12 CAB         3.8380    0.7180   -0.1540 ca        1 0OL     -0.114000
     13 CAD         3.2810   -0.0150   -1.2020 ca        1 0OL     -0.137000
     14 CAF         2.0030   -0.5580   -1.0740 ca        1 0OL     -0.095000
     15 H1         -2.9280   -0.4780    1.6670 h1        1 0OL      0.059950
     16 H2         -2.3620   -1.9390    0.7250 h1        1 0OL      0.059950
     17 H3         -3.0670   -0.9170   -1.4030 hc        1 0OL      0.050200
     18 H4         -4.4320   -0.8360   -0.2180 hc        1 0OL      0.050200
     19 H5         -4.0870    1.3160   -1.5340 hc        1 0OL      0.042200
     20 H6         -3.9810    1.5280    0.2590 hc        1 0OL      0.042200
     21 H7         -1.6390    1.3300   -1.7520 hc        1 0OL      0.050200
     22 H8         -2.1400    2.7720   -0.7800 hc        1 0OL      0.050200
     23 H9         -0.1380    1.6000    0.1890 h1        1 0OL      0.059950
     24 H10        -1.5560    1.7020    1.3290 h1        1 0OL      0.059950
     25 H11         1.2700    0.5200    2.0900 ha        1 0OL      0.145000
     26 H12         3.5620    1.4770    1.8560 ha        1 0OL      0.136500
     27 H13         4.8490    1.1410   -0.2560 ha        1 0OL      0.134000
     28 H14         3.8510   -0.1720   -2.1300 ha        1 0OL      0.136500
     29 H15         1.5670   -1.1580   -1.8870 ha        1 0OL      0.145000
@<TRIPOS>BOND
     1    1    2 1   
     2    1    6 1   
     3    1   15 1   
     4    1   16 1   
     5    2    3 1   
     6    2   17 1   
     7    2   18 1   
     8    3    4 1   
     9    3   19 1   
    10    3   20 1   
    11    4    5 1   
    12    4   21 1   
    13    4   22 1   
    14    5    6 1   
    15    5   23 1   
    16    5   24 1   
    17    6    7 1   
    18    7    8 2   
    19    7    9 1   
    20    9   10 ar  
    21    9   14 ar  
    22   10   11 ar  
    23   10   25 1   
    24   11   12 ar  
    25   11   26 1   
    26   12   13 ar  
    27   12   27 1   
    28   13   14 ar  
    29   13   28 1   
    30   14   29 1   
@<TRIPOS>SUBSTRUCTURE
     1 0OL         1 TEMP              0 ****  ****    0 ROOT
