@<TRIPOS>MOLECULE
0OM
   27    28     1     0     0
SMALL
bcc


@<TRIPOS>ATOM
      1 CAG        -0.0590    0.0550   -0.0120 ca        1 0OM     -0.105000
      2 CAC         1.3350    0.1060   -0.0090 ca        1 0OM     -0.134000
      3 CAB         2.0320    0.1300    1.1990 ca        1 0OM     -0.118000
      4 CAD         1.3340    0.1050    2.4060 ca        1 0OM     -0.134000
      5 CAH        -0.0590    0.0550    2.4080 ca        1 0OM     -0.105000
      6 CAO        -0.7610    0.0250    1.1980 ca        1 0OM     -0.099300
      7 CAK        -2.2500   -0.0640    1.1970 c3        1 0OM      0.187700
      8 OAM        -2.7490    1.2910    1.2050 os        1 0OM     -0.433900
      9 CAN        -4.1110    1.4290    1.2060 c         1 0OM      0.651700
     10 OAA        -4.8010    0.4050    1.2000 o         1 0OM     -0.545000
     11 CAP        -4.5700    2.8210    1.2130 ca        1 0OM     -0.255900
     12 CAI        -5.9460    3.0950    1.2150 ca        1 0OM     -0.036000
     13 CAE        -6.3610    4.4260    1.2220 ca        1 0OM     -0.263300
     14 CAF        -5.3810    5.4360    1.2270 ca        1 0OM      0.425200
     15 NAL        -4.0560    5.1900    1.2260 nb        1 0OM     -0.674000
     16 CAJ        -3.6620    3.9030    1.2190 ca        1 0OM      0.455200
     17 H1         -0.6090    0.0410   -0.9650 ha        1 0OM      0.136000
     18 H2          1.8840    0.1280   -0.9620 ha        1 0OM      0.134000
     19 H3          3.1310    0.1700    1.1990 ha        1 0OM      0.133000
     20 H4          1.8820    0.1270    3.3600 ha        1 0OM      0.134000
     21 H5         -0.6110    0.0400    3.3600 ha        1 0OM      0.136000
     22 H6         -2.6380   -0.5900    2.1090 h1        1 0OM      0.060700
     23 H7         -2.6380   -0.5800    0.2790 h1        1 0OM      0.060700
     24 H8         -6.6710    2.2650    1.2110 ha        1 0OM      0.163000
     25 H9         -7.4280    4.6850    1.2240 ha        1 0OM      0.151000
     26 H10        -5.6690    6.5040    1.2330 h4        1 0OM      0.027100
     27 H11        -2.5700    3.7190    1.2180 h4        1 0OM      0.048100
@<TRIPOS>BOND
     1    1    2 ar  
     2    1    6 ar  
     3    1   17 1   
     4    2    3 ar  
     5    2   18 1   
     6    3    4 ar  
     7    3   19 1   
     8    4    5 ar  
     9    4   20 1   
    10    5    6 ar  
    11    5   21 1   
    12    6    7 1   
    13    7    8 1   
    14    7   22 1   
    15    7   23 1   
    16    8    9 1   
    17    9   10 2   
    18    9   11 1   
    19   11   12 ar  
    20   11   16 ar  
    21   12   13 ar  
    22   12   24 1   
    23   13   14 ar  
    24   13   25 1   
    25   14   15 ar  
    26   14   26 1   
    27   15   16 ar  
    28   16   27 1   
@<TRIPOS>SUBSTRUCTURE
     1 0OM         1 TEMP              0 ****  ****    0 ROOT
