@<TRIPOS>MOLECULE
0OM
   27    28     1     0     0
SMALL
bcc


@<TRIPOS>ATOM
      1 CAG         0.0710   -0.7990    0.2110 ca        1 0OM     -0.114000
      2 CAC         1.4530   -0.8040    0.3930 ca        1 0OM     -0.130000
      3 CAB         2.0430    0.0760    1.3010 ca        1 0OM     -0.125000
      4 CAD         1.2490    0.9610    2.0280 ca        1 0OM     -0.130000
      5 CAH        -0.1350    0.9660    1.8530 ca        1 0OM     -0.114000
      6 CAO        -0.7290    0.0860    0.9450 ca        1 0OM     -0.095300
      7 CAK        -2.2070    0.0360    0.7540 c3        1 0OM      0.187700
      8 OAM        -2.7420    1.3340    1.0800 os        1 0OM     -0.437900
      9 CAN        -4.0920    1.4880    0.9070 c         1 0OM      0.654700
     10 OAA        -4.7410    0.5210    0.4970 o         1 0OM     -0.542000
     11 CAP        -4.5850    2.8250    1.2480 ca        1 0OM     -0.255900
     12 CAI        -5.9530    3.1110    1.1200 ca        1 0OM     -0.036000
     13 CAE        -6.4010    4.3900    1.4510 ca        1 0OM     -0.262300
     14 CAF        -5.4610    5.3370    1.8990 ca        1 0OM      0.425200
     15 NAL        -4.1440    5.0780    2.0280 nb        1 0OM     -0.674000
     16 CAJ        -3.7200    3.8420    1.7060 ca        1 0OM      0.455200
     17 H1         -0.3920   -1.4900   -0.5090 ha        1 0OM      0.138000
     18 H2          2.0780   -1.5020   -0.1830 ha        1 0OM      0.133500
     19 H3          3.1340    0.0710    1.4410 ha        1 0OM      0.132000
     20 H4          1.7120    1.6580    2.7420 ha        1 0OM      0.133500
     21 H5         -0.7640    1.6670    2.4220 ha        1 0OM      0.138000
     22 H6         -2.4810   -0.2100   -0.3060 h1        1 0OM      0.064200
     23 H7         -2.6750   -0.7210    1.4410 h1        1 0OM      0.064200
     24 H8         -6.6460    2.3320    0.7640 ha        1 0OM      0.164000
     25 H9         -7.4620    4.6560    1.3650 ha        1 0OM      0.152000
     26 H10        -5.7750    6.3610    2.1710 h4        1 0OM      0.028100
     27 H11        -2.6350    3.6470    1.8160 h4        1 0OM      0.045100
@<TRIPOS>BOND
     1    1    2 ar  
     2    1    6 ar  
     3    1   17 1   
     4    2    3 ar  
     5    2   18 1   
     6    3    4 ar  
     7    3   19 1   
     8    4    5 ar  
     9    4   20 1   
    10    5    6 ar  
    11    5   21 1   
    12    6    7 1   
    13    7    8 1   
    14    7   22 1   
    15    7   23 1   
    16    8    9 1   
    17    9   10 2   
    18    9   11 1   
    19   11   12 ar  
    20   11   16 ar  
    21   12   13 ar  
    22   12   24 1   
    23   13   14 ar  
    24   13   25 1   
    25   14   15 ar  
    26   14   26 1   
    27   15   16 ar  
    28   16   27 1   
@<TRIPOS>SUBSTRUCTURE
     1 0OM         1 TEMP              0 ****  ****    0 ROOT
