@<TRIPOS>MOLECULE
0OM
   27    28     1     0     0
SMALL
bcc


@<TRIPOS>ATOM
      1 CAG        -3.6020   -0.6930    0.9950 ca        1 0OM     -0.114000
      2 CAC        -4.7550    0.0670    0.8070 ca        1 0OM     -0.130000
      3 CAB        -4.7580    1.1210   -0.1080 ca        1 0OM     -0.125000
      4 CAD        -3.6050    1.4130   -0.8360 ca        1 0OM     -0.130000
      5 CAH        -2.4500    0.6510   -0.6540 ca        1 0OM     -0.114000
      6 CAO        -2.4450   -0.4050    0.2610 ca        1 0OM     -0.095300
      7 CAK        -1.2420   -1.2640    0.4590 c3        1 0OM      0.187700
      8 OAM        -0.0770   -0.4820    0.1300 os        1 0OM     -0.437900
      9 CAN         1.1310   -1.1010    0.3090 c         1 0OM      0.654700
     10 OAA         1.1360   -2.2630    0.7260 o         1 0OM     -0.542000
     11 CAP         2.2840   -0.2630   -0.0350 ca        1 0OM     -0.255900
     12 CAI         3.5800   -0.7820    0.0980 ca        1 0OM     -0.036000
     13 CAE         4.6620    0.0320   -0.2360 ca        1 0OM     -0.262300
     14 CAF         4.4050    1.3390   -0.6920 ca        1 0OM      0.425200
     15 NAL         3.1660    1.8530   -0.8250 nb        1 0OM     -0.674000
     16 CAJ         2.1280    1.0610   -0.5010 ca        1 0OM      0.455200
     17 H1         -3.6000   -1.5190    1.7210 ha        1 0OM      0.138000
     18 H2         -5.6630   -0.1640    1.3830 ha        1 0OM      0.133500
     19 H3         -5.6680    1.7200   -0.2540 ha        1 0OM      0.132000
     20 H4         -3.6030    2.2450   -1.5550 ha        1 0OM      0.133500
     21 H5         -1.5370    0.8820   -1.2240 ha        1 0OM      0.138000
     22 H6         -1.1520   -1.6140    1.5220 h1        1 0OM      0.064200
     23 H7         -1.2700   -2.1570   -0.2220 h1        1 0OM      0.064200
     24 H8          3.7250   -1.8120    0.4600 ha        1 0OM      0.164000
     25 H9          5.6940   -0.3330   -0.1460 ha        1 0OM      0.152000
     26 H10         5.2350    2.0160   -0.9660 h4        1 0OM      0.028100
     27 H11         1.1170    1.4990   -0.6150 h4        1 0OM      0.045100
@<TRIPOS>BOND
     1    1    2 ar  
     2    1    6 ar  
     3    1   17 1   
     4    2    3 ar  
     5    2   18 1   
     6    3    4 ar  
     7    3   19 1   
     8    4    5 ar  
     9    4   20 1   
    10    5    6 ar  
    11    5   21 1   
    12    6    7 1   
    13    7    8 1   
    14    7   22 1   
    15    7   23 1   
    16    8    9 1   
    17    9   10 2   
    18    9   11 1   
    19   11   12 ar  
    20   11   16 ar  
    21   12   13 ar  
    22   12   24 1   
    23   13   14 ar  
    24   13   25 1   
    25   14   15 ar  
    26   14   26 1   
    27   15   16 ar  
    28   16   27 1   
@<TRIPOS>SUBSTRUCTURE
     1 0OM         1 TEMP              0 ****  ****    0 ROOT
