@<TRIPOS>MOLECULE
0OM
   27    28     1     0     0
SMALL
bcc


@<TRIPOS>ATOM
      1 CAG        -0.0570    0.0570   -0.0130 ca        1 0OM     -0.105000
      2 CAC         1.3360    0.1090   -0.0100 ca        1 0OM     -0.134000
      3 CAB         2.0330    0.1340    1.1980 ca        1 0OM     -0.118000
      4 CAD         1.3350    0.1080    2.4050 ca        1 0OM     -0.134000
      5 CAH        -0.0580    0.0570    2.4070 ca        1 0OM     -0.105000
      6 CAO        -0.7590    0.0260    1.1970 ca        1 0OM     -0.099300
      7 CAK        -2.2480   -0.0640    1.1960 c3        1 0OM      0.187700
      8 OAM        -2.7490    1.2900    1.2050 os        1 0OM     -0.433900
      9 CAN        -4.1110    1.4270    1.2060 c         1 0OM      0.651700
     10 OAA        -4.8000    0.4020    1.2000 o         1 0OM     -0.545000
     11 CAP        -4.5710    2.8190    1.2140 ca        1 0OM     -0.255900
     12 CAI        -5.9470    3.0920    1.2170 ca        1 0OM     -0.036000
     13 CAE        -6.3630    4.4230    1.2240 ca        1 0OM     -0.263300
     14 CAF        -5.3840    5.4340    1.2290 ca        1 0OM      0.425200
     15 NAL        -4.0580    5.1880    1.2270 nb        1 0OM     -0.674000
     16 CAJ        -3.6640    3.9020    1.2200 ca        1 0OM      0.455200
     17 H1         -0.6070    0.0420   -0.9660 ha        1 0OM      0.135500
     18 H2          1.8850    0.1320   -0.9630 ha        1 0OM      0.134000
     19 H3          3.1320    0.1750    1.1980 ha        1 0OM      0.133000
     20 H4          1.8830    0.1310    3.3580 ha        1 0OM      0.134000
     21 H5         -0.6090    0.0420    3.3590 ha        1 0OM      0.135500
     22 H6         -2.6360   -0.5800    0.2780 h1        1 0OM      0.060700
     23 H7         -2.6360   -0.5910    2.1080 h1        1 0OM      0.060700
     24 H8         -6.6710    2.2620    1.2120 ha        1 0OM      0.163000
     25 H9         -7.4300    4.6810    1.2270 ha        1 0OM      0.151000
     26 H10        -5.6730    6.5010    1.2360 h4        1 0OM      0.027100
     27 H11        -2.5720    3.7190    1.2180 h4        1 0OM      0.048100
@<TRIPOS>BOND
     1    1    2 ar  
     2    1    6 ar  
     3    1   17 1   
     4    2    3 ar  
     5    2   18 1   
     6    3    4 ar  
     7    3   19 1   
     8    4    5 ar  
     9    4   20 1   
    10    5    6 ar  
    11    5   21 1   
    12    6    7 1   
    13    7    8 1   
    14    7   22 1   
    15    7   23 1   
    16    8    9 1   
    17    9   10 2   
    18    9   11 1   
    19   11   12 ar  
    20   11   16 ar  
    21   12   13 ar  
    22   12   24 1   
    23   13   14 ar  
    24   13   25 1   
    25   14   15 ar  
    26   14   26 1   
    27   15   16 ar  
    28   16   27 1   
@<TRIPOS>SUBSTRUCTURE
     1 0OM         1 TEMP              0 ****  ****    0 ROOT
