@<TRIPOS>MOLECULE
0OM
   27    21     1     0     0
SMALL
bcc


@<TRIPOS>ATOM
      1 CAG         2.2940   -1.3790   -1.5940 c1        1 0OM     -0.106000
      2 CAC         3.6800   -1.3790   -1.6310 c1        1 0OM     -0.125000
      3 CAB         4.4040   -1.5650   -0.4640 c1        1 0OM     -0.125000
      4 CAD         3.7430   -1.7520    0.7400 c1        1 0OM     -0.125000
      5 CAH         2.3580   -1.7530    0.7760 c1        1 0OM     -0.125000
      6 CAO         1.6330   -1.5660   -0.3910 c1        1 0OM     -0.119000
      7 CAK         0.1210   -1.5690   -0.3510 c2        1 0OM      0.028000
      8 OAM        -0.3440   -0.2700   -0.0680 os        1 0OM     -0.274000
      9 CAN        -1.7410   -0.1380   -0.1350 c1        1 0OM      0.358000
     10 OAA        -2.4260   -1.0890   -0.4560 o         1 0OM     -0.358000
     11 CAP        -2.3920    1.1920    0.1760 c1        1 0OM     -0.170000
     12 CAI        -2.6920    1.5190    1.4660 c2        1 0OM     -0.032000
     13 CAE        -3.3220    2.6980    1.7410 c1        1 0OM     -0.200000
     14 CAF        -3.6570    3.5610    0.7100 c1        1 0OM     -0.040000
     15 NAL        -3.3570    3.2330   -0.5780 n1        1 0OM     -0.146000
     16 CAJ        -2.7270    2.0570   -0.8540 c1        1 0OM     -0.013000
     17 H1          1.7840   -1.2480   -2.4160 ha        1 0OM      0.155000
     18 H2          4.1460   -1.2470   -2.4790 ha        1 0OM      0.132500
     19 H3          5.3800   -1.5640   -0.4900 ha        1 0OM      0.132500
     20 H4          4.2530   -1.8830    1.5610 ha        1 0OM      0.132500
     21 H5          1.8920   -1.8840    1.6240 ha        1 0OM      0.132500
     22 H6         -0.2280   -1.8590   -1.2190 h4        1 0OM      0.111500
     23 H7         -0.1860   -2.1850    0.3470 h4        1 0OM      0.111500
     24 H8         -2.4560    0.9110    2.1920 ha        1 0OM      0.162000
     25 H9         -3.5380    2.9330    2.6640 ha        1 0OM      0.151000
     26 H10        -4.1080    4.4040    0.9060 ha        1 0OM      0.165000
     27 H11        -2.5130    1.8230   -1.7770 ha        1 0OM      0.184000
@<TRIPOS>BOND
     1    1    6 1   
     2    1   17 1   
     3    2    3 1   
     4    2   18 1   
     5    3   19 1   
     6    4    5 1   
     7    4   20 1   
     8    5   21 1   
     9    7    8 1   
    10    7   22 1   
    11    7   23 1   
    12    8    9 1   
    13    9   10 1   
    14   11   12 1   
    15   11   16 1   
    16   12   13 1   
    17   12   24 1   
    18   13   25 1   
    19   14   15 1   
    20   14   26 1   
    21   16   27 1   
@<TRIPOS>SUBSTRUCTURE
     1 0OM         1 TEMP              0 ****  ****    0 ROOT
