@<TRIPOS>MOLECULE
0ON
   25    26     1     0     0
SMALL
bcc


@<TRIPOS>ATOM
      1 CAG         0.2070   -0.0780   -0.0470 ca        1 0ON     -0.167500
      2 CAC         1.5870   -0.0360    0.1340 ca        1 0ON     -0.104500
      3 CAB         2.1430   -0.0260    1.4110 ca        1 0ON     -0.155000
      4 CAD         1.3040   -0.0590    2.5240 ca        1 0ON     -0.104500
      5 CAH        -0.0760   -0.1030    2.3690 ca        1 0ON     -0.167500
      6 CAN        -0.6500   -0.1140    1.0730 ca        1 0ON      0.066600
      7 NAL        -2.0520   -0.1390    0.9680 ns        1 0ON     -0.467100
      8 CAM        -2.8050   -0.3570   -0.1770 c         1 0ON      0.685700
      9 OAA        -2.3030   -0.5580   -1.2980 o         1 0ON     -0.582100
     10 CAO        -4.2840   -0.3530    0.0060 ca        1 0ON     -0.267900
     11 CAI        -5.0590   -1.2550   -0.7370 ca        1 0ON     -0.040000
     12 CAE        -6.4440   -1.2400   -0.5790 ca        1 0ON     -0.252300
     13 CAF        -7.0070   -0.3120    0.3170 ca        1 0ON      0.414200
     14 NAK        -6.2790    0.5720    1.0270 nb        1 0ON     -0.667000
     15 CAJ        -4.9430    0.5470    0.8680 ca        1 0ON      0.419200
     16 H1         -0.2030   -0.0860   -1.0700 ha        1 0ON      0.149500
     17 H2          2.2420   -0.0110   -0.7510 ha        1 0ON      0.133500
     18 H3          3.2340    0.0070    1.5410 ha        1 0ON      0.133000
     19 H4          1.7340   -0.0510    3.5370 ha        1 0ON      0.133500
     20 H5         -0.7150   -0.1300    3.2640 ha        1 0ON      0.149500
     21 H6         -2.5460   -0.0730    1.8310 hn        1 0ON      0.318500
     22 H7         -4.5690   -1.9500   -1.4380 ha        1 0ON      0.163000
     23 H8         -7.0850   -1.9320   -1.1410 ha        1 0ON      0.152000
     24 H9         -8.1010   -0.2680    0.4740 h4        1 0ON      0.028100
     25 H10        -4.3850    1.3040    1.4500 h4        1 0ON      0.027100
@<TRIPOS>BOND
     1    1    2 ar  
     2    1    6 ar  
     3    1   16 1   
     4    2    3 ar  
     5    2   17 1   
     6    3    4 ar  
     7    3   18 1   
     8    4    5 ar  
     9    4   19 1   
    10    5    6 ar  
    11    5   20 1   
    12    6    7 1   
    13    7    8 1   
    14    7   21 1   
    15    8    9 2   
    16    8   10 1   
    17   10   11 ar  
    18   10   15 ar  
    19   11   12 ar  
    20   11   22 1   
    21   12   13 ar  
    22   12   23 1   
    23   13   14 ar  
    24   13   24 1   
    25   14   15 ar  
    26   15   25 1   
@<TRIPOS>SUBSTRUCTURE
     1 0ON         1 TEMP              0 ****  ****    0 ROOT
