@<TRIPOS>MOLECULE
0ON
   25    21     1     0     0
SMALL
bcc


@<TRIPOS>ATOM
      1 CAG         2.3530   -1.0230   -1.1280 c1        1 0ON     -0.183000
      2 CAC         3.7390   -1.0170   -1.1110 c1        1 0ON     -0.129000
      3 CAB         4.4170   -0.5540    0.0060 c1        1 0ON     -0.129000
      4 CAD         3.7090   -0.0970    1.1060 c1        1 0ON     -0.129000
      5 CAH         2.3220   -0.1030    1.0900 c1        1 0ON     -0.129000
      6 CAN         1.6440   -0.5660   -0.0270 c1        1 0ON      0.074000
      7 NAL         0.2240   -0.6140   -0.0260 n         1 0ON     -0.321000
      8 CAM        -0.5280    0.5770   -0.2110 c2        1 0ON      0.359000
      9 OAA         0.0440    1.6370   -0.3700 o         1 0ON     -0.343000
     10 CAO        -2.0420    0.5330   -0.1600 c2        1 0ON     -0.182000
     11 CAI        -2.6940    0.8360    0.9990 c2        1 0ON     -0.040000
     12 CAE        -4.0590    0.8490    1.0300 c1        1 0ON     -0.187000
     13 CAF        -4.7800    0.5560   -0.1170 c1        1 0ON     -0.051000
     14 NAK        -4.1280    0.2530   -1.2740 n1        1 0ON     -0.141000
     15 CAJ        -2.7650    0.2390   -1.3060 c1        1 0ON     -0.046000
     16 H1          1.8750   -1.3490   -1.9140 ha        1 0ON      0.128000
     17 H2          4.2380   -1.3390   -1.8860 ha        1 0ON      0.142750
     18 H3          5.3940   -0.5500    0.0180 ha        1 0ON      0.142750
     19 H4          4.1860    0.2290    1.8930 ha        1 0ON      0.142750
     20 H5          1.8240    0.2190    1.8650 ha        1 0ON      0.142750
     21 H6         -0.2050   -1.4110    0.0880 hn        1 0ON      0.232000
     22 H7         -2.1860    1.0420    1.8060 ha        1 0ON      0.163000
     23 H8         -4.5270    1.0660    1.8590 ha        1 0ON      0.152000
     24 H9         -5.7560    0.5650   -0.0950 ha        1 0ON      0.165000
     25 H10        -2.2990    0.0230   -2.1350 ha        1 0ON      0.164000
@<TRIPOS>BOND
     1    1    6 1   
     2    1   16 1   
     3    2    3 1   
     4    2   17 1   
     5    3   18 1   
     6    4    5 1   
     7    4   19 1   
     8    5   20 1   
     9    6    7 1   
    10    7    8 1   
    11    7   21 1   
    12    8    9 1   
    13    8   10 1   
    14   10   11 1   
    15   10   15 1   
    16   11   12 1   
    17   11   22 1   
    18   12   23 1   
    19   13   14 1   
    20   13   24 1   
    21   15   25 1   
@<TRIPOS>SUBSTRUCTURE
     1 0ON         1 TEMP              0 ****  ****    0 ROOT
