@<TRIPOS>MOLECULE
0ON
   25    26     1     0     0
SMALL
bcc


@<TRIPOS>ATOM
      1 CAG        -2.5130   -0.9620    0.5090 ca        1 0ON     -0.167500
      2 CAC        -3.9030   -1.0380    0.4980 ca        1 0ON     -0.104500
      3 CAB        -4.6750    0.0050   -0.0060 ca        1 0ON     -0.155000
      4 CAD        -4.0450    1.1430   -0.5080 ca        1 0ON     -0.104500
      5 CAH        -2.6590    1.2420   -0.5110 ca        1 0ON     -0.167500
      6 CAN        -1.8650    0.1850    0.0010 ca        1 0ON      0.066600
      7 NAL        -0.4690    0.3400   -0.0050 n         1 0ON     -0.467100
      8 CAM         0.4860   -0.6330    0.2540 c         1 0ON      0.685700
      9 OAA         0.2030   -1.8100    0.5430 o         1 0ON     -0.582100
     10 CAO         1.9070   -0.1940    0.1550 ca        1 0ON     -0.267900
     11 CAI         2.8530   -1.0840   -0.3750 ca        1 0ON     -0.040000
     12 CAE         4.1850   -0.6790   -0.4520 ca        1 0ON     -0.252300
     13 CAF         4.5260    0.6050    0.0130 ca        1 0ON      0.414200
     14 NAK         3.6320    1.4660    0.5390 nb        1 0ON     -0.667000
     15 CAJ         2.3490    1.0660    0.6070 ca        1 0ON      0.419200
     16 H1         -1.9290   -1.8050    0.9130 ha        1 0ON      0.150000
     17 H2         -4.3920   -1.9410    0.8960 ha        1 0ON      0.133500
     18 H3         -5.7720   -0.0660   -0.0090 ha        1 0ON      0.133000
     19 H4         -4.6460    1.9730   -0.9090 ha        1 0ON      0.133500
     20 H5         -2.1870    2.1510   -0.9140 ha        1 0ON      0.150000
     21 H6         -0.1390    1.2300   -0.3100 hn        1 0ON      0.318500
     22 H7          2.5370   -2.0850   -0.7100 ha        1 0ON      0.163000
     23 H8          4.9560   -1.3460   -0.8620 ha        1 0ON      0.152000
     24 H9          5.5690    0.9660   -0.0310 h4        1 0ON      0.028100
     25 H10         1.6520    1.7920    1.0660 h4        1 0ON      0.027100
@<TRIPOS>BOND
     1    1    2 ar  
     2    1    6 ar  
     3    1   16 1   
     4    2    3 ar  
     5    2   17 1   
     6    3    4 ar  
     7    3   18 1   
     8    4    5 ar  
     9    4   19 1   
    10    5    6 ar  
    11    5   20 1   
    12    6    7 1   
    13    7    8 1   
    14    7   21 1   
    15    8    9 2   
    16    8   10 1   
    17   10   11 ar  
    18   10   15 ar  
    19   11   12 ar  
    20   11   22 1   
    21   12   13 ar  
    22   12   23 1   
    23   13   14 ar  
    24   13   24 1   
    25   14   15 ar  
    26   15   25 1   
@<TRIPOS>SUBSTRUCTURE
     1 0ON         1 TEMP              0 ****  ****    0 ROOT
