@<TRIPOS>MOLECULE
0ON
   26    27     1     0     0
SMALL
bcc


@<TRIPOS>ATOM
      1 CAG        -0.5780    1.3060    0.7870 ca        1 0ON     -0.104500
      2 CAC         0.6470    1.2790    0.1230 ca        1 0ON     -0.100000
      3 CAB         1.4780    0.1600    0.2150 ca        1 0ON     -0.069000
      4 CAD         1.0860   -0.9430    0.9750 ca        1 0ON     -0.100000
      5 CAH        -0.1340   -0.9400    1.6480 ca        1 0ON     -0.104500
      6 CAN        -0.9660    0.1890    1.5500 ca        1 0ON     -0.063400
      7 NAL        -2.2400    0.2120    2.2750 n4        1 0ON     -0.545200
      8 CAM        -3.1500   -0.9470    1.8820 c         1 0ON      0.591700
      9 OAA        -3.0530   -1.9270    2.6090 o         1 0ON     -0.429100
     10 CAO        -4.0410   -0.7390    0.7520 ca        1 0ON     -0.329900
     11 CAI        -5.1790   -1.5680    0.6500 ca        1 0ON     -0.006000
     12 CAE        -6.0410   -1.3930   -0.4280 ca        1 0ON     -0.240300
     13 CAF        -5.7390   -0.3980   -1.3810 ca        1 0ON      0.475200
     14 NAK        -4.6460    0.3910   -1.3050 nb        1 0ON     -0.645000
     15 CAJ        -3.8180    0.2200   -0.2650 ca        1 0ON      0.453200
     16 H1         -1.2140    2.2030    0.7090 ha        1 0ON      0.160500
     17 H2          0.9590    2.1510   -0.4750 ha        1 0ON      0.173500
     18 H3          2.4460    0.1490   -0.3140 ha        1 0ON      0.173000
     19 H4          1.7430   -1.8270    1.0490 ha        1 0ON      0.173500
     20 H5         -0.4340   -1.8190    2.2460 ha        1 0ON      0.160500
     21 H6         -2.7210    1.1000    2.0970 hn        1 0ON      0.463800
     22 H7         -5.3730   -2.3400    1.4150 ha        1 0ON      0.177000
     23 H8         -6.9390   -2.0190   -0.5420 ha        1 0ON      0.183000
     24 H9         -6.3990   -0.2220   -2.2550 h4        1 0ON      0.061100
     25 H10        -2.9210    0.8690   -0.2730 h4        1 0ON      0.027100
     26 HAL2       -2.0330    0.1360    3.2820 hn        1 0ON      0.463800
@<TRIPOS>BOND
     1    1    2 ar  
     2    1    6 ar  
     3    1   16 1   
     4    2    3 ar  
     5    2   17 1   
     6    3    4 ar  
     7    3   18 1   
     8    4    5 ar  
     9    4   19 1   
    10    5    6 ar  
    11    5   20 1   
    12    6    7 1   
    13    7    8 1   
    14    7   21 1   
    15    7   26 1   
    16    8    9 2   
    17    8   10 1   
    18   10   11 ar  
    19   10   15 ar  
    20   11   12 ar  
    21   11   22 1   
    22   12   13 ar  
    23   12   23 1   
    24   13   14 ar  
    25   13   24 1   
    26   14   15 ar  
    27   15   25 1   
@<TRIPOS>SUBSTRUCTURE
     1 0ON         1 TEMP              0 ****  ****    0 ROOT
