@<TRIPOS>MOLECULE
0OO
   27    28     1     0     0
SMALL
bcc


@<TRIPOS>ATOM
      1 CAG         0.0450   -0.3880    0.2470 ca        1 0OO     -0.156500
      2 CAC         1.4130   -0.1310    0.1680 ca        1 0OO     -0.107500
      3 CAB         2.1170    0.3010    1.2910 ca        1 0OO     -0.151000
      4 CAD         1.4560    0.4770    2.5070 ca        1 0OO     -0.107500
      5 CAH         0.0910    0.2200    2.6130 ca        1 0OO     -0.156500
      6 CAN        -0.6070   -0.2090    1.4730 ca        1 0OO      0.106100
      7 OAL        -1.9830   -0.3420    1.6330 os        1 0OO     -0.251200
      8 CAO        -2.6170   -1.3180    0.8690 ca        1 0OO      0.103100
      9 CAJ        -2.0420   -2.5640    0.5930 ca        1 0OO     -0.144000
     10 CAI        -3.9280   -1.0150    0.4730 ca        1 0OO     -0.141000
     11 CAE        -4.6640   -1.9850   -0.2040 ca        1 0OO     -0.110000
     12 CAF        -4.1040   -3.2280   -0.4910 ca        1 0OO     -0.151000
     13 CAM        -2.7930   -3.5200   -0.0930 ca        1 0OO     -0.066300
     14 CAK        -2.2380   -4.8730   -0.3970 c3        1 0OO      0.175700
     15 OAA        -0.8270   -4.8510   -0.2350 oh        1 0OO     -0.597800
     16 H1         -0.5160   -0.7320   -0.6330 ha        1 0OO      0.149500
     17 H2          1.9360   -0.2700   -0.7900 ha        1 0OO      0.134500
     18 H3          3.1960    0.5030    1.2190 ha        1 0OO      0.133000
     19 H4          2.0140    0.8180    3.3920 ha        1 0OO      0.134500
     20 H5         -0.4450    0.3560    3.5620 ha        1 0OO      0.149500
     21 H6         -1.0080   -2.7870    0.9030 ha        1 0OO      0.168000
     22 H7         -4.3580   -0.0310    0.7080 ha        1 0OO      0.150000
     23 H8         -5.6950   -1.7630   -0.5180 ha        1 0OO      0.135000
     24 H9         -4.6920   -3.9830   -1.0330 ha        1 0OO      0.132000
     25 H10        -2.6890   -5.6280    0.3050 h1        1 0OO      0.033700
     26 H11        -2.4900   -5.1650   -1.4540 h1        1 0OO      0.033700
     27 H12        -0.5240   -5.7520   -0.3970 ho        1 0OO      0.404000
@<TRIPOS>BOND
     1    1    2 ar  
     2    1    6 ar  
     3    1   16 1   
     4    2    3 ar  
     5    2   17 1   
     6    3    4 ar  
     7    3   18 1   
     8    4    5 ar  
     9    4   19 1   
    10    5    6 ar  
    11    5   20 1   
    12    6    7 1   
    13    7    8 1   
    14    8    9 ar  
    15    8   10 ar  
    16    9   13 ar  
    17    9   21 1   
    18   10   11 ar  
    19   10   22 1   
    20   11   12 ar  
    21   11   23 1   
    22   12   13 ar  
    23   12   24 1   
    24   13   14 1   
    25   14   15 1   
    26   14   25 1   
    27   14   26 1   
    28   15   27 1   
@<TRIPOS>SUBSTRUCTURE
     1 0OO         1 TEMP              0 ****  ****    0 ROOT
