@<TRIPOS>MOLECULE
0OO
   27    28     1     0     0
SMALL
bcc


@<TRIPOS>ATOM
      1 CAG         1.8040    0.1290    0.8200 ca        1 0OO     -0.156500
      2 CAC         2.9570    0.8690    1.0790 ca        1 0OO     -0.107500
      3 CAB         3.9850    0.9260    0.1390 ca        1 0OO     -0.151000
      4 CAD         3.8660    0.2420   -1.0720 ca        1 0OO     -0.107500
      5 CAH         2.7210   -0.4980   -1.3550 ca        1 0OO     -0.156500
      6 CAN         1.6960   -0.5510   -0.3980 ca        1 0OO      0.106100
      7 OAL         0.6340   -1.3950   -0.7100 os        1 0OO     -0.251200
      8 CAO        -0.6210   -1.0380   -0.2250 ca        1 0OO      0.103100
      9 CAJ        -1.0640    0.2880   -0.1580 ca        1 0OO     -0.144000
     10 CAI        -1.4680   -2.1080    0.1000 ca        1 0OO     -0.141000
     11 CAE        -2.7760   -1.8320    0.4920 ca        1 0OO     -0.110000
     12 CAF        -3.2300   -0.5170    0.5690 ca        1 0OO     -0.151000
     13 CAM        -2.3760    0.5440    0.2440 ca        1 0OO     -0.066300
     14 CAK        -2.9090    1.9380    0.3140 c3        1 0OO      0.175700
     15 OAA        -1.8270    2.8590    0.2930 oh        1 0OO     -0.597800
     16 H1          0.9870    0.0820    1.5540 ha        1 0OO      0.149500
     17 H2          3.0520    1.4090    2.0330 ha        1 0OO      0.134500
     18 H3          4.8920    1.5110    0.3510 ha        1 0OO      0.133000
     19 H4          4.6790    0.2880   -1.8120 ha        1 0OO      0.134500
     20 H5          2.6130   -1.0440   -2.3030 ha        1 0OO      0.149500
     21 H6         -0.3870    1.1200   -0.4090 ha        1 0OO      0.168000
     22 H7         -1.0970   -3.1400    0.0320 ha        1 0OO      0.150000
     23 H8         -3.4530   -2.6610    0.7460 ha        1 0OO      0.135000
     24 H9         -4.2630   -0.3110    0.8870 ha        1 0OO      0.132000
     25 H10        -3.5840    2.1250   -0.5680 h1        1 0OO      0.033700
     26 H11        -3.5020    2.0780    1.2600 h1        1 0OO      0.033700
     27 H12        -2.2230    3.7380    0.2930 ho        1 0OO      0.404000
@<TRIPOS>BOND
     1    1    2 ar  
     2    1    6 ar  
     3    1   16 1   
     4    2    3 ar  
     5    2   17 1   
     6    3    4 ar  
     7    3   18 1   
     8    4    5 ar  
     9    4   19 1   
    10    5    6 ar  
    11    5   20 1   
    12    6    7 1   
    13    7    8 1   
    14    8    9 ar  
    15    8   10 ar  
    16    9   13 ar  
    17    9   21 1   
    18   10   11 ar  
    19   10   22 1   
    20   11   12 ar  
    21   11   23 1   
    22   12   13 ar  
    23   12   24 1   
    24   13   14 1   
    25   14   15 1   
    26   14   25 1   
    27   14   26 1   
    28   15   27 1   
@<TRIPOS>SUBSTRUCTURE
     1 0OO         1 TEMP              0 ****  ****    0 ROOT
