@<TRIPOS>MOLECULE
0OO
   27    28     1     0     0
SMALL
bcc


@<TRIPOS>ATOM
      1 CAG         0.0540   -0.3860    0.2950 ca        1 0OO     -0.156500
      2 CAC         1.4240   -0.1320    0.2400 ca        1 0OO     -0.107500
      3 CAB         2.1130    0.2750    1.3820 ca        1 0OO     -0.151000
      4 CAD         1.4350    0.4290    2.5920 ca        1 0OO     -0.107500
      5 CAH         0.0680    0.1740    2.6730 ca        1 0OO     -0.156500
      6 CAN        -0.6140   -0.2300    1.5150 ca        1 0OO      0.106100
      7 OAL        -1.9930   -0.3620    1.6530 os        1 0OO     -0.251200
      8 CAO        -2.6190   -1.3200    0.8600 ca        1 0OO      0.103100
      9 CAJ        -2.0440   -2.5620    0.5670 ca        1 0OO     -0.144000
     10 CAI        -3.9240   -1.0040    0.4510 ca        1 0OO     -0.141000
     11 CAE        -4.6530   -1.9570   -0.2560 ca        1 0OO     -0.111000
     12 CAF        -4.0930   -3.1960   -0.5600 ca        1 0OO     -0.151000
     13 CAM        -2.7890   -3.5010   -0.1490 ca        1 0OO     -0.066300
     14 CAK        -2.2340   -4.8500   -0.4720 c3        1 0OO      0.175700
     15 OAA        -0.8260   -4.8370   -0.2870 oh        1 0OO     -0.597800
     16 H1         -0.4960   -0.7110   -0.6000 ha        1 0OO      0.149500
     17 H2          1.9600   -0.2540   -0.7130 ha        1 0OO      0.134000
     18 H3          3.1930    0.4750    1.3290 ha        1 0OO      0.133000
     19 H4          1.9810    0.7510    3.4910 ha        1 0OO      0.134000
     20 H5         -0.4810    0.2930    3.6170 ha        1 0OO      0.149500
     21 H6         -1.0160   -2.7950    0.8880 ha        1 0OO      0.168000
     22 H7         -4.3530   -0.0240    0.7000 ha        1 0OO      0.150000
     23 H8         -5.6780   -1.7250   -0.5800 ha        1 0OO      0.135000
     24 H9         -4.6750   -3.9380   -1.1260 ha        1 0OO      0.132000
     25 H10        -2.7000   -5.6170    0.2070 h1        1 0OO      0.033700
     26 H11        -2.4700   -5.1190   -1.5390 h1        1 0OO      0.033700
     27 H12        -0.5230   -5.7360   -0.4630 ho        1 0OO      0.404000
@<TRIPOS>BOND
     1    1    2 ar  
     2    1    6 ar  
     3    1   16 1   
     4    2    3 ar  
     5    2   17 1   
     6    3    4 ar  
     7    3   18 1   
     8    4    5 ar  
     9    4   19 1   
    10    5    6 ar  
    11    5   20 1   
    12    6    7 1   
    13    7    8 1   
    14    8    9 ar  
    15    8   10 ar  
    16    9   13 ar  
    17    9   21 1   
    18   10   11 ar  
    19   10   22 1   
    20   11   12 ar  
    21   11   23 1   
    22   12   13 ar  
    23   12   24 1   
    24   13   14 1   
    25   14   15 1   
    26   14   25 1   
    27   14   26 1   
    28   15   27 1   
@<TRIPOS>SUBSTRUCTURE
     1 0OO         1 TEMP              0 ****  ****    0 ROOT
