@<TRIPOS>MOLECULE
0OO
   27    23     1     0     0
SMALL
bcc


@<TRIPOS>ATOM
      1 CAG        -0.5600   -2.4870   -1.7460 c1        1 0OO     -0.144000
      2 CAC        -1.4130   -2.5610   -2.8360 c1        1 0OO     -0.128833
      3 CAB        -1.5220   -1.4860   -3.7050 c1        1 0OO     -0.128833
      4 CAD        -0.7790   -0.3380   -3.4830 c1        1 0OO     -0.128833
      5 CAH         0.0740   -0.2630   -2.3930 c1        1 0OO     -0.128833
      6 CAN         0.1840   -1.3380   -1.5240 c1        1 0OO      0.062000
      7 OAL         1.1170   -1.2990   -0.4730 os        1 0OO     -0.162000
      8 CAO         0.6060   -0.5180    0.5790 c2        1 0OO      0.057000
      9 CAJ         1.2940    0.6090    1.0020 c2        1 0OO     -0.143000
     10 CAI        -0.5370   -0.9240    1.2490 c1        1 0OO     -0.168000
     11 CAE        -0.9930   -0.2040    2.3430 c1        1 0OO     -0.128833
     12 CAF        -0.3050    0.9220    2.7660 c1        1 0OO     -0.128833
     13 CAM         0.8390    1.3290    2.0960 c1        1 0OO     -0.062000
     14 CAK         1.6240    2.5230    2.5950 c3        1 0OO      0.018000
     15 OAA         0.8660    3.6970    2.4060 oh        1 0OO     -0.326000
     16 H1         -0.4830   -3.2440   -1.1350 ha        1 0OO      0.150000
     17 H2         -1.9360   -3.3700   -2.9930 ha        1 0OO      0.140500
     18 H3         -2.1230   -1.5380   -4.4720 ha        1 0OO      0.140500
     19 H4         -0.8570    0.4190   -4.0950 ha        1 0OO      0.140500
     20 H5          0.5970    0.5460   -2.2370 ha        1 0OO      0.140500
     21 H6          2.0990    0.8950    0.5300 ha        1 0OO      0.148000
     22 H7         -1.0220   -1.7170    0.9510 ha        1 0OO      0.148000
     23 H8         -1.7980   -0.4900    2.8150 ha        1 0OO      0.140500
     24 H9         -0.6250    1.4300    3.5360 ha        1 0OO      0.140500
     25 H10         2.4640    2.5920    2.0970 h1        1 0OO      0.074000
     26 H11         1.8180    2.4100    3.5490 h1        1 0OO      0.074000
     27 H12         1.3720    4.4080    2.5770 ho        1 0OO      0.203000
@<TRIPOS>BOND
     1    1    6 1   
     2    1   16 1   
     3    2    3 1   
     4    2   17 1   
     5    3   18 1   
     6    4    5 1   
     7    4   19 1   
     8    5   20 1   
     9    6    7 1   
    10    7    8 1   
    11    8    9 1   
    12    8   10 1   
    13    9   13 1   
    14    9   21 1   
    15   10   22 1   
    16   11   12 1   
    17   11   23 1   
    18   12   24 1   
    19   13   14 1   
    20   14   15 1   
    21   14   25 1   
    22   14   26 1   
    23   15   27 1   
@<TRIPOS>SUBSTRUCTURE
     1 0OO         1 TEMP              0 ****  ****    0 ROOT
