@<TRIPOS>MOLECULE
0OP
   30    31     1     0     0
SMALL
bcc


@<TRIPOS>ATOM
      1 CAF        -2.8890    0.4030   -1.0160 ca        1 0OP     -0.112500
      2 CAC        -4.1640    0.8880   -1.3070 ca        1 0OP     -0.131500
      3 CAB        -5.2010    0.7270   -0.3890 ca        1 0OP     -0.125000
      4 CAD        -4.9610    0.0840    0.8260 ca        1 0OP     -0.131500
      5 CAG        -3.6870   -0.3960    1.1230 ca        1 0OP     -0.112500
      6 CAN        -2.6460   -0.2420    0.2000 ca        1 0OP     -0.093300
      7 CAL        -1.3020   -0.8040    0.5260 c3        1 0OP      0.175700
      8 OAM        -0.3170   -0.0020   -0.1400 os        1 0OP     -0.329900
      9 CAP         0.9990   -0.3570    0.0970 ca        1 0OP      0.126100
     10 CAJ         1.9450    0.4990   -0.4920 ca        1 0OP     -0.160000
     11 CAI         1.4050   -1.4700    0.8420 ca        1 0OP     -0.202000
     12 CAE         2.7690   -1.7210    0.9940 ca        1 0OP     -0.099000
     13 CAH         3.7170   -0.8810    0.4150 ca        1 0OP     -0.135000
     14 CAO         3.3050    0.2300   -0.3290 ca        1 0OP     -0.057300
     15 CAK         4.2860    1.1590   -0.9670 c3        1 0OP      0.174700
     16 OAA         5.6080    0.7110   -0.7030 oh        1 0OP     -0.598800
     17 H1         -2.0650    0.5330   -1.7360 ha        1 0OP      0.139000
     18 H2         -4.3500    1.3980   -2.2640 ha        1 0OP      0.132500
     19 H3         -6.2060    1.1080   -0.6210 ha        1 0OP      0.132000
     20 H4         -5.7770   -0.0410    1.5520 ha        1 0OP      0.132500
     21 H5         -3.4990   -0.8970    2.0850 ha        1 0OP      0.139000
     22 H6         -1.1150   -0.7800    1.6340 h1        1 0OP      0.048200
     23 H7         -1.2280   -1.8620    0.1540 h1        1 0OP      0.048200
     24 H8          1.6020    1.3670   -1.0720 ha        1 0OP      0.146000
     25 H9          0.6730   -2.1450    1.3060 ha        1 0OP      0.136000
     26 H10         3.0960   -2.5940    1.5790 ha        1 0OP      0.133000
     27 H11         4.7920   -1.0840    0.5380 ha        1 0OP      0.155000
     28 H12         4.1130    1.1880   -2.0790 h1        1 0OP      0.034200
     29 H13         4.1490    2.1960   -0.5520 h1        1 0OP      0.034200
     30 H14         6.1960    1.3440   -1.1320 ho        1 0OP      0.403000
@<TRIPOS>BOND
     1    1    2 ar  
     2    1    6 ar  
     3    1   17 1   
     4    2    3 ar  
     5    2   18 1   
     6    3    4 ar  
     7    3   19 1   
     8    4    5 ar  
     9    4   20 1   
    10    5    6 ar  
    11    5   21 1   
    12    6    7 1   
    13    7    8 1   
    14    7   22 1   
    15    7   23 1   
    16    8    9 1   
    17    9   10 ar  
    18    9   11 ar  
    19   10   14 ar  
    20   10   24 1   
    21   11   12 ar  
    22   11   25 1   
    23   12   13 ar  
    24   12   26 1   
    25   13   14 ar  
    26   13   27 1   
    27   14   15 1   
    28   15   16 1   
    29   15   28 1   
    30   15   29 1   
    31   16   30 1   
@<TRIPOS>SUBSTRUCTURE
     1 0OP         1 TEMP              0 ****  ****    0 ROOT
