@<TRIPOS>MOLECULE
0OP
   30    31     1     0     0
SMALL
bcc


@<TRIPOS>ATOM
      1 CAF        -0.1130   -0.7650    0.2890 ca        1 0OP     -0.112500
      2 CAC         1.2640   -0.7420    0.0680 ca        1 0OP     -0.131500
      3 CAB         2.0930    0.0200    0.8920 ca        1 0OP     -0.125000
      4 CAD         1.5440    0.7550    1.9420 ca        1 0OP     -0.131500
      5 CAG         0.1690    0.7310    2.1710 ca        1 0OP     -0.112500
      6 CAN        -0.6650   -0.0270    1.3410 ca        1 0OP     -0.093300
      7 CAL        -2.1380   -0.0020    1.5820 c3        1 0OP      0.175700
      8 OAM        -2.6770   -1.2580    1.1450 os        1 0OP     -0.329900
      9 CAP        -4.0360   -1.4240    1.3430 ca        1 0OP      0.126100
     10 CAJ        -4.5210   -2.6970    0.9940 ca        1 0OP     -0.160000
     11 CAI        -4.8990   -0.4390    1.8370 ca        1 0OP     -0.202000
     12 CAE        -6.2540   -0.7360    1.9780 ca        1 0OP     -0.099000
     13 CAH        -6.7480   -1.9920    1.6340 ca        1 0OP     -0.135000
     14 CAO        -5.8810   -2.9730    1.1410 ca        1 0OP     -0.057300
     15 CAK        -6.3660   -4.3350    0.7610 c3        1 0OP      0.174700
     16 OAA        -7.7680   -4.4160    0.9690 oh        1 0OP     -0.598800
     17 H1         -0.7710   -1.3680   -0.3540 ha        1 0OP      0.139000
     18 H2          1.6950   -1.3260   -0.7580 ha        1 0OP      0.132500
     19 H3          3.1780    0.0390    0.7150 ha        1 0OP      0.132000
     20 H4          2.1960    1.3540    2.5940 ha        1 0OP      0.132500
     21 H5         -0.2600    1.3070    3.0040 ha        1 0OP      0.139000
     22 H6         -2.3650    0.1410    2.6720 h1        1 0OP      0.048200
     23 H7         -2.6110    0.8270    0.9870 h1        1 0OP      0.048200
     24 H8         -3.8240   -3.4550    0.6100 ha        1 0OP      0.146000
     25 H9         -4.5290    0.5580    2.1120 ha        1 0OP      0.136000
     26 H10        -6.9390    0.0330    2.3650 ha        1 0OP      0.133000
     27 H11        -7.8190   -2.2210    1.7470 ha        1 0OP      0.155000
     28 H12        -6.1320   -4.5310   -0.3220 h1        1 0OP      0.034200
     29 H13        -5.8450   -5.1100    1.3900 h1        1 0OP      0.034200
     30 H14        -8.0250   -5.3100    0.7130 ho        1 0OP      0.403000
@<TRIPOS>BOND
     1    1    2 ar  
     2    1    6 ar  
     3    1   17 1   
     4    2    3 ar  
     5    2   18 1   
     6    3    4 ar  
     7    3   19 1   
     8    4    5 ar  
     9    4   20 1   
    10    5    6 ar  
    11    5   21 1   
    12    6    7 1   
    13    7    8 1   
    14    7   22 1   
    15    7   23 1   
    16    8    9 1   
    17    9   10 ar  
    18    9   11 ar  
    19   10   14 ar  
    20   10   24 1   
    21   11   12 ar  
    22   11   25 1   
    23   12   13 ar  
    24   12   26 1   
    25   13   14 ar  
    26   13   27 1   
    27   14   15 1   
    28   15   16 1   
    29   15   28 1   
    30   15   29 1   
    31   16   30 1   
@<TRIPOS>SUBSTRUCTURE
     1 0OP         1 TEMP              0 ****  ****    0 ROOT
