@<TRIPOS>MOLECULE
0OP
   30    25     1     0     0
SMALL
bcc


@<TRIPOS>ATOM
      1 CAF        -0.1380   -2.7870    1.3150 c1        1 0OP     -0.043500
      2 CAC        -0.0840   -4.0810    1.8110 c1        1 0OP     -0.070667
      3 CAB         0.9900   -4.8990    1.4970 c1        1 0OP     -0.070667
      4 CAD         2.0130   -4.4260    0.6860 c1        1 0OP     -0.070667
      5 CAG         1.9620   -3.1220    0.1850 c1        1 0OP     -0.070667
      6 CAN         0.8950   -2.3060    0.4950 c1        1 0OP     -0.059100
      7 CAL         0.7940   -0.9230   -0.1270 c3        1 0OP      0.141500
      8 OAM         0.3780   -0.0050    0.8320 os        1 0OP     -0.311400
      9 CAP         0.1620    1.2840    0.3220 c1        1 0OP      0.109600
     10 CAJ        -1.0250    1.5740   -0.3530 c1        1 0OP     -0.150500
     11 CAI         1.0870    2.2790    0.5520 c1        1 0OP     -0.070667
     12 CAE         0.8360    3.5810    0.1090 c1        1 0OP     -0.070667
     13 CAH        -0.3470    3.8690   -0.5640 c1        1 0OP     -0.076500
     14 CAO        -1.2760    2.8650   -0.7940 c1        1 0OP     -0.021100
     15 CAK        -2.5860    3.1830   -1.5510 c3        1 0OP      0.141500
     16 OAA        -2.2900    3.4570   -2.9140 oh        1 0OP     -0.596800
     17 H1         -0.8920   -2.2140    1.5350 ha        1 0OP      0.091500
     18 H2         -0.7950   -4.4120    2.3750 ha        1 0OP      0.077500
     19 H3          1.0280   -5.8090    1.8460 ha        1 0OP      0.077500
     20 H4          2.7480   -4.9900    0.4730 ha        1 0OP      0.077500
     21 H5          2.6960   -2.7840   -0.3950 ha        1 0OP      0.077500
     22 H6          1.6760   -0.6540   -0.4730 h1        1 0OP      0.047200
     23 H7          0.1530   -0.9440   -0.8550 h1        1 0OP      0.047200
     24 H8         -1.6680    0.8790   -0.5110 ha        1 0OP      0.076500
     25 H9          1.9250    2.0720    1.0290 ha        1 0OP      0.077500
     26 H10         1.4940    4.2900    0.2730 ha        1 0OP      0.077500
     27 H11        -0.5240    4.7750   -0.8730 ha        1 0OP      0.097500
     28 H12        -3.0290    3.9930   -1.1340 h1        1 0OP      0.032200
     29 H13        -3.1920    2.4140   -1.4960 h1        1 0OP      0.032200
     30 H14        -2.9910    3.8400   -3.2970 ho        1 0OP      0.403000
@<TRIPOS>BOND
     1    1    6 3   
     2    1   17 1   
     3    2    3 3   
     4    2   18 1   
     5    3   19 1   
     6    4    5 3   
     7    4   20 1   
     8    5   21 1   
     9    6    7 1   
    10    7    8 1   
    11    7   22 1   
    12    7   23 1   
    13    8    9 1   
    14    9   10 3   
    15   10   24 1   
    16   11   12 3   
    17   11   25 1   
    18   12   26 1   
    19   13   14 3   
    20   13   27 1   
    21   14   15 1   
    22   15   16 1   
    23   15   28 1   
    24   15   29 1   
    25   16   30 1   
@<TRIPOS>SUBSTRUCTURE
     1 0OP         1 TEMP              0 ****  ****    0 ROOT
