@<TRIPOS>MOLECULE
0OP
   30    31     1     0     0
SMALL
bcc


@<TRIPOS>ATOM
      1 CAF        -0.1010   -0.7800    0.3120 ca        1 0OP     -0.112500
      2 CAC         1.2780   -0.7630    0.1080 ca        1 0OP     -0.131500
      3 CAB         2.0990    0.0050    0.9330 ca        1 0OP     -0.125000
      4 CAD         1.5390    0.7540    1.9690 ca        1 0OP     -0.131500
      5 CAG         0.1620    0.7360    2.1800 ca        1 0OP     -0.112500
      6 CAN        -0.6650   -0.0290    1.3480 ca        1 0OP     -0.093300
      7 CAL        -2.1400    0.0020    1.5710 c3        1 0OP      0.175700
      8 OAM        -2.6770   -1.2580    1.1440 os        1 0OP     -0.329900
      9 CAP        -4.0370   -1.4200    1.3310 ca        1 0OP      0.126100
     10 CAJ        -4.5200   -2.6970    0.9950 ca        1 0OP     -0.160000
     11 CAI        -4.9040   -0.4260    1.7990 ca        1 0OP     -0.202000
     12 CAE        -6.2610   -0.7200    1.9290 ca        1 0OP     -0.099000
     13 CAH        -6.7540   -1.9800    1.5990 ca        1 0OP     -0.135000
     14 CAO        -5.8820   -2.9700    1.1320 ca        1 0OP     -0.057300
     15 CAK        -6.3640   -4.3370    0.7670 c3        1 0OP      0.174700
     16 OAA        -7.7690   -4.4140    0.9620 oh        1 0OP     -0.598800
     17 H1         -0.7540   -1.3890   -0.3330 ha        1 0OP      0.139000
     18 H2          1.7170   -1.3570   -0.7070 ha        1 0OP      0.132500
     19 H3          3.1860    0.0190    0.7690 ha        1 0OP      0.132000
     20 H4          2.1850    1.3580    2.6220 ha        1 0OP      0.132500
     21 H5         -0.2760    1.3220    3.0020 ha        1 0OP      0.139000
     22 H6         -2.6030    0.8240    0.9580 h1        1 0OP      0.048200
     23 H7         -2.3810    0.1610    2.6570 h1        1 0OP      0.048200
     24 H8         -3.8200   -3.4620    0.6300 ha        1 0OP      0.146000
     25 H9         -4.5360    0.5740    2.0630 ha        1 0OP      0.136000
     26 H10        -6.9500    0.0560    2.2970 ha        1 0OP      0.133000
     27 H11        -7.8260   -2.2070    1.7040 ha        1 0OP      0.155000
     28 H12        -6.1210   -4.5490   -0.3110 h1        1 0OP      0.034200
     29 H13        -5.8500   -5.1030    1.4120 h1        1 0OP      0.034200
     30 H14        -8.0240   -5.3110    0.7170 ho        1 0OP      0.403000
@<TRIPOS>BOND
     1    1    2 ar  
     2    1    6 ar  
     3    1   17 1   
     4    2    3 ar  
     5    2   18 1   
     6    3    4 ar  
     7    3   19 1   
     8    4    5 ar  
     9    4   20 1   
    10    5    6 ar  
    11    5   21 1   
    12    6    7 1   
    13    7    8 1   
    14    7   22 1   
    15    7   23 1   
    16    8    9 1   
    17    9   10 ar  
    18    9   11 ar  
    19   10   14 ar  
    20   10   24 1   
    21   11   12 ar  
    22   11   25 1   
    23   12   13 ar  
    24   12   26 1   
    25   13   14 ar  
    26   13   27 1   
    27   14   15 1   
    28   15   16 1   
    29   15   28 1   
    30   15   29 1   
    31   16   30 1   
@<TRIPOS>SUBSTRUCTURE
     1 0OP         1 TEMP              0 ****  ****    0 ROOT
