@<TRIPOS>MOLECULE
0OP
   30    31     1     0     0
SMALL
bcc


@<TRIPOS>ATOM
      1 CAF        -0.1150   -0.7890    0.2720 ca        1 0OP     -0.112500
      2 CAC         1.2620   -0.7710    0.0480 ca        1 0OP     -0.131500
      3 CAB         2.0920    0.0120    0.8500 ca        1 0OP     -0.125000
      4 CAD         1.5440    0.7750    1.8810 ca        1 0OP     -0.131500
      5 CAG         0.1700    0.7560    2.1120 ca        1 0OP     -0.112500
      6 CAN        -0.6660   -0.0250    1.3040 ca        1 0OP     -0.093300
      7 CAL        -2.1380    0.0060    1.5480 c3        1 0OP      0.175700
      8 OAM        -2.6770   -1.2610    1.1440 os        1 0OP     -0.329900
      9 CAP        -4.0350   -1.4230    1.3480 ca        1 0OP      0.126100
     10 CAJ        -4.5210   -2.7030    1.0310 ca        1 0OP     -0.160000
     11 CAI        -4.8980   -0.4250    1.8190 ca        1 0OP     -0.202000
     12 CAE        -6.2530   -0.7200    1.9690 ca        1 0OP     -0.099000
     13 CAH        -6.7470   -1.9830    1.6580 ca        1 0OP     -0.135000
     14 CAO        -5.8810   -2.9770    1.1880 ca        1 0OP     -0.057300
     15 CAK        -6.3650   -4.3470    0.8430 c3        1 0OP      0.174700
     16 OAA        -7.7680   -4.4240    1.0540 oh        1 0OP     -0.598800
     17 H1         -0.7740   -1.4100   -0.3540 ha        1 0OP      0.139000
     18 H2          1.6920   -1.3770   -0.7630 ha        1 0OP      0.132500
     19 H3          3.1770    0.0270    0.6700 ha        1 0OP      0.132000
     20 H4          2.1970    1.3910    2.5160 ha        1 0OP      0.132500
     21 H5         -0.2580    1.3530    2.9310 ha        1 0OP      0.139000
     22 H6         -2.3630    0.1760    2.6350 h1        1 0OP      0.048200
     23 H7         -2.6120    0.8200    0.9320 h1        1 0OP      0.048200
     24 H8         -3.8250   -3.4700    0.6640 ha        1 0OP      0.146000
     25 H9         -4.5280    0.5780    2.0690 ha        1 0OP      0.136000
     26 H10        -6.9370    0.0590    2.3390 ha        1 0OP      0.133000
     27 H11        -7.8180   -2.2100    1.7780 ha        1 0OP      0.155000
     28 H12        -6.1330   -4.5700   -0.2360 h1        1 0OP      0.034200
     29 H13        -5.8440   -5.1060    1.4900 h1        1 0OP      0.034200
     30 H14        -8.0250   -5.3230    0.8200 ho        1 0OP      0.403000
@<TRIPOS>BOND
     1    1    2 ar  
     2    1    6 ar  
     3    1   17 1   
     4    2    3 ar  
     5    2   18 1   
     6    3    4 ar  
     7    3   19 1   
     8    4    5 ar  
     9    4   20 1   
    10    5    6 ar  
    11    5   21 1   
    12    6    7 1   
    13    7    8 1   
    14    7   22 1   
    15    7   23 1   
    16    8    9 1   
    17    9   10 ar  
    18    9   11 ar  
    19   10   14 ar  
    20   10   24 1   
    21   11   12 ar  
    22   11   25 1   
    23   12   13 ar  
    24   12   26 1   
    25   13   14 ar  
    26   13   27 1   
    27   14   15 1   
    28   15   16 1   
    29   15   28 1   
    30   15   29 1   
    31   16   30 1   
@<TRIPOS>SUBSTRUCTURE
     1 0OP         1 TEMP              0 ****  ****    0 ROOT
