@<TRIPOS>MOLECULE
0OQ
   43    46     1     0     0
SMALL
bcc


@<TRIPOS>ATOM
      1 OAB         0.1390   -0.0790    0.3980 o         1 0OQ     -0.658500
      2 CAU         1.3860   -0.0970    0.3200 c         1 0OQ      0.683700
      3 CAL         2.2830   -0.1660    1.4700 cc        1 0OQ     -0.258200
      4 CAF         3.6290   -0.2250    1.3030 cd        1 0OQ     -0.030000
      5 CAG         4.1850   -0.2420   -0.0090 cd        1 0OQ     -0.245000
      6 CAT         3.3570   -0.1710   -1.1090 cc        1 0OQ      0.071400
      7 NAY         1.9820   -0.0560   -0.9680 n         1 0OQ     -0.339000
      8 CAP         1.1080    0.2140   -2.0960 c3        1 0OQ      0.083000
      9 CAV         1.7210   -0.0210   -3.4760 c3        1 0OQ     -0.099700
     10 CAN         1.7120   -1.5110   -3.8590 c3        1 0OQ      0.089000
     11 CAM         3.1450    0.5090   -3.5020 c3        1 0OQ     -0.079400
     12 CAW         3.9490   -0.2930   -2.4910 c3        1 0OQ     -0.056500
     13 CAO         3.9500   -1.7790   -2.9140 c3        1 0OQ      0.087000
     14 NAX         2.6220   -2.3270   -3.0910 n         1 0OQ     -0.461800
     15 CAQ         2.1890   -3.3670   -2.2700 c         1 0OQ      0.669700
     16 OAA         2.9960   -3.9760   -1.5430 o         1 0OQ     -0.576100
     17 CAR         0.7550   -3.7870   -2.3350 ca        1 0OQ     -0.104600
     18 CAH         0.3830   -4.8260   -3.1930 ca        1 0OQ     -0.107000
     19 CAJ        -0.9390   -5.2680   -3.2130 ca        1 0OQ     -0.083500
     20 CAS        -1.8800   -4.6700   -2.3720 ca        1 0OQ     -0.158300
     21 CAZ        -3.3220   -5.1650   -2.3840 c3        1 0OQ      0.686200
     22 FAD        -3.7440   -5.6590   -3.5950 f         1 0OQ     -0.235300
     23 FAE        -3.5730   -6.1870   -1.5000 f         1 0OQ     -0.235300
     24 FAC        -4.2560   -4.2100   -2.0670 f         1 0OQ     -0.235300
     25 CAK        -1.5100   -3.6360   -1.5100 ca        1 0OQ     -0.083500
     26 CAI        -0.1880   -3.1920   -1.4910 ca        1 0OQ     -0.107000
     27 H1          1.7930   -0.1660    2.4530 ha        1 0OQ      0.165000
     28 H2          4.3120   -0.2720    2.1660 ha        1 0OQ      0.142000
     29 H3          5.2700   -0.3360   -0.1390 ha        1 0OQ      0.149000
     30 H4          0.1840   -0.4260   -1.9780 h1        1 0OQ      0.070200
     31 H5          0.7830    1.2940   -2.0220 h1        1 0OQ      0.070200
     32 H6          1.0880    0.5250   -4.2270 hc        1 0OQ      0.076700
     33 H7          2.0210   -1.5890   -4.9430 h1        1 0OQ      0.059700
     34 H8          0.6610   -1.9050   -3.7680 h1        1 0OQ      0.059700
     35 H9          3.1600    1.5980   -3.2410 hc        1 0OQ      0.058700
     36 H10         3.5870    0.3920   -4.5230 hc        1 0OQ      0.058700
     37 H11         5.0130    0.0650   -2.4670 hc        1 0OQ      0.082700
     38 H12         4.5100   -2.3850   -2.1450 h1        1 0OQ      0.074700
     39 H13         4.4910   -1.8580   -3.9000 h1        1 0OQ      0.074700
     40 H14         1.1330   -5.3010   -3.8440 ha        1 0OQ      0.161000
     41 H15        -1.2420   -6.0850   -3.8870 ha        1 0OQ      0.159500
     42 H16        -2.2590   -3.1710   -0.8480 ha        1 0OQ      0.159500
     43 H17         0.1040   -2.3780   -0.8030 ha        1 0OQ      0.161000
@<TRIPOS>BOND
     1    1    2 2   
     2    2    3 1   
     3    2    7 1   
     4    3    4 2   
     5    3   27 1   
     6    4    5 1   
     7    4   28 1   
     8    5    6 2   
     9    5   29 1   
    10    6    7 1   
    11    6   12 1   
    12    7    8 1   
    13    8    9 1   
    14    8   30 1   
    15    8   31 1   
    16    9   10 1   
    17    9   11 1   
    18    9   32 1   
    19   10   14 1   
    20   10   33 1   
    21   10   34 1   
    22   11   12 1   
    23   11   35 1   
    24   11   36 1   
    25   12   13 1   
    26   12   37 1   
    27   13   14 1   
    28   13   38 1   
    29   13   39 1   
    30   14   15 1   
    31   15   16 2   
    32   15   17 1   
    33   17   18 ar  
    34   17   26 ar  
    35   18   19 ar  
    36   18   40 1   
    37   19   20 ar  
    38   19   41 1   
    39   20   21 1   
    40   20   25 ar  
    41   21   22 1   
    42   21   23 1   
    43   21   24 1   
    44   25   26 ar  
    45   25   42 1   
    46   26   43 1   
@<TRIPOS>SUBSTRUCTURE
     1 0OQ         1 TEMP              0 ****  ****    0 ROOT
