@<TRIPOS>MOLECULE
0OQ
   43    38     1     0     0
SMALL
bcc


@<TRIPOS>ATOM
      1 OAB        -3.2750    3.0290    2.2720 o         1 0OQ     -0.365000
      2 CAU        -2.0610    2.9930    2.3030 c1        1 0OQ      0.320000
      3 CAL        -1.3400    3.0510    3.6250 c1        1 0OQ     -0.113250
      4 CAF         0.1140    2.9000    3.6680 c1        1 0OQ     -0.113250
      5 CAG         0.8660    2.7190    2.4200 c1        1 0OQ     -0.260000
      6 CAT         0.1270    2.7250    1.0780 c1        1 0OQ      0.073000
      7 NAY        -1.2890    2.9190    1.0410 n2        1 0OQ     -0.225000
      8 CAP        -1.7930    3.3150   -0.3300 c3        1 0OQ     -0.032000
      9 CAV        -1.3200    2.4380   -1.4090 c3        1 0OQ     -0.136000
     10 CAN        -1.9770    1.0630   -1.2480 c3        1 0OQ     -0.033000
     11 CAM         0.2130    2.2540   -1.3930 c3        1 0OQ     -0.158000
     12 CAW         0.6590    1.8230   -0.1320 c3        1 0OQ     -0.098000
     13 CAO         0.1680    0.3630    0.0890 c3        1 0OQ     -0.020000
     14 NAX        -0.9200    0.0370   -0.9180 n3        1 0OQ     -0.323000
     15 CAQ        -0.9450   -1.2380   -1.5520 c1        1 0OQ      0.343000
     16 OAA        -1.8160   -1.4990   -2.3580 o         1 0OQ     -0.341000
     17 CAR         0.0780   -2.2920   -1.1730 c1        1 0OQ     -0.114500
     18 CAH        -0.1580   -3.1280   -0.0920 c1        1 0OQ     -0.113250
     19 CAJ         0.7260   -4.1570    0.1950 c1        1 0OQ     -0.113250
     20 CAS         1.8460   -4.3520   -0.6000 c1        1 0OQ     -0.114500
     21 CAZ         2.7580   -5.5380   -0.3460 c2        1 0OQ      0.465000
     22 FAD         4.0210   -5.2010   -0.6350 f         1 0OQ     -0.163667
     23 FAE         2.3810   -6.5640   -1.1210 f         1 0OQ     -0.163667
     24 FAC         2.6750   -5.8980    0.9420 f         1 0OQ     -0.163667
     25 CAK         2.0830   -3.5170   -1.6800 c1        1 0OQ     -0.100500
     26 CAI         1.1980   -2.4860   -1.9670 c1        1 0OQ     -0.100500
     27 H1         -1.8440    3.1720    4.4530 ha        1 0OQ      0.156750
     28 H2          0.5860    2.9370    4.5230 ha        1 0OQ      0.156750
     29 H3          1.8360    2.6180    2.4440 ha        1 0OQ      0.147000
     30 H4         -2.7720    3.2980   -0.3200 h1        1 0OQ      0.115000
     31 H5         -1.4980    4.2280   -0.5190 h1        1 0OQ      0.115000
     32 H6         -1.5860    2.8190   -2.2680 hc        1 0OQ      0.117000
     33 H7         -2.6350    1.0980   -0.5250 h1        1 0OQ      0.110500
     34 H8         -2.4230    0.8150   -2.0840 h1        1 0OQ      0.110500
     35 H9          0.6400    3.1080   -1.6100 hc        1 0OQ      0.098500
     36 H10         0.4630    1.5870   -2.0670 hc        1 0OQ      0.098500
     37 H11         1.6370    1.8320   -0.1240 hc        1 0OQ      0.121000
     38 H12        -0.1880    0.2720    0.9950 h1        1 0OQ      0.099000
     39 H13         0.9180   -0.2550   -0.0310 h1        1 0OQ      0.099000
     40 H14        -0.9470   -2.9920    0.4670 ha        1 0OQ      0.156750
     41 H15         0.5590   -4.7460    0.9560 ha        1 0OQ      0.156750
     42 H16         2.8710   -3.6530   -2.2390 ha        1 0OQ      0.153000
     43 H17         1.3640   -1.8970   -2.7280 ha        1 0OQ      0.153000
@<TRIPOS>BOND
     1    1    2 1   
     2    2    7 1   
     3    3    4 1   
     4    3   27 1   
     5    4   28 1   
     6    5    6 1   
     7    5   29 1   
     8    6   12 1   
     9    7    8 1   
    10    8    9 1   
    11    8   30 1   
    12    8   31 1   
    13    9   10 1   
    14    9   11 1   
    15    9   32 1   
    16   10   14 1   
    17   10   33 1   
    18   10   34 1   
    19   11   12 1   
    20   11   35 1   
    21   11   36 1   
    22   12   13 1   
    23   12   37 1   
    24   13   14 1   
    25   13   38 1   
    26   13   39 1   
    27   14   15 1   
    28   15   16 1   
    29   17   26 1   
    30   18   19 1   
    31   18   40 1   
    32   19   41 1   
    33   20   25 1   
    34   21   22 1   
    35   21   23 1   
    36   21   24 1   
    37   25   42 1   
    38   26   43 1   
@<TRIPOS>SUBSTRUCTURE
     1 0OQ         1 TEMP              0 ****  ****    0 ROOT
