@<TRIPOS>MOLECULE
0OQ
   43    46     1     0     0
SMALL
bcc


@<TRIPOS>ATOM
      1 OAB         0.1150   -0.0670    0.3770 o         1 0OQ     -0.658500
      2 CAU         1.3620   -0.0850    0.3120 c         1 0OQ      0.683700
      3 CAL         2.2480   -0.1470    1.4700 cc        1 0OQ     -0.258200
      4 CAF         3.5960   -0.2050    1.3160 cd        1 0OQ     -0.030000
      5 CAG         4.1640   -0.2290    0.0100 cd        1 0OQ     -0.245000
      6 CAT         3.3460   -0.1640   -1.0990 cc        1 0OQ      0.071400
      7 NAY         1.9700   -0.0490   -0.9710 n         1 0OQ     -0.339000
      8 CAP         1.1070    0.2140   -2.1090 c3        1 0OQ      0.083000
      9 CAV         1.7330   -0.0280   -3.4820 c3        1 0OQ     -0.099700
     10 CAN         1.7290   -1.5200   -3.8570 c3        1 0OQ      0.089000
     11 CAM         3.1560    0.5040   -3.4970 c3        1 0OQ     -0.079400
     12 CAW         3.9520   -0.2930   -2.4740 c3        1 0OQ     -0.056500
     13 CAO         3.9580   -1.7810   -2.8890 c3        1 0OQ      0.087000
     14 NAX         2.6330   -2.3310   -3.0760 n         1 0OQ     -0.461800
     15 CAQ         2.1930   -3.3670   -2.2540 c         1 0OQ      0.669700
     16 OAA         2.9940   -3.9720   -1.5170 o         1 0OQ     -0.576100
     17 CAR         0.7610   -3.7890   -2.3310 ca        1 0OQ     -0.104600
     18 CAH         0.3980   -4.8330   -3.1870 ca        1 0OQ     -0.107000
     19 CAJ        -0.9230   -5.2780   -3.2170 ca        1 0OQ     -0.083500
     20 CAS        -1.8730   -4.6760   -2.3890 ca        1 0OQ     -0.158300
     21 CAZ        -3.3140   -5.1730   -2.4110 c3        1 0OQ      0.686200
     22 FAD        -3.7240   -5.6760   -3.6230 f         1 0OQ     -0.235300
     23 FAE        -3.5730   -6.1890   -1.5230 f         1 0OQ     -0.235300
     24 FAC        -4.2530   -4.2160   -2.1110 f         1 0OQ     -0.235300
     25 CAK        -1.5120   -3.6370   -1.5280 ca        1 0OQ     -0.083500
     26 CAI        -0.1910   -3.1910   -1.4990 ca        1 0OQ     -0.107000
     27 H1          1.7490   -0.1430    2.4490 ha        1 0OQ      0.165000
     28 H2          4.2700   -0.2480    2.1860 ha        1 0OQ      0.142000
     29 H3          5.2500   -0.3220   -0.1100 ha        1 0OQ      0.149000
     30 H4          0.7800    1.2930   -2.0440 h1        1 0OQ      0.070200
     31 H5          0.1820   -0.4260   -1.9970 h1        1 0OQ      0.070200
     32 H6          1.1070    0.5130   -4.2420 hc        1 0OQ      0.076700
     33 H7          2.0490   -1.6040   -4.9380 h1        1 0OQ      0.059700
     34 H8          0.6780   -1.9150   -3.7730 h1        1 0OQ      0.059700
     35 H9          3.6090    0.3810   -4.5130 hc        1 0OQ      0.058700
     36 H10         3.1680    1.5940   -3.2410 hc        1 0OQ      0.058700
     37 H11         5.0160    0.0670   -2.4420 hc        1 0OQ      0.082700
     38 H12         4.5120   -2.3810   -2.1120 h1        1 0OQ      0.074700
     39 H13         4.5090   -1.8640   -3.8700 h1        1 0OQ      0.074700
     40 H14         1.1550   -5.3120   -3.8280 ha        1 0OQ      0.161000
     41 H15        -1.2190   -6.0980   -3.8900 ha        1 0OQ      0.159500
     42 H16        -2.2680   -3.1700   -0.8760 ha        1 0OQ      0.159500
     43 H17         0.0930   -2.3730   -0.8130 ha        1 0OQ      0.161000
@<TRIPOS>BOND
     1    1    2 2   
     2    2    3 1   
     3    2    7 1   
     4    3    4 2   
     5    3   27 1   
     6    4    5 1   
     7    4   28 1   
     8    5    6 2   
     9    5   29 1   
    10    6    7 1   
    11    6   12 1   
    12    7    8 1   
    13    8    9 1   
    14    8   30 1   
    15    8   31 1   
    16    9   10 1   
    17    9   11 1   
    18    9   32 1   
    19   10   14 1   
    20   10   33 1   
    21   10   34 1   
    22   11   12 1   
    23   11   35 1   
    24   11   36 1   
    25   12   13 1   
    26   12   37 1   
    27   13   14 1   
    28   13   38 1   
    29   13   39 1   
    30   14   15 1   
    31   15   16 2   
    32   15   17 1   
    33   17   18 ar  
    34   17   26 ar  
    35   18   19 ar  
    36   18   40 1   
    37   19   20 ar  
    38   19   41 1   
    39   20   21 1   
    40   20   25 ar  
    41   21   22 1   
    42   21   23 1   
    43   21   24 1   
    44   25   26 ar  
    45   25   42 1   
    46   26   43 1   
@<TRIPOS>SUBSTRUCTURE
     1 0OQ         1 TEMP              0 ****  ****    0 ROOT
