@<TRIPOS>MOLECULE
0OQ
   43    46     1     0     0
SMALL
bcc


@<TRIPOS>ATOM
      1 OAB         1.2850    2.8850   -0.8070 o         1 0OQ     -0.658500
      2 CAU         2.2360    2.3170   -0.2300 c         1 0OQ      0.683700
      3 CAL         3.0420    2.9260    0.8240 cc        1 0OQ     -0.258200
      4 CAF         4.0360    2.2300    1.4340 cd        1 0OQ     -0.030000
      5 CAG         4.2900    0.8780    1.0640 cd        1 0OQ     -0.245000
      6 CAT         3.5460    0.2850    0.0660 cc        1 0OQ      0.071400
      7 NAY         2.5610    0.9890   -0.6120 n         1 0OQ     -0.339000
      8 CAP         1.8990    0.4550   -1.7890 c3        1 0OQ      0.083000
      9 CAV         2.0560   -1.0500   -2.0070 c3        1 0OQ     -0.099700
     10 CAN         1.0880   -1.8600   -1.1270 c3        1 0OQ      0.089000
     11 CAM         3.4880   -1.4640   -1.7140 c3        1 0OQ     -0.079400
     12 CAW         3.7550   -1.1760   -0.2450 c3        1 0OQ     -0.056500
     13 CAO         2.7920   -2.0220    0.6170 c3        1 0OQ      0.087000
     14 NAX         1.3980   -1.8260    0.2820 n         1 0OQ     -0.461800
     15 CAQ         0.5300   -1.2880    1.2300 c         1 0OQ      0.669700
     16 OAA         0.8800   -1.1830    2.4200 o         1 0OQ     -0.576100
     17 CAR        -0.8550   -0.9120    0.8080 ca        1 0OQ     -0.104600
     18 CAH        -1.8920   -1.8400    0.9520 ca        1 0OQ     -0.107000
     19 CAJ        -3.1960   -1.4760    0.6230 ca        1 0OQ     -0.083500
     20 CAS        -3.4570   -0.1870    0.1530 ca        1 0OQ     -0.158300
     21 CAZ        -4.8870    0.2140   -0.1920 c3        1 0OQ      0.686200
     22 FAD        -5.6750   -0.8200   -0.6380 f         1 0OQ     -0.235300
     23 FAE        -5.5930    0.7420    0.8620 f         1 0OQ     -0.235300
     24 FAC        -4.9910    1.1650   -1.1770 f         1 0OQ     -0.235300
     25 CAK        -2.4250    0.7430    0.0150 ca        1 0OQ     -0.083500
     26 CAI        -1.1180    0.3790    0.3420 ca        1 0OQ     -0.107000
     27 H1          2.7860    3.9650    1.0750 ha        1 0OQ      0.165000
     28 H2          4.6500    2.6850    2.2270 ha        1 0OQ      0.142000
     29 H3          5.0620    0.3050    1.5920 ha        1 0OQ      0.149000
     30 H4          0.8010    0.7140   -1.7150 h1        1 0OQ      0.070200
     31 H5          2.3150    0.9980   -2.6870 h1        1 0OQ      0.070200
     32 H6          1.7990   -1.2670   -3.0800 hc        1 0OQ      0.076700
     33 H7          0.0380   -1.4920   -1.3050 h1        1 0OQ      0.059700
     34 H8          1.1410   -2.9380   -1.4600 h1        1 0OQ      0.059700
     35 H9          3.6300   -2.5550   -1.9230 hc        1 0OQ      0.058700
     36 H10         4.1990   -0.8920   -2.3630 hc        1 0OQ      0.058700
     37 H11         4.8080   -1.4610    0.0230 hc        1 0OQ      0.082700
     38 H12         3.0400   -3.1090    0.4460 h1        1 0OQ      0.074700
     39 H13         2.9580   -1.7820    1.7060 h1        1 0OQ      0.074700
     40 H14        -1.6810   -2.8500    1.3340 ha        1 0OQ      0.161000
     41 H15        -4.0200   -2.2000    0.7300 ha        1 0OQ      0.159500
     42 H16        -2.6400    1.7590   -0.3540 ha        1 0OQ      0.159500
     43 H17        -0.3040    1.1190    0.2370 ha        1 0OQ      0.161000
@<TRIPOS>BOND
     1    1    2 2   
     2    2    3 1   
     3    2    7 1   
     4    3    4 2   
     5    3   27 1   
     6    4    5 1   
     7    4   28 1   
     8    5    6 2   
     9    5   29 1   
    10    6    7 1   
    11    6   12 1   
    12    7    8 1   
    13    8    9 1   
    14    8   30 1   
    15    8   31 1   
    16    9   10 1   
    17    9   11 1   
    18    9   32 1   
    19   10   14 1   
    20   10   33 1   
    21   10   34 1   
    22   11   12 1   
    23   11   35 1   
    24   11   36 1   
    25   12   13 1   
    26   12   37 1   
    27   13   14 1   
    28   13   38 1   
    29   13   39 1   
    30   14   15 1   
    31   15   16 2   
    32   15   17 1   
    33   17   18 ar  
    34   17   26 ar  
    35   18   19 ar  
    36   18   40 1   
    37   19   20 ar  
    38   19   41 1   
    39   20   21 1   
    40   20   25 ar  
    41   21   22 1   
    42   21   23 1   
    43   21   24 1   
    44   25   26 ar  
    45   25   42 1   
    46   26   43 1   
@<TRIPOS>SUBSTRUCTURE
     1 0OQ         1 TEMP              0 ****  ****    0 ROOT
