@<TRIPOS>MOLECULE
0OQ
   43    46     1     0     0
SMALL
bcc


@<TRIPOS>ATOM
      1 OAB         0.1160   -0.0560    0.3690 o         1 0OQ     -0.658500
      2 CAU         1.3640   -0.0740    0.3030 c         1 0OQ      0.683700
      3 CAL         2.2510   -0.1310    1.4610 cc        1 0OQ     -0.258200
      4 CAF         3.5990   -0.1890    1.3060 cd        1 0OQ     -0.030000
      5 CAG         4.1650   -0.2180   -0.0010 cd        1 0OQ     -0.245000
      6 CAT         3.3460   -0.1590   -1.1090 cc        1 0OQ      0.071400
      7 NAY         1.9700   -0.0440   -0.9800 n         1 0OQ     -0.339000
      8 CAP         1.1060    0.2130   -2.1190 c3        1 0OQ      0.083000
      9 CAV         1.7310   -0.0350   -3.4920 c3        1 0OQ     -0.099700
     10 CAN         1.7270   -1.5290   -3.8600 c3        1 0OQ      0.089000
     11 CAM         3.1540    0.4970   -3.5100 c3        1 0OQ     -0.079400
     12 CAW         3.9510   -0.2940   -2.4850 c3        1 0OQ     -0.056500
     13 CAO         3.9570   -1.7840   -2.8920 c3        1 0OQ      0.087000
     14 NAX         2.6320   -2.3360   -3.0750 n         1 0OQ     -0.461800
     15 CAQ         2.1930   -3.3680   -2.2480 c         1 0OQ      0.669700
     16 OAA         2.9950   -3.9690   -1.5090 o         1 0OQ     -0.576100
     17 CAR         0.7610   -3.7910   -2.3210 ca        1 0OQ     -0.104600
     18 CAH         0.3980   -4.8400   -3.1720 ca        1 0OQ     -0.107000
     19 CAJ        -0.9230   -5.2840   -3.1990 ca        1 0OQ     -0.083500
     20 CAS        -1.8730   -4.6790   -2.3720 ca        1 0OQ     -0.158300
     21 CAZ        -3.3130   -5.1770   -2.3910 c3        1 0OQ      0.686200
     22 FAD        -3.7240   -5.6850   -3.6000 f         1 0OQ     -0.235300
     23 FAE        -3.5710   -6.1890   -1.4980 f         1 0OQ     -0.235300
     24 FAC        -4.2520   -4.2190   -2.0940 f         1 0OQ     -0.235300
     25 CAK        -1.5110   -3.6360   -1.5170 ca        1 0OQ     -0.083500
     26 CAI        -0.1900   -3.1890   -1.4920 ca        1 0OQ     -0.107000
     27 H1          1.7520   -0.1220    2.4390 ha        1 0OQ      0.165000
     28 H2          4.2740   -0.2270    2.1750 ha        1 0OQ      0.142000
     29 H3          5.2520   -0.3120   -0.1210 ha        1 0OQ      0.149000
     30 H4          0.7790    1.2930   -2.0590 h1        1 0OQ      0.070200
     31 H5          0.1820   -0.4270   -2.0030 h1        1 0OQ      0.070200
     32 H6          1.1040    0.5020   -4.2530 hc        1 0OQ      0.076700
     33 H7          2.0460   -1.6180   -4.9400 h1        1 0OQ      0.059700
     34 H8          0.6760   -1.9240   -3.7730 h1        1 0OQ      0.059700
     35 H9          3.6060    0.3700   -4.5270 hc        1 0OQ      0.058700
     36 H10         3.1650    1.5890   -3.2600 hc        1 0OQ      0.058700
     37 H11         5.0140    0.0660   -2.4550 hc        1 0OQ      0.082700
     38 H12         4.5070   -1.8720   -3.8730 h1        1 0OQ      0.074700
     39 H13         4.5120   -2.3810   -2.1130 h1        1 0OQ      0.074700
     40 H14         1.1540   -5.3200   -3.8120 ha        1 0OQ      0.161000
     41 H15        -1.2200   -6.1080   -3.8670 ha        1 0OQ      0.159500
     42 H16        -2.2670   -3.1660   -0.8670 ha        1 0OQ      0.159500
     43 H17         0.0940   -2.3680   -0.8100 ha        1 0OQ      0.161000
@<TRIPOS>BOND
     1    1    2 2   
     2    2    3 1   
     3    2    7 1   
     4    3    4 2   
     5    3   27 1   
     6    4    5 1   
     7    4   28 1   
     8    5    6 2   
     9    5   29 1   
    10    6    7 1   
    11    6   12 1   
    12    7    8 1   
    13    8    9 1   
    14    8   30 1   
    15    8   31 1   
    16    9   10 1   
    17    9   11 1   
    18    9   32 1   
    19   10   14 1   
    20   10   33 1   
    21   10   34 1   
    22   11   12 1   
    23   11   35 1   
    24   11   36 1   
    25   12   13 1   
    26   12   37 1   
    27   13   14 1   
    28   13   38 1   
    29   13   39 1   
    30   14   15 1   
    31   15   16 2   
    32   15   17 1   
    33   17   18 ar  
    34   17   26 ar  
    35   18   19 ar  
    36   18   40 1   
    37   19   20 ar  
    38   19   41 1   
    39   20   21 1   
    40   20   25 ar  
    41   21   22 1   
    42   21   23 1   
    43   21   24 1   
    44   25   26 ar  
    45   25   42 1   
    46   26   43 1   
@<TRIPOS>SUBSTRUCTURE
     1 0OQ         1 TEMP              0 ****  ****    0 ROOT
