@<TRIPOS>MOLECULE
0OR
   40    39     1     0     0
SMALL
bcc


@<TRIPOS>ATOM
      1 O19         2.2800    3.7690   -0.2030 o         1 0OR     -0.951500
      2 P20         1.6960    2.6230   -0.9720 p5        1 0OR      1.461900
      3 O21         0.3730    2.9090   -1.6390 o         1 0OR     -0.951500
      4 O22         2.6650    1.8300   -1.7960 o         1 0OR     -0.951500
      5 O23         1.1510    1.4800    0.2980 os        1 0OR     -0.802800
      6 P24         0.3990    0.6080    1.3330 p5        1 0OR      1.586800
      7 O25         0.8620    0.6150    2.7430 o         1 0OR     -0.930000
      8 O26        -1.0830    0.6680    1.0830 o         1 0OR     -0.930000
      9 O27         0.7600   -0.9900    0.8410 os        1 0OR     -0.568200
     10 C28        -0.2780   -1.8840    0.7910 c3        1 0OR      0.231400
     11 C29        -0.6260   -2.3120   -0.6640 c3        1 0OR     -0.109000
     12 C30        -0.3680   -1.1670   -1.6350 c3        1 0OR     -0.083600
     13 C31         0.2750   -3.4790   -1.0510 c3        1 0OR     -0.083600
     14 C32        -2.0930   -2.7780   -0.7670 c3        1 0OR      0.082100
     15 O33        -2.2620   -4.1020   -0.2720 oh        1 0OR     -0.622800
     16 C34        -3.1320   -1.8810   -0.0650 c         1 0OR      0.628100
     17 O35        -3.9660   -2.4410    0.6930 o         1 0OR     -0.701100
     18 N36        -3.1900   -0.5480   -0.4020 n         1 0OR     -0.486900
     19 C37        -3.9230    0.3770    0.4410 c3        1 0OR      0.049000
     20 C38        -4.5450    1.5330   -0.3340 c3        1 0OR     -0.149400
     21 C39        -3.6140    2.3510   -1.2280 c         1 0OR      0.629100
     22 O40        -4.1560    2.9290   -2.2200 o         1 0OR     -0.768100
     23 N41        -2.3190    2.4990   -0.9090 n         1 0OR     -0.603000
     24 H4          0.0210   -2.8250    1.3480 h1        1 0OR     -0.004800
     25 H5         -1.1980   -1.4640    1.2900 h1        1 0OR     -0.004800
     26 H6          0.6630   -1.2410   -2.0590 hc        1 0OR      0.037700
     27 H7         -1.1010   -1.1640   -2.4750 hc        1 0OR      0.037700
     28 H8         -0.3950   -0.1790   -1.0910 hc        1 0OR      0.037700
     29 H9          1.3400   -3.1690   -0.9150 hc        1 0OR      0.037700
     30 H10         0.0730   -4.3700   -0.4090 hc        1 0OR      0.037700
     31 H11         0.1070   -3.7670   -2.1160 hc        1 0OR      0.037700
     32 H12        -2.3800   -2.8610   -1.8560 h1        1 0OR      0.060700
     33 H13        -2.2510   -4.0370    0.6910 ho        1 0OR      0.408000
     34 H14        -2.3090   -0.1530   -0.6990 hn        1 0OR      0.357500
     35 H15        -4.7520   -0.1820    0.9620 h1        1 0OR      0.075700
     36 H16        -3.2130    0.7870    1.2280 h1        1 0OR      0.075700
     37 H17        -5.3740    1.1570   -0.9870 hc        1 0OR      0.031200
     38 H18        -4.9900    2.2390    0.4160 hc        1 0OR      0.031200
     39 H19        -1.8960    1.9860   -0.1520 hn        1 0OR      0.384500
     40 H20        -1.6510    2.9460   -1.5270 hn        1 0OR      0.384500
@<TRIPOS>BOND
     1    1    2 1   
     2    2    3 1   
     3    2    4 1   
     4    2    5 1   
     5    5    6 1   
     6    6    7 1   
     7    6    8 1   
     8    6    9 1   
     9    9   10 1   
    10   10   11 1   
    11   10   24 1   
    12   10   25 1   
    13   11   12 1   
    14   11   13 1   
    15   11   14 1   
    16   12   26 1   
    17   12   27 1   
    18   12   28 1   
    19   13   29 1   
    20   13   30 1   
    21   13   31 1   
    22   14   15 1   
    23   14   16 1   
    24   14   32 1   
    25   15   33 1   
    26   16   17 2   
    27   16   18 1   
    28   18   19 1   
    29   18   34 1   
    30   19   20 1   
    31   19   35 1   
    32   19   36 1   
    33   20   21 1   
    34   20   37 1   
    35   20   38 1   
    36   21   22 2   
    37   21   23 1   
    38   23   39 1   
    39   23   40 1   
@<TRIPOS>SUBSTRUCTURE
     1 0OR         1 TEMP              0 ****  ****    0 ROOT
