@<TRIPOS>MOLECULE
0OR
   42    41     1     0     0
SMALL
bcc


@<TRIPOS>ATOM
      1 O19         0.0000    0.0000    0.0000 o         1 0OR     -0.358500
      2 P20         1.6090    0.0000    0.0000 p5        1 0OR      0.899900
      3 O21         2.1460    0.0000    1.5180 o         1 0OR     -0.358500
      4 O22         2.1020    1.2080   -0.6980 o         1 0OR     -0.358500
      5 O23         2.1470   -1.3150   -0.7580 os        1 0OR     -0.492800
      6 P24         2.3310   -1.7160   -2.3060 p5        1 0OR      0.964800
      7 O25         3.6870   -1.0590   -2.8740 o         1 0OR     -0.655000
      8 O26         1.1750   -1.2160   -3.0860 o         1 0OR     -0.655000
      9 O27         2.4150   -3.3190   -2.4390 os        1 0OR     -0.511200
     10 C28         2.4730   -3.9930   -3.6970 c3        1 0OR      0.318400
     11 C29         2.5450   -5.5030   -3.4630 c3        1 0OR     -0.114000
     12 C30         3.7960   -5.8340   -2.6480 c3        1 0OR      0.013900
     13 C31         1.3010   -5.9610   -2.6980 c3        1 0OR      0.013900
     14 C32         2.6080   -6.2250   -4.8110 c3        1 0OR      0.163100
     15 O33         1.3820   -6.0260   -5.5170 oh        1 0OR     -0.523800
     16 C34         3.7510   -5.6740   -5.6240 c         1 0OR      0.207100
     17 O35         3.5270   -5.0310   -6.6270 o         1 0OR     -0.488100
     18 N36         5.0230   -5.8960   -5.2350 ny        1 0OR      0.116200
     19 C37         6.1310   -5.2800   -5.9690 c3        1 0OR      0.004800
     20 C38         7.4580   -5.6890   -5.3270 c3        1 0OR      0.005600
     21 C39         8.5980   -5.0560   -6.0810 c         1 0OR     -0.138900
     22 O40         8.3710   -4.3460   -7.0390 o         1 0OR     -0.743100
     23 N41         9.8700   -5.2780   -5.6930 nz        1 0OR      0.353600
     24 H4          1.5860   -3.7590   -4.2740 h1        1 0OR     -0.005300
     25 H5          3.3530   -3.6700   -4.2400 h1        1 0OR     -0.005300
     26 H6          4.5190   -5.0350   -2.7550 hc        1 0OR      0.007200
     27 H7          4.2270   -6.7610   -3.0080 hc        1 0OR      0.007200
     28 H8          3.5290   -5.9420   -1.6040 hc        1 0OR      0.007200
     29 H9          1.3370   -5.5740   -1.6860 hc        1 0OR      0.007200
     30 H10         0.4140   -5.5880   -3.1950 hc        1 0OR      0.007200
     31 H11         1.2720   -7.0430   -2.6700 hc        1 0OR      0.007200
     32 H12         2.7610   -7.2850   -4.6460 h1        1 0OR     -0.009300
     33 H13         1.1880   -6.7910   -6.0320 ho        1 0OR      0.379000
     34 H14         5.1680   -6.8860   -5.2650 hn        1 0OR      0.225300
     35 H15         6.0310   -4.2010   -5.9360 hx        1 0OR      0.093700
     36 H16         6.1110   -5.6130   -7.0000 hx        1 0OR      0.093700
     37 H17         7.4780   -5.3570   -4.2960 hc        1 0OR     -0.023300
     38 H18         7.5580   -6.7680   -5.3610 hc        1 0OR     -0.023300
     39 H19        10.4970   -4.9570   -6.4040 hn        1 0OR      0.113800
     40 H20        10.0070   -6.2580   -5.5440 hn        1 0OR      0.113800
     41 H362        5.0950   -5.5890   -4.2850 hn        1 0OR      0.225300
     42 H413       10.0490   -4.7830   -4.8410 hn        1 0OR      0.113800
@<TRIPOS>BOND
     1    1    2 1   
     2    2    3 1   
     3    2    4 1   
     4    2    5 1   
     5    5    6 1   
     6    6    7 1   
     7    6    8 1   
     8    6    9 1   
     9    9   10 1   
    10   10   11 1   
    11   10   24 1   
    12   10   25 1   
    13   11   12 1   
    14   11   13 1   
    15   11   14 1   
    16   12   26 1   
    17   12   27 1   
    18   12   28 1   
    19   13   29 1   
    20   13   30 1   
    21   13   31 1   
    22   14   15 1   
    23   14   16 1   
    24   14   32 1   
    25   15   33 1   
    26   16   17 2   
    27   16   18 1   
    28   18   19 1   
    29   18   34 1   
    30   18   41 1   
    31   19   20 1   
    32   19   35 1   
    33   19   36 1   
    34   20   21 1   
    35   20   37 1   
    36   20   38 1   
    37   21   22 2   
    38   21   23 1   
    39   23   39 1   
    40   23   40 1   
    41   23   42 1   
@<TRIPOS>SUBSTRUCTURE
     1 0OR         1 TEMP              0 ****  ****    0 ROOT
