@<TRIPOS>MOLECULE
0OR
   40    39     1     0     0
SMALL
bcc


@<TRIPOS>ATOM
      1 O19         3.2630   -0.1170    0.1230 o         1 0OR     -0.944833
      2 P20         4.4050    0.7320   -0.3500 p5        1 0OR      1.443900
      3 O21         5.5570    0.8600    0.6040 o         1 0OR     -0.944833
      4 O22         4.7760    0.5620   -1.7920 o         1 0OR     -0.944833
      5 O23         3.7330    2.4230   -0.2980 os        1 0OR     -0.788800
      6 P24         3.3180    3.8950   -0.2010 p5        1 0OR      1.601800
      7 O25         2.5150    4.3600    0.9590 o         1 0OR     -0.936500
      8 O26         4.3850    4.8780   -0.6370 o         1 0OR     -0.936500
      9 O27         2.2070    4.1260   -1.4890 os        1 0OR     -0.556200
     10 C28         1.8520    5.4380   -1.6730 c3        1 0OR      0.240400
     11 C29         2.2190    5.9530   -3.0980 c3        1 0OR     -0.111000
     12 C30         3.4620    5.2420   -3.6080 c3        1 0OR     -0.092100
     13 C31         1.0480    5.6320   -4.0220 c3        1 0OR     -0.092100
     14 C32         2.4240    7.4790   -3.1230 c3        1 0OR      0.095100
     15 O33         1.5610    8.1910   -2.2520 oh        1 0OR     -0.625800
     16 C34         3.8750    7.9540   -2.8970 c         1 0OR      0.623100
     17 O35         4.3450    8.8060   -3.6960 o         1 0OR     -0.706100
     18 N36         4.5600    7.5300   -1.7880 n         1 0OR     -0.538900
     19 C37         5.9430    7.8810   -1.6050 c3        1 0OR      0.102000
     20 C38         6.9610    6.9930   -2.3310 c3        1 0OR     -0.170400
     21 C39         7.8330    6.2120   -1.3610 c         1 0OR      0.641100
     22 O40         9.0560    6.5170   -1.2370 o         1 0OR     -0.752100
     23 N41         7.2720    5.2050   -0.6590 n         1 0OR     -0.622000
     24 H4          2.3430    6.0890   -0.8930 h1        1 0OR     -0.008800
     25 H5          0.7310    5.5520   -1.5620 h1        1 0OR     -0.008800
     26 H6          4.0230    5.8780   -4.3340 hc        1 0OR      0.036533
     27 H7          4.1210    4.9570   -2.7380 hc        1 0OR      0.036533
     28 H8          3.1740    4.2860   -4.1090 hc        1 0OR      0.036533
     29 H9          1.3160    5.8320   -5.0880 hc        1 0OR      0.036533
     30 H10         0.7850    4.5530   -3.9090 hc        1 0OR      0.036533
     31 H11         0.1600    6.2540   -3.7560 hc        1 0OR      0.036533
     32 H12         2.1400    7.8710   -4.1460 h1        1 0OR      0.058700
     33 H13         1.6730    7.8300   -1.3630 ho        1 0OR      0.420000
     34 H14         4.2820    6.6500   -1.3430 hn        1 0OR      0.409500
     35 H15         6.0940    8.9430   -1.9540 h1        1 0OR      0.042200
     36 H16         6.1390    7.8410   -0.4950 h1        1 0OR      0.042200
     37 H17         7.6360    7.6370   -2.9510 hc        1 0OR      0.062200
     38 H18         6.4450    6.2720   -3.0200 hc        1 0OR      0.062200
     39 H19         6.2880    4.9700   -0.7510 hn        1 0OR      0.358500
     40 H20         7.8300    4.6440   -0.0650 hn        1 0OR      0.358500
@<TRIPOS>BOND
     1    1    2 1   
     2    2    3 1   
     3    2    4 1   
     4    2    5 1   
     5    5    6 1   
     6    6    7 1   
     7    6    8 1   
     8    6    9 1   
     9    9   10 1   
    10   10   11 1   
    11   10   24 1   
    12   10   25 1   
    13   11   12 1   
    14   11   13 1   
    15   11   14 1   
    16   12   26 1   
    17   12   27 1   
    18   12   28 1   
    19   13   29 1   
    20   13   30 1   
    21   13   31 1   
    22   14   15 1   
    23   14   16 1   
    24   14   32 1   
    25   15   33 1   
    26   16   17 2   
    27   16   18 1   
    28   18   19 1   
    29   18   34 1   
    30   19   20 1   
    31   19   35 1   
    32   19   36 1   
    33   20   21 1   
    34   20   37 1   
    35   20   38 1   
    36   21   22 2   
    37   21   23 1   
    38   23   39 1   
    39   23   40 1   
@<TRIPOS>SUBSTRUCTURE
     1 0OR         1 TEMP              0 ****  ****    0 ROOT
