@<TRIPOS>MOLECULE
0OS
   76    68     1     0     0
SMALL
bcc


@<TRIPOS>ATOM
      1 CBM        -6.0030    0.2970   -2.1580 c1        1 0OS      0.030000
      2 CAQ        -4.5930    0.3890   -2.0740 c1        1 0OS     -0.113000
      3 CBL        -6.7380   -0.0860   -1.0500 c1        1 0OS      0.030000
      4 CAN        -6.0920   -0.3780    0.1430 c1        1 0OS     -0.150500
      5 CAM        -4.6780   -0.2850    0.2260 c1        1 0OS     -0.150500
      6 CBI        -3.9460    0.0970   -0.8810 c1        1 0OS     -0.079000
      7 CAV        -2.3910    0.0410   -0.8430 c2        1 0OS     -0.135000
      8 CAY        -1.8470    1.2190   -0.0030 c3        1 0OS     -0.165000
      9 CBO        -0.3560    1.1630    0.0190 c3        1 0OS      0.079000
     10 CBK         0.1950    2.5520    0.1500 c1        1 0OS     -0.074000
     11 CAP         0.6920    3.2070   -0.9680 c1        1 0OS     -0.164000
     12 CAL         0.2790    3.1470    1.3940 c1        1 0OS     -0.172000
     13 CAJ         0.8610    4.4000    1.5240 c1        1 0OS     -0.150500
     14 CAK         1.3560    5.0520    0.4070 c1        1 0OS     -0.150500
     15 CBJ         1.2710    4.4540   -0.8370 c1        1 0OS      0.113000
     16 OBD         0.0860    0.3510    1.1470 os        1 0OS     -0.251000
     17 C           1.3800   -0.3120    0.9360 c2        1 0OS      0.305000
     18 O           1.7950   -0.4780   -0.1750 o         1 0OS     -0.370000
     19 CA          2.2000   -0.7880    2.1370 c3        1 0OS      0.057000
     20 CB          3.1020    0.3440    2.7060 c3        1 0OS     -0.173000
     21 CAT         3.9830   -0.1160    3.8030 c3        1 0OS     -0.155000
     22 CAU         4.7540   -1.2760    3.4460 c3        1 0OS     -0.173000
     23 CAZ         3.9170   -2.3910    2.8870 c3        1 0OS     -0.017000
     24 N           3.0460   -1.9590    1.7940 n3        1 0OS     -0.829000
     25 S1          2.5190   -3.0660    0.6730 s4        1 0OS      2.060800
     26 OAE         1.3010   -3.6690    1.0800 o         1 0OS     -0.538400
     27 OAF         2.1280   -2.4320   -0.5280 o         1 0OS     -0.538400
     28 CBN         3.8040   -4.3170    0.3690 c1        1 0OS     -0.795000
     29 CAR         3.4380   -5.6400    0.0030 c1        1 0OS     -0.024000
     30 CBG         4.4130   -6.5700   -0.2610 c1        1 0OS     -0.088000
     31 CL2         3.9570   -8.2820   -0.5740 cl        1 0OS      0.000500
     32 CAO         5.7490   -6.2190   -0.1720 c2        1 0OS     -0.067000
     33 CBH         6.1060   -4.9180    0.1880 c1        1 0OS     -0.084000
     34 CL1         7.8050   -4.4660    0.2920 cl        1 0OS      0.000500
     35 CAS         5.1200   -3.9720    0.4570 c2        1 0OS      0.001000
     36 H2         -4.0600    0.6670   -2.8800 ha        1 0OS      0.147000
     37 H5         -4.2330   -0.4860    1.0490 ha        1 0OS      0.141000
     38 H6         -2.1140   -0.7680   -0.4540 ha        1 0OS      0.106500
     39 H7         -2.0390    0.1010   -1.7680 ha        1 0OS      0.106500
     40 H8         -2.1260    2.0370   -0.3830 hc        1 0OS      0.100500
     41 H9         -2.1820    1.1520    0.8920 hc        1 0OS      0.100500
     42 H10        -0.0520    0.7880   -0.7660 h1        1 0OS      0.124000
     43 H11         0.6280    2.7590   -1.9040 ha        1 0OS      0.148000
     44 H12        -0.0130    2.6610    2.1870 ha        1 0OS      0.124000
     45 H13         0.9190    4.7990    2.3570 ha        1 0OS      0.141000
     46 H14         1.7660    5.9340    0.4980 ha        1 0OS      0.141000
     47 H16         1.5120   -1.0250    2.7510 h1        1 0OS      0.126000
     48 H17         3.6750    0.7100    1.9610 hc        1 0OS      0.115000
     49 H18         2.5200    1.0730    3.0510 hc        1 0OS      0.115000
     50 H19         4.6030    0.6180    4.0370 hc        1 0OS      0.092500
     51 H20         3.4170   -0.3340    4.6120 hc        1 0OS      0.092500
     52 H21         5.4380   -1.0120    2.7640 hc        1 0OS      0.089500
     53 H22         5.2040   -1.5940    4.2270 hc        1 0OS      0.089500
     54 H23         3.3330   -2.7790    3.6430 h1        1 0OS      0.092000
     55 H24         4.5130   -3.0990    2.5510 h1        1 0OS      0.092000
     56 H27         2.5120   -5.9080    0.0220 ha        1 0OS      0.169000
     57 H28         6.4200   -6.8800   -0.2910 ha        1 0OS      0.161000
     58 H29         5.6950   -3.1720    0.4200 ha        1 0OS      0.201000
     59 O1          1.7060    5.0170   -2.0160 os        1 0OS     -0.170000
     60 C2          1.4230    6.4370   -2.1320 c3        1 0OS     -0.113000
     61 H26         0.4610    6.5820   -2.0900 h1        1 0OS      0.061500
     62 H30         1.8310    6.8900   -1.4400 h1        1 0OS      0.061500
     63 C3          1.9620    6.9550   -3.4660 c2        1 0OS      0.346000
     64 O2          2.8800    7.8250   -3.4820 o         1 0OS     -0.554000
     65 O3          1.4630    6.5730   -4.5170 o         1 0OS     -0.554000
     66 O4         -8.1500   -0.0690   -1.1010 os        1 0OS     -0.214500
     67 C4         -8.7370   -1.3280   -0.9410 c3        1 0OS     -0.073000
     68 H3         -9.7510   -1.2180   -0.8040 h1        1 0OS      0.078667
     69 H4         -8.3540   -1.7660   -0.1760 h1        1 0OS      0.078667
     70 H15        -8.5760   -1.8620   -1.7310 h1        1 0OS      0.078667
     71 O5         -6.6740    0.8190   -3.3000 os        1 0OS     -0.214500
     72 C5         -7.1310   -0.1850   -4.2190 c3        1 0OS     -0.073000
     73 H1         -6.5870   -0.7520    0.8720 ha        1 0OS      0.141000
     74 H25        -6.3490   -0.6590   -4.6110 h1        1 0OS      0.078667
     75 H31        -7.6550    0.2460   -4.9470 h1        1 0OS      0.078667
     76 H32        -7.7110   -0.8410   -3.7330 h1        1 0OS      0.078667
@<TRIPOS>BOND
     1    1    3 1   
     2    1   71 1   
     3    2    6 1   
     4    2   36 1   
     5    3   66 1   
     6    4    5 1   
     7    4   73 1   
     8    5   37 1   
     9    7    8 1   
    10    7   38 1   
    11    7   39 1   
    12    8    9 1   
    13    8   40 1   
    14    8   41 1   
    15    9   10 1   
    16    9   16 1   
    17    9   42 1   
    18   10   12 1   
    19   11   15 1   
    20   11   43 1   
    21   12   44 1   
    22   13   14 1   
    23   13   45 1   
    24   14   46 1   
    25   15   59 1   
    26   16   17 1   
    27   17   18 1   
    28   17   19 1   
    29   19   20 1   
    30   19   24 1   
    31   19   47 1   
    32   20   21 1   
    33   20   48 1   
    34   20   49 1   
    35   21   22 1   
    36   21   50 1   
    37   21   51 1   
    38   22   23 1   
    39   22   52 1   
    40   22   53 1   
    41   23   24 1   
    42   23   54 1   
    43   23   55 1   
    44   24   25 1   
    45   25   26 1   
    46   25   27 1   
    47   28   35 1   
    48   29   30 1   
    49   29   56 1   
    50   30   32 1   
    51   32   33 1   
    52   32   57 1   
    53   33   35 1   
    54   35   58 1   
    55   59   60 1   
    56   60   61 1   
    57   60   62 1   
    58   60   63 1   
    59   63   64 1   
    60   63   65 1   
    61   66   67 1   
    62   67   68 1   
    63   67   69 1   
    64   67   70 1   
    65   71   72 1   
    66   72   74 1   
    67   72   75 1   
    68   72   76 1   
@<TRIPOS>SUBSTRUCTURE
     1 0OS         1 TEMP              0 ****  ****    0 ROOT
