@<TRIPOS>MOLECULE
0OS
   76    78     1     0     0
SMALL
bcc


@<TRIPOS>ATOM
      1 CBM         0.3960    0.0520    0.3060 ca        1 0OS      0.051000
      2 CAQ         1.6910    0.4930    0.0360 ca        1 0OS     -0.177000
      3 CBL         0.1960   -1.1020    1.1070 ca        1 0OS      0.042000
      4 CAN         1.2990   -1.7870    1.6180 ca        1 0OS     -0.181000
      5 CAM         2.5900   -1.3350    1.3430 ca        1 0OS     -0.123000
      6 CBI         2.7930   -0.2000    0.5570 ca        1 0OS     -0.059000
      7 CAV         4.1760    0.2620    0.2560 c3        1 0OS     -0.135000
      8 CAY         4.4660    1.6190    0.8660 c3        1 0OS     -0.166000
      9 CBO         5.9380    1.9920    0.7130 c3        1 0OS      0.079000
     10 CBK         6.1590    3.4690    0.8500 ca        1 0OS     -0.077000
     11 CAP         6.7060    4.1770   -0.2160 ca        1 0OS     -0.163000
     12 CAL         5.8110    4.1290    2.0360 ca        1 0OS     -0.173000
     13 CAJ         6.0070    5.5020    2.1450 ca        1 0OS     -0.102000
     14 CAK         6.5460    6.2320    1.0880 ca        1 0OS     -0.210000
     15 CBJ         6.8990    5.5720   -0.1000 ca        1 0OS      0.115000
     16 OBD         6.6740    1.3710    1.8060 os        1 0OS     -0.255000
     17 C           7.4180    0.2730    1.5490 c2        1 0OS      0.290000
     18 O           7.4160   -0.2640    0.4400 o         1 0OS     -0.356000
     19 CA          8.2630   -0.1340    2.7640 c3        1 0OS      0.043000
     20 CB          9.6480   -0.5290    2.2460 c3        1 0OS     -0.238000
     21 CAT        10.1550   -0.4640    5.5240 c1        1 0OS     -0.057000
     22 CAU         8.9760   -1.2760    5.7100 c3        1 0OS     -0.270000
     23 CAZ         7.6760   -0.8520    5.0210 c3        1 0OS     -0.056000
     24 N           7.6150   -1.1220    3.6010 n3        1 0OS     -0.816000
     25 S1          6.8030   -2.4580    3.0980 s6        1 0OS      2.837000
     26 OAE         6.3860   -3.1940    4.2340 o         1 0OS     -0.925500
     27 OAF         5.7830   -2.1160    2.1920 o         1 0OS     -0.925500
     28 CBN         7.9620   -3.3890    2.2840 ca        1 0OS     -0.802000
     29 CAR         8.7310   -4.3160    2.9970 ca        1 0OS     -0.011500
     30 CBG         9.6370   -5.1410    2.3290 ca        1 0OS     -0.085000
     31 CL2        10.5670   -6.2600    3.2050 cl        1 0OS      0.007000
     32 CAO         9.7860   -5.0570    0.9400 ca        1 0OS     -0.064000
     33 CBH         9.0140   -4.1330    0.2310 ca        1 0OS     -0.085000
     34 CL1         9.1810   -4.0240   -1.4530 cl        1 0OS      0.007000
     35 CAS         8.1080   -3.3000    0.8960 ca        1 0OS     -0.011500
     36 H2          1.8640    1.3840   -0.5840 ha        1 0OS      0.142000
     37 H5          3.4620   -1.8800    1.7470 ha        1 0OS      0.164000
     38 H6          4.3130    0.3170   -0.8580 hc        1 0OS      0.106000
     39 H7          4.9240   -0.4850    0.6470 hc        1 0OS      0.106000
     40 H8          4.1990    1.6180    1.9550 hc        1 0OS      0.100000
     41 H9          3.8460    2.4060    0.3640 hc        1 0OS      0.100000
     42 H10         6.3420    1.6150   -0.2690 h1        1 0OS      0.126000
     43 H11         6.9940    3.6800   -1.1530 ha        1 0OS      0.150000
     44 H12         5.3910    3.5530    2.8720 ha        1 0OS      0.123000
     45 H13         5.7330    6.0200    3.0760 ha        1 0OS      0.117000
     46 H14         6.6940    7.3170    1.1860 ha        1 0OS      0.145000
     47 H16         8.3930    0.8170    3.3750 h1        1 0OS      0.134000
     48 H17        10.1000    0.3520    1.7290 hc        1 0OS      0.098333
     49 H18         9.5800   -1.3700    1.5140 hc        1 0OS      0.098333
     50 H19        10.0210    0.5090    5.0240 ha        1 0OS      0.045000
     51 H20        10.3130   -0.8330    3.0910 hc        1 0OS      0.098333
     52 H21         9.2360   -2.3420    5.4440 hc        1 0OS      0.150500
     53 H22         8.7980   -1.2780    6.8300 hc        1 0OS      0.150500
     54 H23         6.8180   -1.3930    5.5220 h1        1 0OS      0.110000
     55 H24         7.5160    0.2510    5.2000 h1        1 0OS      0.110000
     56 H27         8.6010   -4.4050    4.0910 ha        1 0OS      0.184000
     57 H28        10.5020   -5.7100    0.4140 ha        1 0OS      0.164000
     58 H29         7.5050   -2.5610    0.3270 ha        1 0OS      0.184000
     59 O1          7.4380    6.1750   -1.2020 os        1 0OS     -0.169000
     60 C2          7.6620    7.5880   -1.1090 c3        1 0OS     -0.113000
     61 H26         6.6840    8.1070   -0.9470 h1        1 0OS      0.061000
     62 H30         8.3650    7.7980   -0.2640 h1        1 0OS      0.061000
     63 C3          8.2950    8.0380   -2.4610 c2        1 0OS      0.347000
     64 O2          9.5510    8.0210   -2.5340 o         1 0OS     -0.552000
     65 O3          7.5040    8.4440   -3.3510 o         1 0OS     -0.552000
     66 O4         -1.1250   -1.4580    1.3180 os        1 0OS     -0.193000
     67 C4         -1.3300   -2.6200    2.1090 c3        1 0OS     -0.076000
     68 H3         -0.9180   -2.4790    3.1380 h1        1 0OS      0.077333
     69 H4         -0.8700   -3.5170    1.6270 h1        1 0OS      0.077333
     70 H15        -2.4450   -2.7200    2.1420 h1        1 0OS      0.077333
     71 O5         -0.7560    0.6590   -0.1590 os        1 0OS     -0.196000
     72 C5         -0.5650    1.8440   -0.9230 c3        1 0OS     -0.078000
     73 H1          1.1630   -2.6830    2.2390 ha        1 0OS      0.133000
     74 H25         0.0040    1.6230   -1.8590 h1        1 0OS      0.082000
     75 H31        -1.6090    2.1670   -1.1650 h1        1 0OS      0.082000
     76 H32        -0.0400    2.6250   -0.3220 h1        1 0OS      0.082000
@<TRIPOS>BOND
     1    1    2 1   
     2    1    3 1   
     3    1   71 1   
     4    2    6 1   
     5    2   36 1   
     6    3    4 1   
     7    3   66 1   
     8    4    5 1   
     9    4   73 1   
    10    5    6 1   
    11    5   37 1   
    12    6    7 1   
    13    7    8 1   
    14    7   38 1   
    15    7   39 1   
    16    8    9 1   
    17    8   40 1   
    18    8   41 1   
    19    9   10 1   
    20    9   16 1   
    21    9   42 1   
    22   10   11 1   
    23   10   12 1   
    24   11   15 1   
    25   11   43 1   
    26   12   13 1   
    27   12   44 1   
    28   13   14 1   
    29   13   45 1   
    30   14   15 1   
    31   14   46 1   
    32   15   59 1   
    33   16   17 1   
    34   17   18 1   
    35   17   19 1   
    36   19   20 1   
    37   19   24 1   
    38   19   47 1   
    39   20   48 1   
    40   20   49 1   
    41   20   51 1   
    42   21   22 1   
    43   21   50 1   
    44   22   23 1   
    45   22   52 1   
    46   22   53 1   
    47   23   24 1   
    48   23   54 1   
    49   23   55 1   
    50   24   25 1   
    51   25   26 1   
    52   25   27 1   
    53   25   28 1   
    54   28   29 1   
    55   28   35 1   
    56   29   30 1   
    57   29   56 1   
    58   30   31 1   
    59   30   32 1   
    60   32   33 1   
    61   32   57 1   
    62   33   34 1   
    63   33   35 1   
    64   35   58 1   
    65   59   60 1   
    66   60   61 1   
    67   60   62 1   
    68   60   63 1   
    69   63   64 1   
    70   63   65 1   
    71   66   67 1   
    72   67   68 1   
    73   67   69 1   
    74   67   70 1   
    75   71   72 1   
    76   72   74 1   
    77   72   75 1   
    78   72   76 1   
@<TRIPOS>SUBSTRUCTURE
     1 0OS         1 TEMP              0 ****  ****    0 ROOT
