@<TRIPOS>MOLECULE
0OS
   76    79     1     0     0
SMALL
bcc


@<TRIPOS>ATOM
      1 CBM         5.1870    3.0900   -1.3310 ca        1 0OS      0.094100
      2 CAQ         4.3590    1.9690   -1.3020 ca        1 0OS     -0.177000
      3 CBL         4.7000    4.3400   -0.8670 ca        1 0OS      0.087100
      4 CAN         3.3940    4.4350   -0.3850 ca        1 0OS     -0.180000
      5 CAM         2.5750    3.3050   -0.3600 ca        1 0OS     -0.121000
      6 CBI         3.0490    2.0740   -0.8150 ca        1 0OS     -0.066300
      7 CAV         2.1610    0.8800   -0.7940 c3        1 0OS     -0.050100
      8 CAY         2.5880   -0.1240    0.2610 c3        1 0OS     -0.086400
      9 CBO         1.5220   -1.1970    0.4540 c3        1 0OS      0.197400
     10 CBK         2.0520   -2.4540    1.0780 ca        1 0OS     -0.083300
     11 CAP         1.5590   -3.6800    0.6380 ca        1 0OS     -0.162000
     12 CAL         3.0140   -2.4050    2.0950 ca        1 0OS     -0.172000
     13 CAJ         3.4860   -3.5870    2.6580 ca        1 0OS     -0.103000
     14 CAK         3.0070   -4.8240    2.2320 ca        1 0OS     -0.209000
     15 CBJ         2.0340   -4.8760    1.2210 ca        1 0OS      0.158100
     16 OBD         0.5360   -0.6730    1.3890 os        1 0OS     -0.413900
     17 C          -0.6760   -0.3050    0.9170 c         1 0OS      0.634100
     18 O          -0.9170   -0.2960   -0.2930 o         1 0OS     -0.557000
     19 CA         -1.6540   -0.0260    2.0590 c3        1 0OS      0.205500
     20 CB         -2.6700   -1.1870    2.0220 c3        1 0OS     -0.094400
     21 CAT        -3.7160   -1.0260    3.1000 c3        1 0OS     -0.075400
     22 CAU        -4.3690    0.3350    3.0090 c3        1 0OS     -0.094400
     23 CAZ        -3.3120    1.4380    3.0240 c3        1 0OS      0.219800
     24 N          -2.2700    1.2860    2.0290 n3        1 0OS     -0.808500
     25 S1         -1.8790    2.5740    1.1100 sy        1 0OS      1.505200
     26 OAE        -2.0610    3.7560    1.8690 o         1 0OS     -0.649300
     27 OAF        -0.6070    2.4150    0.5270 o         1 0OS     -0.649300
     28 CBN        -3.0620    2.5880   -0.1110 ca        1 0OS     -0.351500
     29 CAR        -4.2150    3.3650    0.0520 ca        1 0OS     -0.011500
     30 CBG        -5.1780    3.4130   -0.9560 ca        1 0OS     -0.007600
     31 CL2        -6.5770    4.3560   -0.7450 cl        1 0OS     -0.077400
     32 CAO        -5.0060    2.6930   -2.1430 ca        1 0OS     -0.067000
     33 CBH        -3.8500    1.9260   -2.3050 ca        1 0OS     -0.007600
     34 CL1        -3.6230    1.0530   -3.7420 cl        1 0OS     -0.077400
     35 CAS        -2.8820    1.8700   -1.2960 ca        1 0OS     -0.011500
     36 H2          4.7210    0.9930   -1.6570 ha        1 0OS      0.140000
     37 H5          1.5420    3.3810    0.0220 ha        1 0OS      0.165000
     38 H6          1.0990    1.1970   -0.5860 hc        1 0OS      0.067200
     39 H7          2.1720    0.3890   -1.8040 hc        1 0OS      0.067200
     40 H8          3.5470   -0.6190   -0.0430 hc        1 0OS      0.059700
     41 H9          2.7660    0.4010    1.2360 hc        1 0OS      0.059700
     42 H10         1.0190   -1.4290   -0.5280 h1        1 0OS      0.085700
     43 H11         0.8010   -3.7450   -0.1560 ha        1 0OS      0.150000
     44 H12         3.3880   -1.4340    2.4480 ha        1 0OS      0.124000
     45 H13         4.2450   -3.5460    3.4530 ha        1 0OS      0.118000
     46 H14         3.3870   -5.7490    2.6860 ha        1 0OS      0.144000
     47 H16        -1.0710   -0.1010    3.0320 h1        1 0OS      0.085700
     48 H17        -3.1570   -1.2270    1.0120 hc        1 0OS      0.073700
     49 H18        -2.1050   -2.1450    2.1700 hc        1 0OS      0.073700
     50 H19        -4.4900   -1.8300    2.9920 hc        1 0OS      0.051200
     51 H20        -3.2410   -1.1500    4.1090 hc        1 0OS      0.051200
     52 H21        -4.9820    0.4010    2.0740 hc        1 0OS      0.050200
     53 H22        -5.0550    0.4960    3.8800 hc        1 0OS      0.050200
     54 H23        -3.8180    2.4350    2.8630 h1        1 0OS      0.053700
     55 H24        -2.8310    1.4580    4.0460 h1        1 0OS      0.053700
     56 H27        -4.3470    3.9550    0.9780 ha        1 0OS      0.185000
     57 H28        -5.7700    2.7320   -2.9370 ha        1 0OS      0.161000
     58 H29        -1.9670    1.2570   -1.4360 ha        1 0OS      0.185000
     59 O1          1.4780   -6.0220    0.7250 os        1 0OS     -0.286900
     60 C2          1.8740   -7.2460    1.3560 c3        1 0OS     -0.012600
     61 H26         2.9630   -7.4200    1.1660 h1        1 0OS      0.021700
     62 H30         1.6700   -7.1870    2.4540 h1        1 0OS      0.021700
     63 C3          1.0180   -8.3840    0.7220 c         1 0OS      0.926600
     64 O2         -0.1700   -8.5030    1.1160 o         1 0OS     -0.818300
     65 O3          1.6080   -9.1400   -0.0930 o         1 0OS     -0.818300
     66 O4          5.5960    5.3920   -0.9410 os        1 0OS     -0.310900
     67 C4          5.1230    6.6380   -0.4480 c3        1 0OS      0.113700
     68 H3          4.2470    6.9950   -1.0430 h1        1 0OS      0.038700
     69 H4          4.8520    6.5620    0.6340 h1        1 0OS      0.038700
     70 H15         5.9980    7.3220   -0.5870 h1        1 0OS      0.038700
     71 O5          6.4900    3.0970   -1.7960 os        1 0OS     -0.312900
     72 C5          7.0050    1.8360   -2.2060 c3        1 0OS      0.111700
     73 H1          3.0000    5.3940   -0.0220 ha        1 0OS      0.134000
     74 H25         6.9900    1.1050   -1.3610 h1        1 0OS      0.041367
     75 H31         6.4300    1.4380   -3.0760 h1        1 0OS      0.041367
     76 H32         8.0580    2.0710   -2.5050 h1        1 0OS      0.041367
@<TRIPOS>BOND
     1    1    2 ar  
     2    1    3 ar  
     3    1   71 1   
     4    2    6 ar  
     5    2   36 1   
     6    3    4 ar  
     7    3   66 1   
     8    4    5 ar  
     9    4   73 1   
    10    5    6 ar  
    11    5   37 1   
    12    6    7 1   
    13    7    8 1   
    14    7   38 1   
    15    7   39 1   
    16    8    9 1   
    17    8   40 1   
    18    8   41 1   
    19    9   10 1   
    20    9   16 1   
    21    9   42 1   
    22   10   11 ar  
    23   10   12 ar  
    24   11   15 ar  
    25   11   43 1   
    26   12   13 ar  
    27   12   44 1   
    28   13   14 ar  
    29   13   45 1   
    30   14   15 ar  
    31   14   46 1   
    32   15   59 1   
    33   16   17 1   
    34   17   18 2   
    35   17   19 1   
    36   19   20 1   
    37   19   24 1   
    38   19   47 1   
    39   20   21 1   
    40   20   48 1   
    41   20   49 1   
    42   21   22 1   
    43   21   50 1   
    44   21   51 1   
    45   22   23 1   
    46   22   52 1   
    47   22   53 1   
    48   23   24 1   
    49   23   54 1   
    50   23   55 1   
    51   24   25 1   
    52   25   26 2   
    53   25   27 2   
    54   25   28 1   
    55   28   29 ar  
    56   28   35 ar  
    57   29   30 ar  
    58   29   56 1   
    59   30   31 1   
    60   30   32 ar  
    61   32   33 ar  
    62   32   57 1   
    63   33   34 1   
    64   33   35 ar  
    65   35   58 1   
    66   59   60 1   
    67   60   61 1   
    68   60   62 1   
    69   60   63 1   
    70   63   64 1   
    71   63   65 1   
    72   66   67 1   
    73   67   68 1   
    74   67   69 1   
    75   67   70 1   
    76   71   72 1   
    77   72   74 1   
    78   72   75 1   
    79   72   76 1   
@<TRIPOS>SUBSTRUCTURE
     1 0OS         1 TEMP              0 ****  ****    0 ROOT
