@<TRIPOS>MOLECULE
0OT
   51    43     1     0     0
SMALL
bcc


@<TRIPOS>ATOM
      1 CAA         1.3400   -6.1840   -4.8180 c3        1 0OT     -0.218000
      2 CAL         0.0190   -5.7920   -4.1640 c3        1 0OT     -0.020000
      3 OAT         0.2790   -5.0350   -2.9910 os        1 0OT     -0.226000
      4 CAY        -0.8520   -4.8860   -2.1370 c2        1 0OT      0.093000
      5 CAV        -1.5150   -6.0030   -1.6690 c1        1 0OT     -0.188000
      6 BR2        -0.9910   -7.7330   -2.2560 br        1 0OT      0.076000
      7 CAI        -2.5240   -5.8670   -0.7270 c1        1 0OT     -0.070000
      8 CAU        -2.8670   -4.6090   -0.2560 c1        1 0OT     -0.181000
      9 BR1        -4.2740   -4.4170    1.0410 br        1 0OT      0.068000
     10 CAJ        -2.2070   -3.4960   -0.7210 c1        1 0OT     -0.065000
     11 CAX        -1.1980   -3.6290   -1.6620 c1        1 0OT     -0.096000
     12 CAP        -0.4110   -2.4150   -2.0930 c2        1 0OT     -0.039000
     13 NAQ        -0.7740   -1.2820   -1.2530 n3        1 0OT     -0.305000
     14 CAN         0.3860   -0.3920   -1.0940 c3        1 0OT     -0.068000
     15 CAM        -0.0850    1.0190   -0.9870 c3        1 0OT     -0.205000
     16 CAO         0.2810    1.5840    0.3940 c3        1 0OT     -0.061000
     17 NAR         0.8720    2.9030    0.2400 n3        1 0OT     -0.283000
     18 CAW         0.6740    3.8810    1.2290 c1        1 0OT      0.193000
     19 CAK        -0.0200    5.1420    0.8900 c1        1 0OT     -0.371000
     20 CAZ        -0.0890    6.2140    1.8680 c1        1 0OT      0.320000
     21 OAB        -0.6830    7.2730    1.5910 o         1 0OT     -0.341000
     22 CBB         0.5530    6.0320    3.2530 c1        1 0OT     -0.179000
     23 CAH         0.4970    7.0670    4.1880 c1        1 0OT     -0.122250
     24 CAF         1.0860    6.9050    5.4490 c1        1 0OT     -0.122250
     25 CAE         1.7350    5.6970    5.7730 c1        1 0OT     -0.122250
     26 CAG         1.7900    4.6710    4.8480 c1        1 0OT     -0.122250
     27 CBA         1.1960    4.8330    3.5750 c1        1 0OT      0.107000
     28 NAS         1.2900    3.7180    2.5490 n2        1 0OT     -0.258000
     29 H1          1.2390   -7.0390   -5.2650 hc        1 0OT      0.089333
     30 H2          2.0350   -6.2540   -4.1330 hc        1 0OT      0.089333
     31 H3          1.5950   -5.5000   -5.4730 hc        1 0OT      0.089333
     32 H4         -0.4880   -6.6070   -3.9270 h1        1 0OT      0.077500
     33 H5         -0.4990   -5.2610   -4.7800 h1        1 0OT      0.077500
     34 H6         -2.9930   -6.6550   -0.3960 ha        1 0OT      0.163000
     35 H7         -2.4500   -2.6060   -0.3860 ha        1 0OT      0.168000
     36 H8         -0.6140   -2.2100   -3.0170 h4        1 0OT      0.092500
     37 H9          0.5300   -2.5930   -2.0030 h4        1 0OT      0.092500
     38 H10        -1.4900   -0.8010   -1.6590 hn        1 0OT      0.158000
     39 H12         0.8790   -0.6370   -0.2790 h1        1 0OT      0.070000
     40 H13         0.9770   -0.4820   -1.8730 h1        1 0OT      0.070000
     41 H14        -1.0650    1.0460   -1.1040 hc        1 0OT      0.099000
     42 H15         0.3480    1.5670   -1.6950 hc        1 0OT      0.099000
     43 H16         0.9480    0.9650    0.8490 h1        1 0OT      0.097000
     44 H17        -0.5430    1.6550    0.9530 h1        1 0OT      0.097000
     45 H18         1.3900    3.0940   -0.5010 hn        1 0OT      0.207000
     46 H19        -0.4600    5.2470    0.0090 ha        1 0OT      0.159000
     47 H21         0.0450    7.9100    3.9610 ha        1 0OT      0.142000
     48 H22         1.0470    7.6430    6.1150 ha        1 0OT      0.142000
     49 H23         2.1590    5.5800    6.6820 ha        1 0OT      0.142000
     50 H24         2.2540    3.8060    5.0830 ha        1 0OT      0.142000
     51 H11         1.6470    2.9330    2.7770 hn        1 0OT      0.243000
@<TRIPOS>BOND
     1    1    2 1   
     2    1   29 1   
     3    1   30 1   
     4    1   31 1   
     5    2    3 1   
     6    2   32 1   
     7    2   33 1   
     8    3    4 1   
     9    4    5 1   
    10    4   11 1   
    11    5    7 1   
    12    7   34 1   
    13    8    9 1   
    14    8   10 1   
    15   10   35 1   
    16   12   13 1   
    17   12   36 1   
    18   12   37 1   
    19   13   14 1   
    20   13   38 1   
    21   14   15 1   
    22   14   39 1   
    23   14   40 1   
    24   15   16 1   
    25   15   41 1   
    26   15   42 1   
    27   16   17 1   
    28   16   43 1   
    29   16   44 1   
    30   17   18 1   
    31   17   45 1   
    32   18   19 1   
    33   19   46 1   
    34   20   21 1   
    35   22   27 1   
    36   23   24 1   
    37   23   47 1   
    38   24   48 1   
    39   25   26 1   
    40   25   49 1   
    41   26   50 1   
    42   27   28 1   
    43   28   51 1   
@<TRIPOS>SUBSTRUCTURE
     1 0OT         1 TEMP              0 ****  ****    0 ROOT
