@<TRIPOS>MOLECULE
0OT
   53    55     1     0     0
SMALL
bcc


@<TRIPOS>ATOM
      1 CAA         0.2490    0.0570   -0.1110 c3        1 0OT     -0.107100
      2 CAL         1.7380    0.2830   -0.1700 c3        1 0OT      0.133400
      3 OAT         2.1850    0.4220    1.2040 os        1 0OT     -0.414900
      4 CAY         3.5380    0.2010    1.4030 ca        1 0OT      0.151100
      5 CAV         4.1340   -1.0680    1.3380 ca        1 0OT     -0.055900
      6 Br2         3.1920   -2.6270    0.9240 br        1 0OT      0.005900
      7 CAI         5.5020   -1.1840    1.6250 ca        1 0OT     -0.014000
      8 CAU         6.2610   -0.0700    2.0020 ca        1 0OT     -0.041900
      9 Br1         8.0790   -0.2540    2.3690 br        1 0OT      0.009900
     10 CAJ         5.6490    1.1820    2.1100 ca        1 0OT     -0.044000
     11 CAX         4.2930    1.3230    1.8110 ca        1 0OT     -0.218300
     12 CAP         3.6420    2.6580    1.8890 c3        1 0OT      0.200100
     13 NAQ         2.5580    2.6470    2.9440 ny        1 0OT     -0.774000
     14 CAN         1.9380    3.9840    3.1230 c3        1 0OT      0.105800
     15 CAM         0.8290    3.9950    4.1760 c3        1 0OT     -0.138400
     16 CAO         0.2870    5.4190    4.2850 c3        1 0OT      0.105800
     17 NAR        -0.7830    5.5610    5.3190 ny        1 0OT     -0.652800
     18 CAW        -1.1740    6.9980    5.4840 cc        1 0OT      0.153000
     19 CAK        -0.6470    7.6960    6.5260 cd        1 0OT     -0.208200
     20 CAZ        -0.9950    9.1270    6.7180 c         1 0OT      0.579900
     21 OAB        -0.5940    9.7230    7.7190 o         1 0OT     -0.458100
     22 CBB        -1.7950    9.7220    5.6450 ca        1 0OT     -0.194600
     23 CAH        -2.1010   11.0910    5.6880 ca        1 0OT     -0.034000
     24 CAF        -2.8770   11.6710    4.6910 ca        1 0OT     -0.122000
     25 CAE        -3.3610   10.8880    3.6400 ca        1 0OT     -0.053000
     26 CAG        -3.0740    9.5280    3.5730 ca        1 0OT     -0.154000
     27 CBA        -2.2770    8.9330    4.5740 ca        1 0OT      0.125600
     28 NAS        -1.9560    7.5520    4.4580 na        1 0OT     -0.593400
     29 H1         -0.2650    0.9090    0.3920 hc        1 0OT      0.059367
     30 H2          0.0140   -0.8810    0.4490 hc        1 0OT      0.059367
     31 H3         -0.1420   -0.0380   -1.1540 hc        1 0OT      0.059367
     32 H4          2.2640   -0.5720   -0.6670 h1        1 0OT      0.061700
     33 H5          1.9990    1.2400   -0.6950 h1        1 0OT      0.061700
     34 H6          5.9880   -2.1780    1.5580 ha        1 0OT      0.196000
     35 H7          6.2420    2.0620    2.4160 ha        1 0OT      0.163000
     36 H8          3.1420    2.9080    0.9070 hx        1 0OT      0.110700
     37 H9          4.3820    3.4650    2.1540 hx        1 0OT      0.110700
     38 H10         1.8460    1.9540    2.6520 hn        1 0OT      0.467800
     39 H12         1.5200    4.3070    2.1240 hx        1 0OT      0.116200
     40 H13         2.7520    4.7100    3.4160 hx        1 0OT      0.116200
     41 H14         1.2350    3.6550    5.1680 hc        1 0OT      0.088200
     42 H15         0.0080    3.2870    3.8800 hc        1 0OT      0.088200
     43 H16        -0.1440    5.7510    3.2950 hx        1 0OT      0.128200
     44 H17         1.1190    6.1330    4.5610 hx        1 0OT      0.128200
     45 H18        -0.4390    5.2260    6.2310 hn        1 0OT      0.464800
     46 H19         0.0550    7.2760    7.2650 ha        1 0OT      0.182000
     47 H21        -1.7170   11.6950    6.5300 ha        1 0OT      0.182000
     48 H22        -3.1140   12.7480    4.7320 ha        1 0OT      0.175000
     49 H23        -3.9820   11.3490    2.8520 ha        1 0OT      0.170000
     50 H24        -3.4700    8.9310    2.7360 ha        1 0OT      0.152000
     51 H11        -2.7220    6.9940    4.1280 hn        1 0OT      0.433800
     52 HAQ2        2.9630    2.3220    3.8300 hn        1 0OT      0.467800
     53 HAR2       -1.6010    4.9970    5.0580 hn        1 0OT      0.464800
@<TRIPOS>BOND
     1    1    2 1   
     2    1   29 1   
     3    1   30 1   
     4    1   31 1   
     5    2    3 1   
     6    2   32 1   
     7    2   33 1   
     8    3    4 1   
     9    4    5 ar  
    10    4   11 ar  
    11    5    6 1   
    12    5    7 ar  
    13    7    8 ar  
    14    7   34 1   
    15    8    9 1   
    16    8   10 ar  
    17   10   11 ar  
    18   10   35 1   
    19   11   12 1   
    20   12   13 1   
    21   12   36 1   
    22   12   37 1   
    23   13   14 1   
    24   13   38 1   
    25   13   52 1   
    26   14   15 1   
    27   14   39 1   
    28   14   40 1   
    29   15   16 1   
    30   15   41 1   
    31   15   42 1   
    32   16   17 1   
    33   16   43 1   
    34   16   44 1   
    35   17   18 1   
    36   17   45 1   
    37   17   53 1   
    38   18   19 2   
    39   18   28 1   
    40   19   20 1   
    41   19   46 1   
    42   20   21 2   
    43   20   22 1   
    44   22   23 ar  
    45   22   27 ar  
    46   23   24 ar  
    47   23   47 1   
    48   24   25 ar  
    49   24   48 1   
    50   25   26 ar  
    51   25   49 1   
    52   26   27 ar  
    53   26   50 1   
    54   27   28 1   
    55   28   51 1   
@<TRIPOS>SUBSTRUCTURE
     1 0OT         1 TEMP              0 ****  ****    0 ROOT
