@<TRIPOS>MOLECULE
0OT
   53    55     1     0     0
SMALL
bcc


@<TRIPOS>ATOM
      1 CAA        -0.0020   -0.8600    1.8190 c3        1 0OT     -0.107100
      2 CAL         1.2140   -0.5180    0.9970 c3        1 0OT      0.133400
      3 OAT         2.1520    0.1200    1.9020 os        1 0OT     -0.414900
      4 CAY         3.4690    0.1240    1.4710 ca        1 0OT      0.152100
      5 CAV         4.2790   -1.0210    1.4410 ca        1 0OT     -0.055900
      6 BR2         3.6760   -2.7190    1.9330 br        1 0OT      0.006900
      7 CAI         5.6200   -0.8870    1.0510 ca        1 0OT     -0.014000
      8 CAU         6.1580    0.3630    0.7270 ca        1 0OT     -0.041900
      9 BR1         7.9420    0.5080    0.2030 br        1 0OT      0.008900
     10 CAJ         5.3580    1.5060    0.8040 ca        1 0OT     -0.044000
     11 CAX         4.0160    1.3920    1.1720 ca        1 0OT     -0.218300
     12 CAP         3.1460    2.5980    1.2210 c3        1 0OT      0.200100
     13 NAQ         2.6560    2.8280    2.6340 n4        1 0OT     -0.774000
     14 CAN         1.8450    4.0660    2.7490 c3        1 0OT      0.105800
     15 CAM         1.3170    4.3090    4.1640 c3        1 0OT     -0.138400
     16 CAO         0.4890    5.5920    4.1520 c3        1 0OT      0.105800
     17 NAR        -0.1080    5.9150    5.4840 n4        1 0OT     -0.652800
     18 CAW        -1.0200    7.1000    5.3830 cc        1 0OT      0.153000
     19 CAK        -2.3580    6.8800    5.2910 cd        1 0OT     -0.209200
     20 CAZ        -3.2970    8.0250    5.1720 c         1 0OT      0.579900
     21 OAB        -4.5130    7.8220    5.1890 o         1 0OT     -0.458100
     22 CBB        -2.6630    9.3360    5.0200 ca        1 0OT     -0.194600
     23 CAH        -3.4620   10.4710    4.8130 ca        1 0OT     -0.034000
     24 CAF        -2.8810   11.7280    4.6870 ca        1 0OT     -0.122000
     25 CAE        -1.4940   11.8670    4.7690 ca        1 0OT     -0.052000
     26 CAG        -0.6770   10.7580    4.9740 ca        1 0OT     -0.154000
     27 CBA        -1.2570    9.4780    5.0920 ca        1 0OT      0.125600
     28 NAS        -0.3990    8.3540    5.2510 na        1 0OT     -0.593400
     29 H1          0.2630   -1.5730    2.6380 hc        1 0OT      0.059700
     30 H2         -0.4470    0.0560    2.2750 hc        1 0OT      0.059700
     31 H3         -0.7620   -1.3410    1.1550 hc        1 0OT      0.059700
     32 H4          1.6720   -1.4330    0.5420 h1        1 0OT      0.061700
     33 H5          0.9820    0.2270    0.1900 h1        1 0OT      0.061700
     34 H6          6.2640   -1.7880    1.0050 ha        1 0OT      0.196000
     35 H7          5.7810    2.4950    0.5580 ha        1 0OT      0.163000
     36 H8          2.2310    2.4480    0.5760 hx        1 0OT      0.110700
     37 H9          3.6990    3.5220    0.8860 hx        1 0OT      0.110700
     38 H10         3.4660    2.8750    3.2620 hn        1 0OT      0.468300
     39 H12         0.9800    3.9800    2.0270 hx        1 0OT      0.116200
     40 H13         2.4880    4.9370    2.4260 hx        1 0OT      0.116200
     41 H14         2.1750    4.4040    4.8850 hc        1 0OT      0.088200
     42 H15         0.6860    3.4390    4.4940 hc        1 0OT      0.088200
     43 H16        -0.3620    5.5010    3.4140 hx        1 0OT      0.128200
     44 H17         1.1300    6.4690    3.8400 hx        1 0OT      0.128200
     45 H18        -0.6690    5.1200    5.8210 hn        1 0OT      0.464800
     46 H19        -2.8260    5.8820    5.2860 ha        1 0OT      0.181000
     47 H21        -4.5590   10.3460    4.7580 ha        1 0OT      0.182000
     48 H22        -3.5160   12.6160    4.5260 ha        1 0OT      0.175000
     49 H23        -1.0340   12.8660    4.6750 ha        1 0OT      0.170000
     50 H24         0.4140   10.8940    5.0400 ha        1 0OT      0.152000
     51 H11         0.3810    8.5340    5.8560 hn        1 0OT      0.433800
     52 HAQ2        2.0940    2.0020    2.9060 hn        1 0OT      0.468300
     53 HAR2        0.6360    6.0960    6.1690 hn        1 0OT      0.464800
@<TRIPOS>BOND
     1    1    2 1   
     2    1   29 1   
     3    1   30 1   
     4    1   31 1   
     5    2    3 1   
     6    2   32 1   
     7    2   33 1   
     8    3    4 1   
     9    4    5 ar  
    10    4   11 ar  
    11    5    6 1   
    12    5    7 ar  
    13    7    8 ar  
    14    7   34 1   
    15    8    9 1   
    16    8   10 ar  
    17   10   11 ar  
    18   10   35 1   
    19   11   12 1   
    20   12   13 1   
    21   12   36 1   
    22   12   37 1   
    23   13   14 1   
    24   13   38 1   
    25   13   52 1   
    26   14   15 1   
    27   14   39 1   
    28   14   40 1   
    29   15   16 1   
    30   15   41 1   
    31   15   42 1   
    32   16   17 1   
    33   16   43 1   
    34   16   44 1   
    35   17   18 1   
    36   17   45 1   
    37   17   53 1   
    38   18   19 2   
    39   18   28 1   
    40   19   20 1   
    41   19   46 1   
    42   20   21 2   
    43   20   22 1   
    44   22   23 ar  
    45   22   27 ar  
    46   23   24 ar  
    47   23   47 1   
    48   24   25 ar  
    49   24   48 1   
    50   25   26 ar  
    51   25   49 1   
    52   26   27 ar  
    53   26   50 1   
    54   27   28 1   
    55   28   51 1   
@<TRIPOS>SUBSTRUCTURE
     1 0OT         1 TEMP              0 ****  ****    0 ROOT
