@<TRIPOS>MOLECULE
0OT
   53    55     1     0     0
SMALL
bcc


@<TRIPOS>ATOM
      1 CAA         0.2700    0.0720   -0.2160 c3        1 0OT     -0.107100
      2 CAL         1.7700    0.2240   -0.2130 c3        1 0OT      0.133400
      3 OAT         2.1640    0.3670    1.1760 os        1 0OT     -0.414900
      4 CAY         3.4930    0.0780    1.4390 ca        1 0OT      0.152100
      5 CAV         4.0230   -1.2210    1.4200 ca        1 0OT     -0.055900
      6 BR2         3.0180   -2.7360    0.9900 br        1 0OT      0.006900
      7 CAI         5.3690   -1.4030    1.7710 ca        1 0OT     -0.014000
      8 CAU         6.1680   -0.3240    2.1640 ca        1 0OT     -0.041900
      9 BR1         7.9570   -0.5970    2.6140 br        1 0OT      0.009900
     10 CAJ         5.6200    0.9600    2.2250 ca        1 0OT     -0.044000
     11 CAX         4.2880    1.1660    1.8630 ca        1 0OT     -0.218300
     12 CAP         3.7060    2.5350    1.8910 c3        1 0OT      0.200100
     13 NAQ         2.5780    2.5990    2.8970 n4        1 0OT     -0.774000
     14 CAN         2.0210    3.9690    3.0280 c3        1 0OT      0.105800
     15 CAM         0.8690    4.0550    4.0300 c3        1 0OT     -0.138400
     16 CAO         0.3980    5.5060    4.1020 c3        1 0OT      0.105800
     17 NAR        -0.6940    5.7160    5.0980 n4        1 0OT     -0.656800
     18 CAW        -0.9940    7.1740    5.2750 cc        1 0OT      0.165000
     19 CAK        -0.4340    7.8260    6.3300 cd        1 0OT     -0.220200
     20 CAZ        -0.7220    9.2650    6.5530 c         1 0OT      0.581900
     21 OAB        -0.0920    9.8900    7.4100 o         1 0OT     -0.464100
     22 CBB        -1.7770    9.8250    5.7070 ca        1 0OT     -0.195600
     23 CAH        -2.2330   11.1320    5.9370 ca        1 0OT     -0.033000
     24 CAF        -3.2260   11.6840    5.1360 ca        1 0OT     -0.124000
     25 CAE        -3.7740   10.9370    4.0900 ca        1 0OT     -0.051000
     26 CAG        -3.3410    9.6380    3.8370 ca        1 0OT     -0.157000
     27 CBA        -2.3430    9.0670    4.6530 ca        1 0OT      0.138600
     28 NAS        -1.9460    7.7260    4.4140 na        1 0OT     -0.603400
     29 H1         -0.2220    0.9580    0.2510 hc        1 0OT      0.059367
     30 H2         -0.0350   -0.8420    0.3490 hc        1 0OT      0.059367
     31 H3         -0.0810   -0.0230   -1.2730 hc        1 0OT      0.059367
     32 H4          2.2720   -0.6650   -0.6720 h1        1 0OT      0.061700
     33 H5          2.1000    1.1570   -0.7420 h1        1 0OT      0.061700
     34 H6          5.8040   -2.4220    1.7410 ha        1 0OT      0.197000
     35 H7          6.2450    1.8130    2.5440 ha        1 0OT      0.163000
     36 H8          3.2630    2.7930    0.8840 hx        1 0OT      0.110700
     37 H9          4.4760    3.3070    2.1760 hx        1 0OT      0.110700
     38 H10         1.8440    1.9380    2.5850 hn        1 0OT      0.468300
     39 H12         1.6670    4.2960    2.0060 hx        1 0OT      0.115200
     40 H13         2.8590    4.6570    3.3470 hx        1 0OT      0.115200
     41 H14         1.2130    3.7070    5.0430 hc        1 0OT      0.090200
     42 H15         0.0250    3.3870    3.7060 hc        1 0OT      0.090200
     43 H16         0.0150    5.8420    3.0950 hx        1 0OT      0.121200
     44 H17         1.2580    6.1800    4.3950 hx        1 0OT      0.121200
     45 H18        -0.4050    5.3480    6.0160 hn        1 0OT      0.469800
     46 H19         0.2180    7.3500    7.0800 ha        1 0OT      0.181000
     47 H21        -1.7860   11.7110    6.7660 ha        1 0OT      0.182000
     48 H22        -3.5810   12.7110    5.3250 ha        1 0OT      0.175000
     49 H23        -4.5620   11.3770    3.4540 ha        1 0OT      0.170000
     50 H24        -3.7920    9.0680    3.0100 ha        1 0OT      0.152000
     51 H11        -1.9430    7.4480    3.4550 hn        1 0OT      0.438800
     52 HAQ2        2.9270    2.2690    3.8060 hn        1 0OT      0.468300
     53 HAR2       -1.5440    5.2120    4.8070 hn        1 0OT      0.469800
@<TRIPOS>BOND
     1    1    2 1   
     2    1   29 1   
     3    1   30 1   
     4    1   31 1   
     5    2    3 1   
     6    2   32 1   
     7    2   33 1   
     8    3    4 1   
     9    4    5 ar  
    10    4   11 ar  
    11    5    6 1   
    12    5    7 ar  
    13    7    8 ar  
    14    7   34 1   
    15    8    9 1   
    16    8   10 ar  
    17   10   11 ar  
    18   10   35 1   
    19   11   12 1   
    20   12   13 1   
    21   12   36 1   
    22   12   37 1   
    23   13   14 1   
    24   13   38 1   
    25   13   52 1   
    26   14   15 1   
    27   14   39 1   
    28   14   40 1   
    29   15   16 1   
    30   15   41 1   
    31   15   42 1   
    32   16   17 1   
    33   16   43 1   
    34   16   44 1   
    35   17   18 1   
    36   17   45 1   
    37   17   53 1   
    38   18   19 2   
    39   18   28 1   
    40   19   20 1   
    41   19   46 1   
    42   20   21 2   
    43   20   22 1   
    44   22   23 ar  
    45   22   27 ar  
    46   23   24 ar  
    47   23   47 1   
    48   24   25 ar  
    49   24   48 1   
    50   25   26 ar  
    51   25   49 1   
    52   26   27 ar  
    53   26   50 1   
    54   27   28 1   
    55   28   51 1   
@<TRIPOS>SUBSTRUCTURE
     1 0OT         1 TEMP              0 ****  ****    0 ROOT
