@<TRIPOS>MOLECULE
0OT
   51    53     1     0     0
SMALL
bcc


@<TRIPOS>ATOM
      1 CAA         2.7010    4.2640    2.0340 c3        1 0OT     -0.100100
      2 CAL         3.2510    2.8580    2.0050 c3        1 0OT      0.129400
      3 OAT         3.0970    2.4010    0.6460 os        1 0OT     -0.336900
      4 CAY         3.5620    1.1110    0.4450 ca        1 0OT      0.149100
      5 CAV         4.8990    0.8770    0.0740 ca        1 0OT     -0.042900
      6 BR2         6.1700    2.2480   -0.0580 br        1 0OT     -0.060100
      7 CAI         5.3100   -0.4250   -0.2260 ca        1 0OT     -0.071000
      8 CAU         4.4060   -1.4860   -0.1490 ca        1 0OT     -0.035900
      9 BR1         4.9730   -3.2260   -0.5410 br        1 0OT     -0.073100
     10 CAJ         3.0790   -1.2510    0.2170 ca        1 0OT     -0.086000
     11 CAX         2.6470    0.0420    0.5140 ca        1 0OT     -0.093300
     12 CAP         1.2190    0.2790    0.9140 c3        1 0OT      0.211100
     13 NAQ         0.2650   -0.1060   -0.1080 n3        1 0OT     -0.818200
     14 CAN        -1.0990   -0.1330    0.3770 c3        1 0OT      0.168800
     15 CAM        -2.0860   -0.6370   -0.6750 c3        1 0OT     -0.095400
     16 CAO        -3.5010   -0.5580   -0.1010 c3        1 0OT      0.177800
     17 NAR        -4.5030   -1.0780   -1.0070 nh        1 0OT     -0.739000
     18 CAW        -5.8580   -0.7100   -0.8150 cc        1 0OT      0.361000
     19 CAK        -6.7160   -0.5990   -1.8920 cd        1 0OT     -0.390200
     20 CAZ        -8.1370   -0.3620   -1.7300 c         1 0OT      0.598900
     21 OAB        -8.9110   -0.2610   -2.6990 o         1 0OT     -0.579100
     22 CBB        -8.6100   -0.2460   -0.3380 ca        1 0OT     -0.198600
     23 CAH        -9.9690   -0.0380   -0.0640 ca        1 0OT     -0.043000
     24 CAF       -10.4220    0.0630    1.2430 ca        1 0OT     -0.176000
     25 CAE        -9.5160   -0.0430    2.3040 ca        1 0OT     -0.074000
     26 CAG        -8.1650   -0.2470    2.0670 ca        1 0OT     -0.198000
     27 CBA        -7.6900   -0.3470    0.7340 ca        1 0OT      0.186600
     28 NAS        -6.3260   -0.5150    0.4920 na        1 0OT     -0.626400
     29 H1          1.6280    4.2700    1.7270 hc        1 0OT      0.051033
     30 H2          2.7910    4.6710    3.0690 hc        1 0OT      0.051033
     31 H3          3.2700    4.9190    1.3310 hc        1 0OT      0.051033
     32 H4          4.3360    2.8350    2.2850 h1        1 0OT      0.038200
     33 H5          2.6750    2.1770    2.6850 h1        1 0OT      0.038200
     34 H6          6.3550   -0.6140   -0.5250 ha        1 0OT      0.164000
     35 H7          2.3670   -2.0900    0.2800 ha        1 0OT      0.147000
     36 H8          1.0450   -0.2690    1.8910 h1        1 0OT      0.048200
     37 H9          1.0610    1.3800    1.1120 h1        1 0OT      0.048200
     38 H10         0.5150   -0.9810   -0.5290 hn        1 0OT      0.361800
     39 H12        -1.2110   -0.7690    1.3070 h1        1 0OT      0.031200
     40 H13        -1.3740    0.9230    0.6640 h1        1 0OT      0.031200
     41 H14        -2.0090   -0.0110   -1.6020 hc        1 0OT      0.061200
     42 H15        -1.8430   -1.6950   -0.9560 hc        1 0OT      0.061200
     43 H16        -3.5430   -1.1760    0.8430 h1        1 0OT      0.041200
     44 H17        -3.7110    0.5150    0.1830 h1        1 0OT      0.041200
     45 H18        -4.2410   -1.0190   -1.9720 hn        1 0OT      0.417800
     46 H19        -6.3520   -0.7010   -2.9230 ha        1 0OT      0.160000
     47 H21       -10.6650    0.0410   -0.9170 ha        1 0OT      0.162000
     48 H22       -11.4900    0.2260    1.4480 ha        1 0OT      0.139000
     49 H23        -9.8780    0.0350    3.3400 ha        1 0OT      0.134000
     50 H24        -7.4680   -0.3280    2.9130 ha        1 0OT      0.132000
     51 H11        -5.7380   -0.7240    1.2660 hn        1 0OT      0.445800
@<TRIPOS>BOND
     1    1    2 1   
     2    1   29 1   
     3    1   30 1   
     4    1   31 1   
     5    2    3 1   
     6    2   32 1   
     7    2   33 1   
     8    3    4 1   
     9    4    5 ar  
    10    4   11 ar  
    11    5    6 1   
    12    5    7 ar  
    13    7    8 ar  
    14    7   34 1   
    15    8    9 1   
    16    8   10 ar  
    17   10   11 ar  
    18   10   35 1   
    19   11   12 1   
    20   12   13 1   
    21   12   36 1   
    22   12   37 1   
    23   13   14 1   
    24   13   38 1   
    25   14   15 1   
    26   14   39 1   
    27   14   40 1   
    28   15   16 1   
    29   15   41 1   
    30   15   42 1   
    31   16   17 1   
    32   16   43 1   
    33   16   44 1   
    34   17   18 1   
    35   17   45 1   
    36   18   19 2   
    37   18   28 1   
    38   19   20 1   
    39   19   46 1   
    40   20   21 2   
    41   20   22 1   
    42   22   23 ar  
    43   22   27 ar  
    44   23   24 ar  
    45   23   47 1   
    46   24   25 ar  
    47   24   48 1   
    48   25   26 ar  
    49   25   49 1   
    50   26   27 ar  
    51   26   50 1   
    52   27   28 1   
    53   28   51 1   
@<TRIPOS>SUBSTRUCTURE
     1 0OT         1 TEMP              0 ****  ****    0 ROOT
