@<TRIPOS>MOLECULE
0OU
   46    48     1     0     0
SMALL
bcc


@<TRIPOS>ATOM
      1 CAI         0.2060   -0.4760   -0.1350 ca        1 0OU     -0.106500
      2 CAS         1.5770   -0.2480    0.0280 ca        1 0OU      0.028400
      3 CL1         2.6550   -0.7570   -1.1660 cl        1 0OU     -0.006900
      4 CAH         2.0580    0.4030    1.1710 ca        1 0OU     -0.061000
      5 CAT         1.1550    0.8260    2.1560 ca        1 0OU      0.028400
      6 CL2         1.7240    1.6150    3.5340 cl        1 0OU     -0.006900
      7 CAJ        -0.2180    0.6030    2.0020 ca        1 0OU     -0.106500
      8 CAU        -0.6860   -0.0480    0.8560 ca        1 0OU     -0.191300
      9 CAO        -2.1470   -0.2370    0.6610 c3        1 0OU      0.186100
     10 NAP        -2.5830   -1.5640    1.2500 n4        1 0OU     -0.772000
     11 CAM        -4.0410   -1.7950    1.0750 c3        1 0OU      0.102800
     12 CAL        -4.5170   -3.1280    1.6560 c3        1 0OU     -0.138400
     13 CAN        -6.0180   -3.2500    1.3990 c3        1 0OU      0.105800
     14 NAQ        -6.5970   -4.5350    1.8950 n4        1 0OU     -0.651800
     15 CAV        -8.0360   -4.6580    1.4930 cc        1 0OU      0.151000
     16 CAK        -8.3410   -5.4170    0.4070 cd        1 0OU     -0.207200
     17 CAW        -9.7530   -5.5530   -0.0360 c         1 0OU      0.579900
     18 OAA       -10.0330   -6.3270   -0.9530 o         1 0OU     -0.456100
     19 CAY       -10.7110   -4.7030    0.6740 ca        1 0OU     -0.194600
     20 CAG       -12.0540   -4.6850    0.2660 ca        1 0OU     -0.034000
     21 CAE       -12.9840   -3.9000    0.9400 ca        1 0OU     -0.122000
     22 CAD       -12.5840   -3.1280    2.0330 ca        1 0OU     -0.053000
     23 CAF       -11.2590   -3.1280    2.4590 ca        1 0OU     -0.153000
     24 CAX       -10.3060   -3.9110    1.7740 ca        1 0OU      0.124600
     25 NAR        -8.9490   -3.8570    2.1990 na        1 0OU     -0.593400
     26 H1         -0.1630   -0.9640   -1.0510 ha        1 0OU      0.153500
     27 H2          3.1410    0.5890    1.2920 ha        1 0OU      0.198000
     28 H3         -0.9200    0.9650    2.7690 ha        1 0OU      0.153500
     29 H4         -2.4160   -0.2480   -0.4340 hx        1 0OU      0.114700
     30 H5         -2.7360    0.5730    1.1800 hx        1 0OU      0.114700
     31 H6         -2.0480   -2.3140    0.7940 hn        1 0OU      0.456800
     32 H8         -4.5890   -0.9420    1.5750 hx        1 0OU      0.119700
     33 H9         -4.2660   -1.7570   -0.0320 hx        1 0OU      0.119700
     34 H10        -4.3070   -3.1670    2.7600 hc        1 0OU      0.087700
     35 H11        -3.9670   -3.9790    1.1700 hc        1 0OU      0.087700
     36 H12        -6.5720   -2.4040    1.9040 hx        1 0OU      0.129200
     37 H13        -6.2300   -3.1910    0.2890 hx        1 0OU      0.129200
     38 H14        -6.0910   -5.3320    1.4840 hn        1 0OU      0.464800
     39 H15        -7.5990   -5.9540   -0.2060 ha        1 0OU      0.182000
     40 H17       -12.3560   -5.3080   -0.5960 ha        1 0OU      0.183000
     41 H18       -14.0380   -3.8930    0.6140 ha        1 0OU      0.176000
     42 H19       -13.3250   -2.5100    2.5700 ha        1 0OU      0.170000
     43 H20       -10.9690   -2.5140    3.3260 ha        1 0OU      0.153000
     44 H7         -8.8490   -3.8420    3.1980 hn        1 0OU      0.433800
     45 HAP2       -2.3390   -1.5730    2.2490 hn        1 0OU      0.456800
     46 HAQ2       -6.5070   -4.5900    2.9170 hn        1 0OU      0.464800
@<TRIPOS>BOND
     1    1    2 ar  
     2    1    8 ar  
     3    1   26 1   
     4    2    3 1   
     5    2    4 ar  
     6    4    5 ar  
     7    4   27 1   
     8    5    6 1   
     9    5    7 ar  
    10    7    8 ar  
    11    7   28 1   
    12    8    9 1   
    13    9   10 1   
    14    9   29 1   
    15    9   30 1   
    16   10   11 1   
    17   10   31 1   
    18   10   45 1   
    19   11   12 1   
    20   11   32 1   
    21   11   33 1   
    22   12   13 1   
    23   12   34 1   
    24   12   35 1   
    25   13   14 1   
    26   13   36 1   
    27   13   37 1   
    28   14   15 1   
    29   14   38 1   
    30   14   46 1   
    31   15   16 2   
    32   15   25 1   
    33   16   17 1   
    34   16   39 1   
    35   17   18 2   
    36   17   19 1   
    37   19   20 ar  
    38   19   24 ar  
    39   20   21 ar  
    40   20   40 1   
    41   21   22 ar  
    42   21   41 1   
    43   22   23 ar  
    44   22   42 1   
    45   23   24 ar  
    46   23   43 1   
    47   24   25 1   
    48   25   44 1   
@<TRIPOS>SUBSTRUCTURE
     1 0OU         1 TEMP              0 ****  ****    0 ROOT
