@<TRIPOS>MOLECULE
0OU
   44    37     1     0     0
SMALL
bcc


@<TRIPOS>ATOM
      1 CAI         3.1630    2.8580   -4.3230 c1        1 0OU     -0.120000
      2 CAS         3.9680    3.0140   -5.4320 c1        1 0OU     -0.064000
      3 CL1         3.2700    3.3490   -6.9520 cl        1 0OU     -0.005000
      4 CAH         5.3320    2.8430   -5.3250 c1        1 0OU     -0.120000
      5 CAT         5.8990    2.5120   -4.0970 c1        1 0OU     -0.057000
      6 CL2         7.6010    2.4140   -3.9410 cl        1 0OU     -0.003000
      7 CAJ         5.0900    2.3540   -2.9790 c1        1 0OU     -0.105000
      8 CAU         3.7310    2.5250   -3.0870 c1        1 0OU     -0.064000
      9 CAO         2.8190    2.3650   -1.8280 c2        1 0OU     -0.035000
     10 NAP         2.4030    1.0150   -1.7160 n3        1 0OU     -0.304000
     11 CAM         1.6040    0.8530   -0.5080 c3        1 0OU     -0.069000
     12 CAL         1.0070   -0.5290   -0.4800 c3        1 0OU     -0.175000
     13 CAN         0.3590   -0.7700    0.8500 c3        1 0OU     -0.059000
     14 NAQ        -0.9180   -1.6460    0.6430 n3        1 0OU     -0.294000
     15 CAV        -1.8800   -1.8210    1.7420 c2        1 0OU      0.197000
     16 CAK        -1.4710   -2.5120    2.9660 c1        1 0OU     -0.371000
     17 CAW        -2.4310   -2.7770    3.9880 c1        1 0OU      0.320000
     18 OAA        -2.1200   -3.4530    4.9540 o         1 0OU     -0.340000
     19 CAY        -3.8770   -2.3400    3.8000 c2        1 0OU     -0.178000
     20 CAG        -4.8190   -2.6210    4.7850 c2        1 0OU     -0.043000
     21 CAE        -6.1480   -2.2490    4.6090 c1        1 0OU     -0.175000
     22 CAD        -6.5440   -1.5840    3.4310 c1        1 0OU     -0.136000
     23 CAF        -5.6070   -1.3020    2.4480 c1        1 0OU     -0.136000
     24 CAX        -4.2630   -1.6810    2.6300 c1        1 0OU      0.105000
     25 NAR        -3.2660   -1.4060    1.5680 n2        1 0OU     -0.258000
     26 H1          2.1530    2.9850   -4.4050 ha        1 0OU      0.156500
     27 H2          5.9120    2.9560   -6.1240 ha        1 0OU      0.156500
     28 H3          5.4960    2.1170   -2.0980 ha        1 0OU      0.166000
     29 H4          3.3440    2.6360   -0.9850 h4        1 0OU      0.082500
     30 H5          2.0280    2.9420   -1.9220 h4        1 0OU      0.082500
     31 H6          1.8680    0.7800   -2.4890 hn        1 0OU      0.161000
     32 H8          2.1750    0.9810    0.2860 h1        1 0OU      0.071500
     33 H9          0.8650    1.5370   -0.5040 h1        1 0OU      0.071500
     34 H10         1.7050   -1.1880   -0.6230 hc        1 0OU      0.100000
     35 H11         0.3180   -0.6090   -1.2050 hc        1 0OU      0.100000
     36 H12         0.1030    0.1100    1.2660 h1        1 0OU      0.081000
     37 H13         0.9840   -1.2370    1.4380 h1        1 0OU      0.081000
     38 H14        -1.0570   -2.0720   -0.1640 hn        1 0OU      0.212000
     39 H15        -0.5750   -2.7540    3.0890 ha        1 0OU      0.160000
     40 H17        -4.5510   -3.0710    5.5870 ha        1 0OU      0.162000
     41 H18        -6.8370   -2.4600    5.3320 ha        1 0OU      0.139000
     42 H19        -7.4490   -1.3280    3.3110 ha        1 0OU      0.133000
     43 H20        -5.8870   -0.8280    1.6070 ha        1 0OU      0.133000
     44 H7         -3.4960   -0.9090    0.8600 hn        1 0OU      0.241000
@<TRIPOS>BOND
     1    1    8 1   
     2    1   26 1   
     3    2    4 1   
     4    4   27 1   
     5    5    6 1   
     6    5    7 1   
     7    7   28 1   
     8    9   10 1   
     9    9   29 1   
    10    9   30 1   
    11   10   11 1   
    12   10   31 1   
    13   11   12 1   
    14   11   32 1   
    15   11   33 1   
    16   12   13 1   
    17   12   34 1   
    18   12   35 1   
    19   13   14 1   
    20   13   36 1   
    21   13   37 1   
    22   14   15 1   
    23   14   38 1   
    24   15   16 1   
    25   15   25 1   
    26   16   39 1   
    27   17   18 1   
    28   17   19 1   
    29   19   20 1   
    30   19   24 1   
    31   20   21 1   
    32   20   40 1   
    33   21   41 1   
    34   22   23 1   
    35   22   42 1   
    36   23   43 1   
    37   25   44 1   
@<TRIPOS>SUBSTRUCTURE
     1 0OU         1 TEMP              0 ****  ****    0 ROOT
