@<TRIPOS>MOLECULE
0OU
   46    48     1     0     0
SMALL
bcc


@<TRIPOS>ATOM
      1 CAI         0.2050   -0.4910   -0.1660 ca        1 0OU     -0.106500
      2 CAS         1.5770   -0.2620   -0.0070 ca        1 0OU      0.028400
      3 Cl1         2.6530   -0.7820   -1.1970 cl        1 0OU     -0.006900
      4 CAH         2.0580    0.4000    1.1300 ca        1 0OU     -0.061000
      5 CAT         1.1570    0.8320    2.1110 ca        1 0OU      0.028400
      6 Cl2         1.7270    1.6330    3.4820 cl        1 0OU     -0.006900
      7 CAJ        -0.2160    0.6080    1.9610 ca        1 0OU     -0.106500
      8 CAU        -0.6850   -0.0550    0.8210 ca        1 0OU     -0.191300
      9 CAO        -2.1470   -0.2460    0.6300 c3        1 0OU      0.186100
     10 NAP        -2.5820   -1.5660    1.2330 ny        1 0OU     -0.772000
     11 CAM        -4.0410   -1.7990    1.0630 c3        1 0OU      0.102800
     12 CAL        -4.5160   -3.1250    1.6580 c3        1 0OU     -0.138400
     13 CAN        -6.0180   -3.2480    1.4050 c3        1 0OU      0.105800
     14 NAQ        -6.5970   -4.5290    1.9150 ny        1 0OU     -0.651800
     15 CAV        -8.0370   -4.6540    1.5190 cc        1 0OU      0.151000
     16 CAK        -8.3460   -5.4230    0.4410 cd        1 0OU     -0.207200
     17 CAW        -9.7590   -5.5610    0.0030 c         1 0OU      0.579900
     18 OAA       -10.0420   -6.3430   -0.9060 o         1 0OU     -0.456100
     19 CAY       -10.7140   -4.7040    0.7080 ca        1 0OU     -0.194600
     20 CAG       -12.0580   -4.6880    0.3040 ca        1 0OU     -0.034000
     21 CAE       -12.9860   -3.8970    0.9730 ca        1 0OU     -0.122000
     22 CAD       -12.5820   -3.1150    2.0580 ca        1 0OU     -0.053000
     23 CAF       -11.2550   -3.1120    2.4800 ca        1 0OU     -0.153000
     24 CAX       -10.3060   -3.9020    1.8000 ca        1 0OU      0.124600
     25 NAR        -8.9470   -3.8460    2.2200 na        1 0OU     -0.593400
     26 H1         -0.1650   -0.9880   -1.0770 ha        1 0OU      0.153500
     27 H2          3.1420    0.5870    1.2480 ha        1 0OU      0.198000
     28 H3         -0.9180    0.9770    2.7260 ha        1 0OU      0.153500
     29 H4         -2.4160   -0.2680   -0.4650 hx        1 0OU      0.114700
     30 H5         -2.7350    0.5700    1.1410 hx        1 0OU      0.114700
     31 H6         -2.0480   -2.3210    0.7840 hn        1 0OU      0.456800
     32 H8         -4.5870   -0.9400    1.5550 hx        1 0OU      0.119700
     33 H9         -4.2670   -1.7720   -0.0440 hx        1 0OU      0.119700
     34 H10        -4.3030   -3.1540    2.7610 hc        1 0OU      0.087700
     35 H11        -3.9680   -3.9820    1.1790 hc        1 0OU      0.087700
     36 H12        -6.5700   -2.3980    1.9040 hx        1 0OU      0.129200
     37 H13        -6.2320   -3.2000    0.2960 hx        1 0OU      0.129200
     38 H14        -6.0930   -5.3300    1.5100 hn        1 0OU      0.464800
     39 H15        -7.6060   -5.9660   -0.1700 ha        1 0OU      0.182000
     40 H17       -12.3640   -5.3190   -0.5510 ha        1 0OU      0.183000
     41 H18       -14.0410   -3.8920    0.6510 ha        1 0OU      0.176000
     42 H19       -13.3200   -2.4920    2.5920 ha        1 0OU      0.170000
     43 H20       -10.9620   -2.4900    3.3410 ha        1 0OU      0.153000
     44 H7         -8.8440   -3.8220    3.2190 hn        1 0OU      0.433800
     45 HAP2       -2.3370   -1.5660    2.2320 hn        1 0OU      0.456800
     46 HAQ2       -6.5030   -4.5740    2.9370 hn        1 0OU      0.464800
@<TRIPOS>BOND
     1    1    2 ar  
     2    1    8 ar  
     3    1   26 1   
     4    2    3 1   
     5    2    4 ar  
     6    4    5 ar  
     7    4   27 1   
     8    5    6 1   
     9    5    7 ar  
    10    7    8 ar  
    11    7   28 1   
    12    8    9 1   
    13    9   10 1   
    14    9   29 1   
    15    9   30 1   
    16   10   11 1   
    17   10   31 1   
    18   10   45 1   
    19   11   12 1   
    20   11   32 1   
    21   11   33 1   
    22   12   13 1   
    23   12   34 1   
    24   12   35 1   
    25   13   14 1   
    26   13   36 1   
    27   13   37 1   
    28   14   15 1   
    29   14   38 1   
    30   14   46 1   
    31   15   16 2   
    32   15   25 1   
    33   16   17 1   
    34   16   39 1   
    35   17   18 2   
    36   17   19 1   
    37   19   20 ar  
    38   19   24 ar  
    39   20   21 ar  
    40   20   40 1   
    41   21   22 ar  
    42   21   41 1   
    43   22   23 ar  
    44   22   42 1   
    45   23   24 ar  
    46   23   43 1   
    47   24   25 1   
    48   25   44 1   
@<TRIPOS>SUBSTRUCTURE
     1 0OU         1 TEMP              0 ****  ****    0 ROOT
