@<TRIPOS>MOLECULE
0OU
   46    48     1     0     0
SMALL
bcc


@<TRIPOS>ATOM
      1 CAI         0.2160   -0.5290   -0.1580 ca        1 0OU     -0.106500
      2 CAS         1.5870   -0.3000    0.0040 ca        1 0OU      0.028400
      3 CL1         2.6700   -0.8490   -1.1670 cl        1 0OU     -0.006900
      4 CAH         2.0640    0.3850    1.1300 ca        1 0OU     -0.061000
      5 CAT         1.1580    0.8400    2.0960 ca        1 0OU      0.028400
      6 CL2         1.7220    1.6700    3.4530 cl        1 0OU     -0.006900
      7 CAJ        -0.2140    0.6170    1.9420 ca        1 0OU     -0.106500
      8 CAU        -0.6780   -0.0690    0.8140 ca        1 0OU     -0.191300
      9 CAO        -2.1400   -0.2590    0.6190 c3        1 0OU      0.186100
     10 NAP        -2.5820   -1.5650    1.2470 n4        1 0OU     -0.772000
     11 CAM        -4.0400   -1.7990    1.0700 c3        1 0OU      0.102800
     12 CAL        -4.5230   -3.1100    1.6930 c3        1 0OU     -0.138400
     13 CAN        -6.0220   -3.2380    1.4260 c3        1 0OU      0.105800
     14 NAQ        -6.6080   -4.5050    1.9620 n4        1 0OU     -0.652800
     15 CAV        -8.0420   -4.6420    1.5490 cc        1 0OU      0.151000
     16 CAK        -8.3360   -5.4410    0.4900 cd        1 0OU     -0.207200
     17 CAW        -9.7430   -5.5920    0.0360 c         1 0OU      0.579900
     18 OAA       -10.0130   -6.4010   -0.8540 o         1 0OU     -0.456100
     19 CAY       -10.7080   -4.7160    0.7020 ca        1 0OU     -0.194600
     20 CAG       -12.0460   -4.7120    0.2780 ca        1 0OU     -0.034000
     21 CAE       -12.9830   -3.9020    0.9110 ca        1 0OU     -0.122000
     22 CAD       -12.5950   -3.0890    1.9780 ca        1 0OU     -0.052000
     23 CAF       -11.2740   -3.0730    2.4190 ca        1 0OU     -0.153000
     24 CAX       -10.3150   -3.8820    1.7760 ca        1 0OU      0.124600
     25 NAR        -8.9620   -3.8130    2.2140 na        1 0OU     -0.593400
     26 H1         -0.1490   -1.0440   -1.0610 ha        1 0OU      0.153500
     27 H2          3.1480    0.5710    1.2500 ha        1 0OU      0.198000
     28 H3         -0.9200    1.0050    2.6950 ha        1 0OU      0.153500
     29 H4         -2.7290    0.5690    1.1080 hx        1 0OU      0.114700
     30 H5         -2.4020   -0.3050   -0.4780 hx        1 0OU      0.114700
     31 H6         -2.0460   -2.3310    0.8200 hn        1 0OU      0.456800
     32 H8         -4.2570   -1.7980   -0.0390 hx        1 0OU      0.119700
     33 H9         -4.5890   -0.9280    1.5370 hx        1 0OU      0.119700
     34 H10        -3.9710   -3.9790    1.2410 hc        1 0OU      0.087700
     35 H11        -4.3230   -3.1110    2.7990 hc        1 0OU      0.087700
     36 H12        -6.2240   -3.2190    0.3140 hx        1 0OU      0.129200
     37 H13        -6.5800   -2.3750    1.8960 hx        1 0OU      0.129200
     38 H14        -6.0980   -5.3160    1.5870 hn        1 0OU      0.464800
     39 H15        -7.5870   -6.0020   -0.0940 ha        1 0OU      0.182000
     40 H17       -12.3390   -5.3670   -0.5620 ha        1 0OU      0.183000
     41 H18       -14.0330   -3.9060    0.5730 ha        1 0OU      0.176000
     42 H19       -13.3410   -2.4510    2.4830 ha        1 0OU      0.170000
     43 H20       -10.9940   -2.4270    3.2650 ha        1 0OU      0.153000
     44 H7         -8.8740   -3.7600    3.2120 hn        1 0OU      0.433800
     45 HAP2       -2.3460   -1.5420    2.2480 hn        1 0OU      0.456800
     46 HAQ2       -6.5300   -4.5220    2.9870 hn        1 0OU      0.464800
@<TRIPOS>BOND
     1    1    2 ar  
     2    1    8 ar  
     3    1   26 1   
     4    2    3 1   
     5    2    4 ar  
     6    4    5 ar  
     7    4   27 1   
     8    5    6 1   
     9    5    7 ar  
    10    7    8 ar  
    11    7   28 1   
    12    8    9 1   
    13    9   10 1   
    14    9   29 1   
    15    9   30 1   
    16   10   11 1   
    17   10   31 1   
    18   10   45 1   
    19   11   12 1   
    20   11   32 1   
    21   11   33 1   
    22   12   13 1   
    23   12   34 1   
    24   12   35 1   
    25   13   14 1   
    26   13   36 1   
    27   13   37 1   
    28   14   15 1   
    29   14   38 1   
    30   14   46 1   
    31   15   16 2   
    32   15   25 1   
    33   16   17 1   
    34   16   39 1   
    35   17   18 2   
    36   17   19 1   
    37   19   20 ar  
    38   19   24 ar  
    39   20   21 ar  
    40   20   40 1   
    41   21   22 ar  
    42   21   41 1   
    43   22   23 ar  
    44   22   42 1   
    45   23   24 ar  
    46   23   43 1   
    47   24   25 1   
    48   25   44 1   
@<TRIPOS>SUBSTRUCTURE
     1 0OU         1 TEMP              0 ****  ****    0 ROOT
