@<TRIPOS>MOLECULE
0OU
   44    46     1     0     0
SMALL
bcc


@<TRIPOS>ATOM
      1 CAI        -5.2260    0.9590   -1.2260 ca        1 0OU     -0.113500
      2 CAS        -6.5650    0.9700   -0.8250 ca        1 0OU      0.021900
      3 CL1        -7.6150    2.1580   -1.4380 cl        1 0OU     -0.082400
      4 CAH        -7.0540    0.0210    0.0770 ca        1 0OU     -0.118000
      5 CAT        -6.1780   -0.9500    0.5720 ca        1 0OU      0.021900
      6 CL2        -6.7550   -2.1120    1.6690 cl        1 0OU     -0.082400
      7 CAJ        -4.8370   -0.9780    0.1770 ca        1 0OU     -0.113500
      8 CAU        -4.3640   -0.0200   -0.7240 ca        1 0OU     -0.079300
      9 CAO        -2.9360   -0.0570   -1.1870 c3        1 0OU      0.209100
     10 NAP        -1.9820   -0.1400   -0.0960 n3        1 0OU     -0.825200
     11 CAM        -0.6130    0.0420   -0.5320 c3        1 0OU      0.167800
     12 CAL         0.3750    0.0830    0.6340 c3        1 0OU     -0.096400
     13 CAN         1.7920    0.2020    0.0750 c3        1 0OU      0.177800
     14 NAQ         2.7970    0.3090    1.1110 nh        1 0OU     -0.739000
     15 CAV         4.1440    0.0070    0.7920 cc        1 0OU      0.361000
     16 CAK         4.9860   -0.5390    1.7420 cd        1 0OU     -0.390200
     17 CAW         6.4030   -0.7350    1.5020 c         1 0OU      0.598900
     18 OAA         7.1620   -1.2280    2.3550 o         1 0OU     -0.579100
     19 CAY         6.8880   -0.3120    0.1750 ca        1 0OU     -0.198600
     20 CAG         8.2450   -0.4350   -0.1560 ca        1 0OU     -0.043000
     21 CAE         8.7120   -0.0310   -1.3990 ca        1 0OU     -0.175000
     22 CAD         7.8210    0.5060   -2.3350 ca        1 0OU     -0.074000
     23 CAF         6.4730    0.6390   -2.0390 ca        1 0OU     -0.198000
     24 CAX         5.9850    0.2250   -0.7730 ca        1 0OU      0.186600
     25 NAR         4.6230    0.3230   -0.4860 na        1 0OU     -0.626400
     26 H1         -4.8560    1.7150   -1.9360 ha        1 0OU      0.158000
     27 H2         -8.1090    0.0360    0.3910 ha        1 0OU      0.163000
     28 H3         -4.1540   -1.7490    0.5700 ha        1 0OU      0.158000
     29 H4         -2.7940   -0.9790   -1.8240 h1        1 0OU      0.043200
     30 H5         -2.7420    0.8390   -1.8520 h1        1 0OU      0.043200
     31 H6         -2.2160    0.5080    0.6340 hn        1 0OU      0.365800
     32 H8         -0.3560   -0.8280   -1.2020 h1        1 0OU      0.032200
     33 H9         -0.4800    0.9840   -1.1450 h1        1 0OU      0.032200
     34 H10         0.1490    0.9560    1.3000 hc        1 0OU      0.060700
     35 H11         0.2780   -0.8500    1.2490 hc        1 0OU      0.060700
     36 H12         1.9830   -0.6820   -0.6030 h1        1 0OU      0.041700
     37 H13         1.8550    1.1350   -0.5570 h1        1 0OU      0.041700
     38 H14         2.5240   -0.1090    1.9790 hn        1 0OU      0.416800
     39 H15         4.6120   -0.8370    2.7310 ha        1 0OU      0.160000
     40 H17         8.9290   -0.8600    0.5990 ha        1 0OU      0.162000
     41 H18         9.7770   -0.1310   -1.6510 ha        1 0OU      0.139000
     42 H19         8.1940    0.8280   -3.3200 ha        1 0OU      0.134000
     43 H20         5.7880    1.0630   -2.7880 ha        1 0OU      0.132000
     44 H7          4.0500    0.8350   -1.1180 hn        1 0OU      0.445800
@<TRIPOS>BOND
     1    1    2 ar  
     2    1    8 ar  
     3    1   26 1   
     4    2    3 1   
     5    2    4 ar  
     6    4    5 ar  
     7    4   27 1   
     8    5    6 1   
     9    5    7 ar  
    10    7    8 ar  
    11    7   28 1   
    12    8    9 1   
    13    9   10 1   
    14    9   29 1   
    15    9   30 1   
    16   10   11 1   
    17   10   31 1   
    18   11   12 1   
    19   11   32 1   
    20   11   33 1   
    21   12   13 1   
    22   12   34 1   
    23   12   35 1   
    24   13   14 1   
    25   13   36 1   
    26   13   37 1   
    27   14   15 1   
    28   14   38 1   
    29   15   16 2   
    30   15   25 1   
    31   16   17 1   
    32   16   39 1   
    33   17   18 2   
    34   17   19 1   
    35   19   20 ar  
    36   19   24 ar  
    37   20   21 ar  
    38   20   40 1   
    39   21   22 ar  
    40   21   41 1   
    41   22   23 ar  
    42   22   42 1   
    43   23   24 ar  
    44   23   43 1   
    45   24   25 1   
    46   25   44 1   
@<TRIPOS>SUBSTRUCTURE
     1 0OU         1 TEMP              0 ****  ****    0 ROOT
