@<TRIPOS>MOLECULE
0OV
   42    39     1     0     0
SMALL
bcc


@<TRIPOS>ATOM
      1 C24         0.4710   -0.0900   -2.3610 c1        1 0OV      0.227000
      2 C22        -2.3540   -1.1220   -4.2780 c1        1 0OV     -0.169000
      3 C21        -1.7550    0.1170   -3.6770 c2        1 0OV      0.076000
      4 C18         1.8970    0.0010   -4.9650 c1        1 0OV     -0.129000
      5 C16         2.6350   -0.1260   -3.7010 c1        1 0OV      0.332000
      6 C15         1.8700   -0.1690   -2.3710 c2        1 0OV     -0.371000
      7 C6         -0.9290    2.0130    3.0960 c3        1 0OV     -0.156000
      8 C4         -2.0910   -0.1260    3.3520 c3        1 0OV     -0.154000
      9 C2         -0.8070   -0.9650    3.1350 c3        1 0OV     -0.102000
     10 C1         -1.0940   -2.1490    2.4260 c3        1 0OV     -0.212000
     11 C11         0.5110   -0.0520    0.0230 c1        1 0OV      0.252000
     12 C5         -1.8400    1.2550    3.8830 c3        1 0OV     -0.156000
     13 C7          0.2650    1.3780    2.8280 c3        1 0OV     -0.177000
     14 C8          0.1050    0.0170    2.2570 c3        1 0OV      0.045000
     15 O10        -0.4680    0.1350    0.9880 os        1 0OV     -0.170000
     16 N12         1.8980   -0.1300    0.0100 n1        1 0OV     -0.343000
     17 C13         2.5690   -0.1880   -1.1770 c2        1 0OV      0.276000
     18 N14         3.9500   -0.2150   -0.8660 n3        1 0OV     -0.344000
     19 O17         3.8620   -0.3400   -3.7160 o         1 0OV     -0.370000
     20 C19         0.4090    0.0890   -4.9470 c1        1 0OV     -0.129000
     21 N20        -0.3060    0.0070   -3.6900 n1        1 0OV     -0.196000
     22 N23        -2.8050   -2.0490   -4.7280 n1        1 0OV     -0.014000
     23 N25        -0.1970   -0.0320   -1.1700 n2        1 0OV     -0.284000
     24 H1         -2.0270    0.8980   -4.2030 h4        1 0OV      0.140500
     25 H2         -2.0490    0.2120   -2.8150 h4        1 0OV      0.140500
     26 H3          2.4020    0.0610   -5.8460 ha        1 0OV      0.163500
     27 H4         -1.3780    2.2370    2.2110 hc        1 0OV      0.085500
     28 H5         -0.7370    2.8460    3.5630 hc        1 0OV      0.085500
     29 H6         -2.5400   -0.0530    2.5390 hc        1 0OV      0.090000
     30 H7         -2.6620   -0.5950    3.9770 hc        1 0OV      0.090000
     31 H8         -0.3730   -1.1680    3.9970 hc        1 0OV      0.093000
     32 H9         -1.9640   -2.0810    2.0230 hc        1 0OV      0.081333
     33 H10        -1.0790   -2.9040    3.0370 hc        1 0OV      0.081333
     34 H11        -0.4320   -2.2790    1.7390 hc        1 0OV      0.081333
     35 H12        -1.4860    1.1830    4.7880 hc        1 0OV      0.078000
     36 H13        -2.7320    1.7570    3.9220 hc        1 0OV      0.078000
     37 H14         0.8000    1.3010    3.7090 hc        1 0OV      0.094500
     38 H15         0.7680    1.9170    2.2030 hc        1 0OV      0.094500
     39 H16         0.9650   -0.3730    2.1660 h1        1 0OV      0.112000
     40 H17         4.2270   -0.5430   -0.0680 hn        1 0OV      0.258000
     41 H18         4.5960    0.1500   -1.4910 hn        1 0OV      0.258000
     42 H19        -0.0940    0.1750   -5.8000 ha        1 0OV      0.163500
@<TRIPOS>BOND
     1    1    6 1   
     2    1   23 1   
     3    2   22 1   
     4    3   21 1   
     5    3   24 1   
     6    3   25 1   
     7    4   20 1   
     8    4   26 1   
     9    5    6 1   
    10    5   19 1   
    11    6   17 1   
    12    7   12 1   
    13    7   13 1   
    14    7   27 1   
    15    7   28 1   
    16    8    9 1   
    17    8   12 1   
    18    8   29 1   
    19    8   30 1   
    20    9   10 1   
    21    9   14 1   
    22    9   31 1   
    23   10   32 1   
    24   10   33 1   
    25   10   34 1   
    26   11   15 1   
    27   11   23 1   
    28   12   35 1   
    29   12   36 1   
    30   13   14 1   
    31   13   37 1   
    32   13   38 1   
    33   14   15 1   
    34   14   39 1   
    35   16   17 1   
    36   17   18 1   
    37   18   40 1   
    38   18   41 1   
    39   20   42 1   
@<TRIPOS>SUBSTRUCTURE
     1 0OV         1 TEMP              0 ****  ****    0 ROOT
