@<TRIPOS>MOLECULE
0OV
   42    44     1     0     0
SMALL
bcc


@<TRIPOS>ATOM
      1 C24         1.6750   -0.2000   -0.2860 ca        1 0OV      0.748200
      2 C22         2.2640   -3.2960    0.4520 c1        1 0OV      0.183700
      3 C21         2.3390   -2.5450   -0.7980 c3        1 0OV      0.285900
      4 C18         4.4010    0.5140   -0.4010 cc        1 0OV     -0.294200
      5 C16         3.4420    1.5820   -0.1180 c         1 0OV      0.610900
      6 C15         2.0470    1.1670   -0.0530 ca        1 0OV     -0.522200
      7 C6         -3.9350    0.4440   -1.8160 c3        1 0OV     -0.077400
      8 C4         -4.5290   -1.2290   -0.0620 c3        1 0OV     -0.075400
      9 C2         -4.0240   -0.2920    1.0230 c3        1 0OV     -0.062700
     10 C1         -3.5450   -1.0670    2.2290 c3        1 0OV     -0.094100
     11 C11        -0.5500    0.3170    0.0970 ca        1 0OV      0.948300
     12 C5         -5.0220   -0.4550   -1.2670 c3        1 0OV     -0.077400
     13 C7         -3.4020    1.3830   -0.7550 c3        1 0OV     -0.098400
     14 C8         -2.9250    0.6380    0.4850 c3        1 0OV      0.156100
     15 O10        -1.8110   -0.2290    0.1570 os        1 0OV     -0.412100
     16 N12        -0.3430    1.6440    0.3300 nb        1 0OV     -0.869000
     17 C13         0.9630    2.0790    0.2580 ca        1 0OV      0.797200
     18 N14         1.1890    3.4040    0.4860 nh        1 0OV     -0.946500
     19 O17         3.8390    2.7530    0.0530 o         1 0OV     -0.609100
     20 C19         3.9990   -0.7580   -0.6220 cd        1 0OV      0.099000
     21 N20         2.6620   -1.1410   -0.6360 na        1 0OV     -0.629100
     22 N23         2.1920   -3.9140    1.4330 n1        1 0OV     -0.339800
     23 N25         0.3820   -0.6430   -0.2070 nb        1 0OV     -0.810000
     24 H1          3.1350   -3.0190   -1.4470 h1        1 0OV      0.101200
     25 H2          1.3460   -2.6460   -1.3340 h1        1 0OV      0.101200
     26 H3          5.4650    0.7890   -0.4270 ha        1 0OV      0.169000
     27 H4         -3.0920   -0.1880   -2.2030 hc        1 0OV      0.046200
     28 H5         -4.3360    1.0420   -2.6750 hc        1 0OV      0.046200
     29 H6         -3.6950   -1.9150   -0.3690 hc        1 0OV      0.050700
     30 H7         -5.3580   -1.8600    0.3500 hc        1 0OV      0.050700
     31 H8         -4.8700    0.3850    1.3360 hc        1 0OV      0.053700
     32 H9         -2.6890   -1.7290    1.9510 hc        1 0OV      0.042033
     33 H10        -3.2070   -0.3690    3.0320 hc        1 0OV      0.042033
     34 H11        -4.3710   -1.7010    2.6320 hc        1 0OV      0.042033
     35 H12        -5.9130    0.1630   -0.9790 hc        1 0OV      0.038700
     36 H13        -5.3530   -1.1730   -2.0620 hc        1 0OV      0.038700
     37 H14        -2.5600    1.9880   -1.1800 hc        1 0OV      0.055200
     38 H15        -4.2080    2.0950   -0.4370 hc        1 0OV      0.055200
     39 H16        -2.6280    1.3600    1.2930 h1        1 0OV      0.072700
     40 H17         2.1180    3.7610    0.4510 hn        1 0OV      0.462800
     41 H18         0.4390    4.0130    0.7060 hn        1 0OV      0.462800
     42 H19         4.7200   -1.5720   -0.8320 h4        1 0OV      0.158000
@<TRIPOS>BOND
     1    1    6 ar  
     2    1   21 1   
     3    1   23 ar  
     4    2    3 1   
     5    2   22 3   
     6    3   21 1   
     7    3   24 1   
     8    3   25 1   
     9    4    5 1   
    10    4   20 2   
    11    4   26 1   
    12    5    6 1   
    13    5   19 2   
    14    6   17 ar  
    15    7   12 1   
    16    7   13 1   
    17    7   27 1   
    18    7   28 1   
    19    8    9 1   
    20    8   12 1   
    21    8   29 1   
    22    8   30 1   
    23    9   10 1   
    24    9   14 1   
    25    9   31 1   
    26   10   32 1   
    27   10   33 1   
    28   10   34 1   
    29   11   15 1   
    30   11   16 ar  
    31   11   23 ar  
    32   12   35 1   
    33   12   36 1   
    34   13   14 1   
    35   13   37 1   
    36   13   38 1   
    37   14   15 1   
    38   14   39 1   
    39   16   17 ar  
    40   17   18 1   
    41   18   40 1   
    42   18   41 1   
    43   20   21 1   
    44   20   42 1   
@<TRIPOS>SUBSTRUCTURE
     1 0OV         1 TEMP              0 ****  ****    0 ROOT
