@<TRIPOS>MOLECULE
0OV
   43    45     1     0     0
SMALL
bcc


@<TRIPOS>ATOM
      1 C24         0.0850    0.0310    0.0120 ca        1 0OV      0.749200
      2 C22        -2.5280   -1.5110   -0.7810 c1        1 0OV      0.160700
      3 C21        -2.1220   -0.1500   -1.1090 c3        1 0OV      0.282900
      4 C18         1.3160    0.1550   -2.5350 cc        1 0OV     -0.283200
      5 C16         2.1970    0.2150   -1.3840 c         1 0OV      0.608900
      6 C15         1.5280    0.1300   -0.0820 ca        1 0OV     -0.469200
      7 C6         -0.7550    2.2000    5.3420 c3        1 0OV     -0.079400
      8 C4         -2.0620    0.1480    5.9090 c3        1 0OV     -0.079400
      9 C2         -0.8160   -0.7090    5.7570 c3        1 0OV     -0.062700
     10 C1         -1.1710   -2.1200    5.3470 c3        1 0OV     -0.099100
     11 C11         0.2310   -0.0180    2.3400 ca        1 0OV      0.964300
     12 C5         -1.7100    1.5590    6.3280 c3        1 0OV     -0.082400
     13 C7          0.4960    1.3660    5.1600 c3        1 0OV     -0.101400
     14 C8          0.1800   -0.0720    4.7770 c3        1 0OV      0.154100
     15 O10        -0.4940   -0.1110    3.4800 os        1 0OV     -0.374100
     16 N12         1.6210    0.0710    2.3660 nb        1 0OV     -0.784000
     17 C13         2.2120    0.1370    1.1620 ca        1 0OV      0.623200
     18 N14         3.6920    0.2140    1.1560 n4        1 0OV     -0.835300
     19 O17         3.4370    0.3290   -1.4700 o         1 0OV     -0.612100
     20 C19        -0.0300    0.0530   -2.3920 cd        1 0OV      0.132000
     21 N20        -0.6750    0.0280   -1.1590 na        1 0OV     -0.607100
     22 N23        -2.8780   -2.5860   -0.5130 n1        1 0OV     -0.284800
     23 N25        -0.5570   -0.0440    1.2210 nb        1 0OV     -0.726000
     24 H1         -2.5570    0.5570   -0.3360 h1        1 0OV      0.115700
     25 H2         -2.5520    0.1270   -2.1190 h1        1 0OV      0.115700
     26 H3          1.7810    0.1950   -3.5340 ha        1 0OV      0.199000
     27 H4         -1.2690    2.3170    4.3510 hc        1 0OV      0.051700
     28 H5         -0.4690    3.2220    5.7010 hc        1 0OV      0.051700
     29 H6         -2.7360   -0.3180    6.6750 hc        1 0OV      0.059700
     30 H7         -2.6180    0.1680    4.9340 hc        1 0OV      0.059700
     31 H8         -0.2770   -0.7400    6.7480 hc        1 0OV      0.071700
     32 H9         -1.8380   -2.5820    6.1150 hc        1 0OV      0.047367
     33 H10        -1.7060   -2.1220    4.3670 hc        1 0OV      0.047367
     34 H11        -0.2500   -2.7450    5.2540 hc        1 0OV      0.047367
     35 H12        -1.2440    1.5460    7.3490 hc        1 0OV      0.053700
     36 H13        -2.6460    2.1740    6.3940 hc        1 0OV      0.053700
     37 H14         1.0750    1.3380    6.1210 hc        1 0OV      0.055700
     38 H15         1.1500    1.8360    4.3820 hc        1 0OV      0.055700
     39 H16         1.1110   -0.6980    4.7300 h1        1 0OV      0.067700
     40 H17         3.9760    0.9460    0.4760 hn        1 0OV      0.486467
     41 H18         4.0690    0.4170    2.0890 hn        1 0OV      0.486467
     42 H19        -0.7040   -0.0010   -3.2730 h4        1 0OV      0.191000
     43 H143        4.0590   -0.6830    0.8110 hn        1 0OV      0.486467
@<TRIPOS>BOND
     1    1    6 ar  
     2    1   21 1   
     3    1   23 ar  
     4    2    3 1   
     5    2   22 3   
     6    3   21 1   
     7    3   24 1   
     8    3   25 1   
     9    4    5 1   
    10    4   20 2   
    11    4   26 1   
    12    5    6 1   
    13    5   19 2   
    14    6   17 ar  
    15    7   12 1   
    16    7   13 1   
    17    7   27 1   
    18    7   28 1   
    19    8    9 1   
    20    8   12 1   
    21    8   29 1   
    22    8   30 1   
    23    9   10 1   
    24    9   14 1   
    25    9   31 1   
    26   10   32 1   
    27   10   33 1   
    28   10   34 1   
    29   11   15 1   
    30   11   16 ar  
    31   11   23 ar  
    32   12   35 1   
    33   12   36 1   
    34   13   14 1   
    35   13   37 1   
    36   13   38 1   
    37   14   15 1   
    38   14   39 1   
    39   16   17 ar  
    40   17   18 1   
    41   18   40 1   
    42   18   41 1   
    43   18   43 1   
    44   20   21 1   
    45   20   42 1   
@<TRIPOS>SUBSTRUCTURE
     1 0OV         1 TEMP              0 ****  ****    0 ROOT
