@<TRIPOS>MOLECULE
0OV
   42    44     1     0     0
SMALL
bcc


@<TRIPOS>ATOM
      1 C24         0.0860    0.0240    0.0350 ca        1 0OV      0.748200
      2 C22        -2.5650   -1.5100   -1.0100 c1        1 0OV      0.183700
      3 C21        -2.1190   -0.1230   -1.1130 c3        1 0OV      0.285900
      4 C18         1.3160    0.0790   -2.5020 cc        1 0OV     -0.294200
      5 C16         2.1930    0.1540   -1.3330 c         1 0OV      0.610900
      6 C15         1.5180    0.1070   -0.0430 ca        1 0OV     -0.522200
      7 C6         -0.8340    2.1420    5.4110 c3        1 0OV     -0.077400
      8 C4         -2.1530    0.0850    5.9160 c3        1 0OV     -0.075400
      9 C2         -0.9100   -0.7720    5.7430 c3        1 0OV     -0.062700
     10 C1         -1.2730   -2.1700    5.2950 c3        1 0OV     -0.094100
     11 C11         0.1940   -0.0260    2.3490 ca        1 0OV      0.948300
     12 C5         -1.7950    1.4820    6.3780 c3        1 0OV     -0.077400
     13 C7          0.4120    1.3060    5.2070 c3        1 0OV     -0.098400
     14 C8          0.0850   -0.1160    4.7720 c3        1 0OV      0.156100
     15 O10        -0.5780   -0.1110    3.4830 os        1 0OV     -0.412100
     16 N12         1.5520    0.0620    2.4230 nb        1 0OV     -0.869000
     17 C13         2.2260    0.1290    1.2220 ca        1 0OV      0.797200
     18 N14         3.5850    0.2180    1.2770 nv        1 0OV     -0.946500
     19 O17         3.4280    0.2460   -1.4810 o         1 0OV     -0.609100
     20 C19        -0.0290    0.0100   -2.3760 cd        1 0OV      0.099000
     21 N20        -0.6790    0.0420   -1.1460 na        1 0OV     -0.629100
     22 N23        -2.9460   -2.6040   -0.9230 n1        1 0OV     -0.339800
     23 N25        -0.5910   -0.0510    1.2230 nb        1 0OV     -0.810000
     24 H1         -2.5490    0.3160   -2.0630 h1        1 0OV      0.101200
     25 H2         -2.5470    0.4540   -0.2360 h1        1 0OV      0.101200
     26 H3          1.7960    0.0810   -3.4910 ha        1 0OV      0.169000
     27 H4         -1.3440    2.2860    4.4220 hc        1 0OV      0.046200
     28 H5         -0.5450    3.1540    5.7960 hc        1 0OV      0.046200
     29 H6         -2.6980    0.1390    4.9360 hc        1 0OV      0.050700
     30 H7         -2.8360   -0.3980    6.6620 hc        1 0OV      0.050700
     31 H8         -0.3740   -0.8330    6.7340 hc        1 0OV      0.053700
     32 H9         -1.9590   -2.6450    6.0370 hc        1 0OV      0.042033
     33 H10        -0.3560   -2.8000    5.2030 hc        1 0OV      0.042033
     34 H11        -1.7840   -2.1400    4.3020 hc        1 0OV      0.042033
     35 H12        -1.3300    1.4350    7.3970 hc        1 0OV      0.038700
     36 H13        -2.7270    2.0990    6.4600 hc        1 0OV      0.038700
     37 H14         0.9910    1.2460    6.1670 hc        1 0OV      0.055200
     38 H15         1.0690    1.7950    4.4420 hc        1 0OV      0.055200
     39 H16         1.0170   -0.7410    4.7250 h1        1 0OV      0.072700
     40 H17         4.0550    0.2220    2.1490 hn        1 0OV      0.462800
     41 H18         4.1130    0.2620    0.4340 hn        1 0OV      0.462800
     42 H19        -0.6980   -0.0530   -3.2560 h4        1 0OV      0.158000
@<TRIPOS>BOND
     1    1    6 ar  
     2    1   21 1   
     3    1   23 ar  
     4    2    3 1   
     5    2   22 3   
     6    3   21 1   
     7    3   24 1   
     8    3   25 1   
     9    4    5 1   
    10    4   20 2   
    11    4   26 1   
    12    5    6 1   
    13    5   19 2   
    14    6   17 ar  
    15    7   12 1   
    16    7   13 1   
    17    7   27 1   
    18    7   28 1   
    19    8    9 1   
    20    8   12 1   
    21    8   29 1   
    22    8   30 1   
    23    9   10 1   
    24    9   14 1   
    25    9   31 1   
    26   10   32 1   
    27   10   33 1   
    28   10   34 1   
    29   11   15 1   
    30   11   16 ar  
    31   11   23 ar  
    32   12   35 1   
    33   12   36 1   
    34   13   14 1   
    35   13   37 1   
    36   13   38 1   
    37   14   15 1   
    38   14   39 1   
    39   16   17 ar  
    40   17   18 1   
    41   18   40 1   
    42   18   41 1   
    43   20   21 1   
    44   20   42 1   
@<TRIPOS>SUBSTRUCTURE
     1 0OV         1 TEMP              0 ****  ****    0 ROOT
