@<TRIPOS>MOLECULE
0OV
   42    44     1     0     0
SMALL
bcc


@<TRIPOS>ATOM
      1 C24         0.0670   -0.0150    0.0090 ca        1 0OV      0.748200
      2 C22        -2.6150   -1.5370   -0.9740 c1        1 0OV      0.183700
      3 C21        -2.1620   -0.1530   -1.0920 c3        1 0OV      0.285900
      4 C18         1.2430    0.0220   -2.5540 cc        1 0OV     -0.294200
      5 C16         2.1450    0.0970   -1.4040 c         1 0OV      0.610900
      6 C15         1.4970    0.0600   -0.1000 ca        1 0OV     -0.522200
      7 C6         -0.7310    2.1320    5.3920 c3        1 0OV     -0.077400
      8 C4         -2.0490    0.0830    5.9340 c3        1 0OV     -0.075400
      9 C2         -0.8120   -0.7810    5.7400 c3        1 0OV     -0.062700
     10 C1         -1.1910   -2.1790    5.3070 c3        1 0OV     -0.094100
     11 C11         0.2230   -0.0560    2.3200 ca        1 0OV      0.948300
     12 C5         -1.6750    1.4800    6.3810 c3        1 0OV     -0.077400
     13 C7          0.5070    1.2900    5.1660 c3        1 0OV     -0.098400
     14 C8          0.1640   -0.1340    4.7450 c3        1 0OV      0.156100
     15 O10        -0.5250   -0.1320    3.4710 os        1 0OV     -0.412100
     16 N12         1.5830    0.0260    2.3650 nb        1 0OV     -0.869000
     17 C13         2.2320    0.0830    1.1500 ca        1 0OV      0.797200
     18 N14         3.5920    0.1660    1.1760 nh        1 0OV     -0.946500
     19 O17         3.3780    0.1810   -1.5780 o         1 0OV     -0.609100
     20 C19        -0.0990   -0.0390   -2.3990 cd        1 0OV      0.099000
     21 N20        -0.7230    0.0030   -1.1560 na        1 0OV     -0.629100
     22 N23        -3.0000   -2.6290   -0.8740 n1        1 0OV     -0.339800
     23 N25        -0.5850   -0.0810    1.2110 nb        1 0OV     -0.810000
     24 H1         -2.6100    0.2840   -2.0350 h1        1 0OV      0.101200
     25 H2         -2.5680    0.4300   -0.2100 h1        1 0OV      0.101200
     26 H3          1.7030    0.0170   -3.5520 ha        1 0OV      0.169000
     27 H4         -1.2620    2.2730    4.4120 hc        1 0OV      0.046200
     28 H5         -0.4300    3.1450    5.7660 hc        1 0OV      0.046200
     29 H6         -2.7170   -0.3940    6.6970 hc        1 0OV      0.050700
     30 H7         -2.6140    0.1340    4.9660 hc        1 0OV      0.050700
     31 H8         -0.2570   -0.8380    6.7200 hc        1 0OV      0.053700
     32 H9         -1.7230   -2.1510    4.3250 hc        1 0OV      0.042033
     33 H10        -1.8630   -2.6470    6.0650 hc        1 0OV      0.042033
     34 H11        -0.2780   -2.8130    5.1980 hc        1 0OV      0.042033
     35 H12        -1.1890    1.4370    7.3920 hc        1 0OV      0.038700
     36 H13        -2.6020    2.1020    6.4800 hc        1 0OV      0.038700
     37 H14         1.1050    1.2320    6.1140 hc        1 0OV      0.055200
     38 H15         1.1490    1.7710    4.3850 hc        1 0OV      0.055200
     39 H16         1.0920   -0.7630    4.6820 h1        1 0OV      0.072700
     40 H17         4.1030    0.2020    0.3220 hn        1 0OV      0.462800
     41 H18         4.0800    0.1700    2.0380 hn        1 0OV      0.462800
     42 H19        -0.7860   -0.1020   -3.2640 h4        1 0OV      0.158000
@<TRIPOS>BOND
     1    1    6 ar  
     2    1   21 1   
     3    1   23 ar  
     4    2    3 1   
     5    2   22 3   
     6    3   21 1   
     7    3   24 1   
     8    3   25 1   
     9    4    5 1   
    10    4   20 2   
    11    4   26 1   
    12    5    6 1   
    13    5   19 2   
    14    6   17 ar  
    15    7   12 1   
    16    7   13 1   
    17    7   27 1   
    18    7   28 1   
    19    8    9 1   
    20    8   12 1   
    21    8   29 1   
    22    8   30 1   
    23    9   10 1   
    24    9   14 1   
    25    9   31 1   
    26   10   32 1   
    27   10   33 1   
    28   10   34 1   
    29   11   15 1   
    30   11   16 ar  
    31   11   23 ar  
    32   12   35 1   
    33   12   36 1   
    34   13   14 1   
    35   13   37 1   
    36   13   38 1   
    37   14   15 1   
    38   14   39 1   
    39   16   17 ar  
    40   17   18 1   
    41   18   40 1   
    42   18   41 1   
    43   20   21 1   
    44   20   42 1   
@<TRIPOS>SUBSTRUCTURE
     1 0OV         1 TEMP              0 ****  ****    0 ROOT
