@<TRIPOS>MOLECULE
0OW
   47    49     1     0     0
SMALL
bcc


@<TRIPOS>ATOM
      1 N1          1.3460    1.4010   -0.7170 n4        1 0OW     -0.722400
      2 C2          1.5700    0.0710   -0.0800 c         1 0OW      0.601700
      3 C4          2.1380   -0.0230    1.2420 ca        1 0OW     -0.531200
      4 C5          2.4000   -1.2960    1.8620 ca        1 0OW      0.671200
      5 C10         4.1290   -1.6230    5.6270 c3        1 0OW      0.152100
      6 C11         5.3000   -2.3210    4.9420 c3        1 0OW     -0.096400
      7 C12         6.3620   -2.5420    6.0120 c3        1 0OW     -0.083900
      8 C13         6.0270   -1.6280    7.1810 c3        1 0OW     -0.083900
      9 C14         4.5700   -1.2140    7.0350 c3        1 0OW     -0.096400
     10 O3          1.2340   -0.8870   -0.7880 o         1 0OW     -0.520100
     11 N6          2.0510   -2.5500    1.1470 n4        1 0OW     -0.844300
     12 N7          2.9490   -1.4550    3.0620 nb        1 0OW     -0.764000
     13 C8          3.2840   -0.2800    3.7660 ca        1 0OW      1.016300
     14 O9          3.8330   -0.3290    4.9780 os        1 0OW     -0.348100
     15 N15         3.0690    0.9990    3.2990 nb        1 0OW     -0.739000
     16 C16         2.5070    1.1090    2.0770 ca        1 0OW      0.794600
     17 O17         2.2440    2.3170    1.5390 os        1 0OW     -0.465100
     18 C18         2.6500    3.5490    2.2100 c3        1 0OW      0.162100
     19 C20         1.7790    3.8450    3.4260 c3        1 0OW     -0.105400
     20 C21         1.2440    5.2580    3.2480 c3        1 0OW     -0.082400
     21 C22         1.3550    5.6070    1.7720 c3        1 0OW     -0.120400
     22 C23         2.3850    4.6570    1.1560 c3        1 0OW      0.142100
     23 O25         1.9060    4.0460   -0.0400 oh        1 0OW     -0.676800
     24 H1          2.2320    1.9360   -0.7690 hn        1 0OW      0.496133
     25 H2          0.7120    1.9800   -0.1400 hn        1 0OW      0.496133
     26 H3          3.1850   -2.2240    5.6250 h1        1 0OW      0.082700
     27 H4          5.7050   -1.6820    4.1170 hc        1 0OW      0.071950
     28 H5          4.9690   -3.2930    4.4980 hc        1 0OW      0.071950
     29 H6          6.3590   -3.6130    6.3400 hc        1 0OW      0.072450
     30 H7          7.3820   -2.3200    5.6090 hc        1 0OW      0.072450
     31 H8          6.1910   -2.1520    8.1570 hc        1 0OW      0.072450
     32 H9          6.6890   -0.7250    7.1730 hc        1 0OW      0.072450
     33 H10         4.4450   -0.1100    7.1880 hc        1 0OW      0.071950
     34 H11         3.9200   -1.7360    7.7830 hc        1 0OW      0.071950
     35 H12         2.5570   -2.5770    0.2470 hn        1 0OW      0.495800
     36 H13         2.2930   -3.3860    1.7050 hn        1 0OW      0.495800
     37 H14         3.7400    3.4730    2.4590 h1        1 0OW      0.104700
     38 H15         2.3780    3.7540    4.3680 hc        1 0OW      0.076200
     39 H16         0.9370    3.1090    3.4860 hc        1 0OW      0.076200
     40 H17         0.1830    5.3290    3.5970 hc        1 0OW      0.080200
     41 H18         1.8440    5.9780    3.8630 hc        1 0OW      0.080200
     42 H19         0.3660    5.4810    1.2600 hc        1 0OW      0.077700
     43 H20         1.6740    6.6720    1.6360 hc        1 0OW      0.077700
     44 H21         3.3530    5.1850    0.9310 h1        1 0OW      0.084700
     45 H22         1.6980    4.7720   -0.6450 ho        1 0OW      0.446000
     46 H131        0.9520    1.2790   -1.6600 hn        1 0OW      0.496133
     47 H63         1.0380   -2.5500    0.9460 hn        1 0OW      0.495800
@<TRIPOS>BOND
     1    1    2 1   
     2    1   24 1   
     3    1   25 1   
     4    1   46 1   
     5    2    3 1   
     6    2   10 2   
     7    3    4 ar  
     8    3   16 ar  
     9    4   11 1   
    10    4   12 ar  
    11    5    6 1   
    12    5    9 1   
    13    5   14 1   
    14    5   26 1   
    15    6    7 1   
    16    6   27 1   
    17    6   28 1   
    18    7    8 1   
    19    7   29 1   
    20    7   30 1   
    21    8    9 1   
    22    8   31 1   
    23    8   32 1   
    24    9   33 1   
    25    9   34 1   
    26   11   35 1   
    27   11   36 1   
    28   11   47 1   
    29   12   13 ar  
    30   13   14 1   
    31   13   15 ar  
    32   15   16 ar  
    33   16   17 1   
    34   17   18 1   
    35   18   19 1   
    36   18   22 1   
    37   18   37 1   
    38   19   20 1   
    39   19   38 1   
    40   19   39 1   
    41   20   21 1   
    42   20   40 1   
    43   20   41 1   
    44   21   22 1   
    45   21   42 1   
    46   21   43 1   
    47   22   23 1   
    48   22   44 1   
    49   23   45 1   
@<TRIPOS>SUBSTRUCTURE
     1 0OW         1 TEMP              0 ****  ****    0 ROOT
