@<TRIPOS>MOLECULE
0OW
   46    48     1     0     0
SMALL
bcc


@<TRIPOS>ATOM
      1 N1          1.3040    1.3460   -0.7050 nz        1 0OW     -0.735400
      2 C2          1.4540    0.0020   -0.0310 c         1 0OW      0.606700
      3 C4          2.0450   -0.0680    1.2650 ca        1 0OW     -0.568200
      4 C5          2.2840   -1.3640    1.9040 ca        1 0OW      0.828200
      5 C10         4.1490   -1.5340    5.6170 c3        1 0OW      0.151100
      6 C11         5.3010   -2.2800    4.9460 c3        1 0OW     -0.092900
      7 C12         6.4300   -2.3800    5.9620 c3        1 0OW     -0.080900
      8 C13         5.9050   -1.8620    7.2930 c3        1 0OW     -0.080900
      9 C14         4.6050   -1.1220    7.0210 c3        1 0OW     -0.092900
     10 O3          1.0260   -0.9050   -0.7540 o         1 0OW     -0.530100
     11 N6          1.9180   -2.5340    1.3260 nv        1 0OW     -0.914500
     12 N7          2.9050   -1.4490    3.1340 nb        1 0OW     -0.854000
     13 C8          3.2610   -0.2840    3.7390 ca        1 0OW      0.992300
     14 O9          3.8730   -0.2670    4.9480 os        1 0OW     -0.390100
     15 N15         3.0550    1.0080    3.2500 nb        1 0OW     -0.790000
     16 C16         2.4610    1.0720    2.0550 ca        1 0OW      0.766600
     17 O17         2.1910    2.2910    1.4980 os        1 0OW     -0.490100
     18 C18         2.6740    3.5000    2.1240 c3        1 0OW      0.165100
     19 C20         1.8570    3.8650    3.3610 c3        1 0OW     -0.103400
     20 C21         1.3890    5.3000    3.1760 c3        1 0OW     -0.080400
     21 C22         1.4740    5.6190    1.6910 c3        1 0OW     -0.118400
     22 C23         2.4460    4.6140    1.0690 c3        1 0OW      0.138100
     23 O25         1.9250    4.0270   -0.1190 oh        1 0OW     -0.654800
     24 H1          0.9170    1.2220   -1.6450 hn        1 0OW      0.472467
     25 H2          2.2120    1.8290   -0.7520 hn        1 0OW      0.472467
     26 H3          3.2060   -2.1380    5.6430 h1        1 0OW      0.078700
     27 H4          5.6400   -1.7350    4.0290 hc        1 0OW      0.064950
     28 H5          4.9570   -3.2960    4.6280 hc        1 0OW      0.064950
     29 H6          6.7810   -3.4380    6.0590 hc        1 0OW      0.056200
     30 H7          7.3060   -1.7690    5.6260 hc        1 0OW      0.056200
     31 H8          5.7210   -2.7150    7.9960 hc        1 0OW      0.056200
     32 H9          6.6500   -1.1850    7.7800 hc        1 0OW      0.056200
     33 H10         4.7610   -0.0120    7.0620 hc        1 0OW      0.064950
     34 H11         3.8190   -1.3830    7.7710 hc        1 0OW      0.064950
     35 H12         1.4640   -2.5530    0.4410 hn        1 0OW      0.474800
     36 H13         2.0980   -3.4010    1.7830 hn        1 0OW      0.474800
     37 H14         3.7660    3.3860    2.3510 h1        1 0OW      0.093700
     38 H15         0.9830    3.1720    3.4580 hc        1 0OW      0.074700
     39 H16         2.4790    3.7550    4.2850 hc        1 0OW      0.074700
     40 H17         0.3430    5.4300    3.5530 hc        1 0OW      0.065700
     41 H18         2.0420    5.9980    3.7590 hc        1 0OW      0.065700
     42 H19         0.4670    5.5210    1.2100 hc        1 0OW      0.065200
     43 H20         1.8300    6.6660    1.5250 hc        1 0OW      0.065200
     44 H21         3.4330    5.0980    0.8270 h1        1 0OW      0.067700
     45 H22         1.7260    4.7600   -0.7160 ho        1 0OW      0.428000
     46 H131        0.6910    1.9580   -0.1470 hn        1 0OW      0.472467
@<TRIPOS>BOND
     1    1    2 1   
     2    1   24 1   
     3    1   25 1   
     4    1   46 1   
     5    2    3 1   
     6    2   10 2   
     7    3    4 ar  
     8    3   16 ar  
     9    4   11 1   
    10    4   12 ar  
    11    5    6 1   
    12    5    9 1   
    13    5   14 1   
    14    5   26 1   
    15    6    7 1   
    16    6   27 1   
    17    6   28 1   
    18    7    8 1   
    19    7   29 1   
    20    7   30 1   
    21    8    9 1   
    22    8   31 1   
    23    8   32 1   
    24    9   33 1   
    25    9   34 1   
    26   11   35 1   
    27   11   36 1   
    28   12   13 ar  
    29   13   14 1   
    30   13   15 ar  
    31   15   16 ar  
    32   16   17 1   
    33   17   18 1   
    34   18   19 1   
    35   18   22 1   
    36   18   37 1   
    37   19   20 1   
    38   19   38 1   
    39   19   39 1   
    40   20   21 1   
    41   20   40 1   
    42   20   41 1   
    43   21   22 1   
    44   21   42 1   
    45   21   43 1   
    46   22   23 1   
    47   22   44 1   
    48   23   45 1   
@<TRIPOS>SUBSTRUCTURE
     1 0OW         1 TEMP              0 ****  ****    0 ROOT
