@<TRIPOS>MOLECULE
0OW
   46    48     1     0     0
SMALL
bcc


@<TRIPOS>ATOM
      1 N1          1.2700    1.3430   -0.6900 n4        1 0OW     -0.735400
      2 C2          1.4290   -0.0010   -0.0170 c         1 0OW      0.606700
      3 C4          2.0310   -0.0690    1.2740 ca        1 0OW     -0.568200
      4 C5          2.2770   -1.3660    1.9120 ca        1 0OW      0.828200
      5 C10         4.1760   -1.5320    5.6070 c3        1 0OW      0.151100
      6 C11         5.3230   -2.2760    4.9260 c3        1 0OW     -0.092900
      7 C12         6.4620   -2.3740    5.9310 c3        1 0OW     -0.080900
      8 C13         5.9470   -1.8570    7.2670 c3        1 0OW     -0.080900
      9 C14         4.6440   -1.1190    7.0070 c3        1 0OW     -0.092900
     10 O3          0.9950   -0.9090   -0.7360 o         1 0OW     -0.530100
     11 N6          1.9070   -2.5350    1.3370 nh        1 0OW     -0.914500
     12 N7          2.9090   -1.4490    3.1360 nb        1 0OW     -0.854000
     13 C8          3.2690   -0.2830    3.7370 ca        1 0OW      0.992300
     14 O9          3.8920   -0.2660    4.9410 os        1 0OW     -0.390100
     15 N15         3.0570    1.0070    3.2500 nb        1 0OW     -0.790000
     16 C16         2.4520    1.0710    2.0600 ca        1 0OW      0.766600
     17 O17         2.1760    2.2890    1.5050 os        1 0OW     -0.490100
     18 C18         2.6630    3.4990    2.1260 c3        1 0OW      0.165100
     19 C20         1.8580    3.8640    3.3710 c3        1 0OW     -0.103400
     20 C21         1.3850    5.2980    3.1890 c3        1 0OW     -0.080400
     21 C22         1.4560    5.6170    1.7040 c3        1 0OW     -0.118400
     22 C23         2.4250    4.6130    1.0730 c3        1 0OW      0.138100
     23 O25         1.8930    4.0240   -0.1100 oh        1 0OW     -0.654800
     24 H1          2.1770    1.8270   -0.7450 hn        1 0OW      0.472467
     25 H2          0.6610    1.9540   -0.1270 hn        1 0OW      0.472467
     26 H3          3.2330   -2.1370    5.6420 h1        1 0OW      0.078700
     27 H4          4.9780   -3.2930    4.6120 hc        1 0OW      0.064950
     28 H5          5.6520   -1.7320    4.0050 hc        1 0OW      0.064950
     29 H6          6.8160   -3.4310    6.0250 hc        1 0OW      0.056200
     30 H7          7.3330   -1.7600    5.5870 hc        1 0OW      0.056200
     31 H8          5.7720   -2.7100    7.9710 hc        1 0OW      0.056200
     32 H9          6.6960   -1.1790    7.7470 hc        1 0OW      0.056200
     33 H10         4.7980   -0.0090    7.0470 hc        1 0OW      0.064950
     34 H11         3.8650   -1.3820    7.7640 hc        1 0OW      0.064950
     35 H12         1.4440   -2.5550    0.4560 hn        1 0OW      0.474800
     36 H13         2.0920   -3.4020    1.7930 hn        1 0OW      0.474800
     37 H14         3.7580    3.3870    2.3430 h1        1 0OW      0.093700
     38 H15         0.9850    3.1700    3.4770 hc        1 0OW      0.074700
     39 H16         2.4880    3.7550    4.2890 hc        1 0OW      0.074700
     40 H17         2.0430    5.9970    3.7670 hc        1 0OW      0.065700
     41 H18         0.3440    5.4260    3.5760 hc        1 0OW      0.065700
     42 H19         1.8090    6.6640    1.5340 hc        1 0OW      0.065200
     43 H20         0.4450    5.5160    1.2320 hc        1 0OW      0.065200
     44 H21         3.4090    5.0980    0.8230 h1        1 0OW      0.067700
     45 H22         1.6880    4.7580   -0.7050 ho        1 0OW      0.428000
     46 H131        0.8750    1.2180   -1.6260 hn        1 0OW      0.472467
@<TRIPOS>BOND
     1    1    2 1   
     2    1   24 1   
     3    1   25 1   
     4    1   46 1   
     5    2    3 1   
     6    2   10 2   
     7    3    4 ar  
     8    3   16 ar  
     9    4   11 1   
    10    4   12 ar  
    11    5    6 1   
    12    5    9 1   
    13    5   14 1   
    14    5   26 1   
    15    6    7 1   
    16    6   27 1   
    17    6   28 1   
    18    7    8 1   
    19    7   29 1   
    20    7   30 1   
    21    8    9 1   
    22    8   31 1   
    23    8   32 1   
    24    9   33 1   
    25    9   34 1   
    26   11   35 1   
    27   11   36 1   
    28   12   13 ar  
    29   13   14 1   
    30   13   15 ar  
    31   15   16 ar  
    32   16   17 1   
    33   17   18 1   
    34   18   19 1   
    35   18   22 1   
    36   18   37 1   
    37   19   20 1   
    38   19   38 1   
    39   19   39 1   
    40   20   21 1   
    41   20   40 1   
    42   20   41 1   
    43   21   22 1   
    44   21   42 1   
    45   21   43 1   
    46   22   23 1   
    47   22   44 1   
    48   23   45 1   
@<TRIPOS>SUBSTRUCTURE
     1 0OW         1 TEMP              0 ****  ****    0 ROOT
