@<TRIPOS>MOLECULE
0OW
   45    47     1     0     0
SMALL
bcc


@<TRIPOS>ATOM
      1 N1         -2.9070    2.5220   -0.1480 n         1 0OW     -0.629000
      2 C2         -1.6380    2.7550    0.3290 c         1 0OW      0.700700
      3 C4         -0.5580    1.7760    0.0810 ca        1 0OW     -0.499200
      4 C5          0.7960    2.2140   -0.1580 ca        1 0OW      0.783200
      5 C10         3.8070   -0.5820   -0.6170 c3        1 0OW      0.154100
      6 C11         4.4480    0.0270    0.6300 c3        1 0OW     -0.092400
      7 C12         5.7480   -0.7250    0.8710 c3        1 0OW     -0.079400
      8 C13         5.6740   -2.0250    0.0830 c3        1 0OW     -0.079400
      9 C14         4.5540   -1.8840   -0.9360 c3        1 0OW     -0.092400
     10 O3         -1.4130    3.8440    0.9170 o         1 0OW     -0.670100
     11 N6          1.0960    3.5440   -0.3060 nh        1 0OW     -0.940500
     12 N7          1.8280    1.3060   -0.3030 nb        1 0OW     -0.859000
     13 C8          1.4880   -0.0100   -0.2350 ca        1 0OW      0.935300
     14 O9          2.4430   -0.9930   -0.3730 os        1 0OW     -0.420100
     15 N15         0.2370   -0.5510   -0.0340 nb        1 0OW     -0.816000
     16 C16        -0.7520    0.3660    0.1160 ca        1 0OW      0.736600
     17 O17        -2.0410   -0.0480    0.3350 os        1 0OW     -0.432100
     18 C18        -2.3380   -1.4500    0.3900 c3        1 0OW      0.164100
     19 C20        -2.1240   -2.1690   -0.9400 c3        1 0OW     -0.103400
     20 C21        -3.3300   -3.0740   -1.1450 c3        1 0OW     -0.076400
     21 C22        -4.4570   -2.5430   -0.2720 c3        1 0OW     -0.118400
     22 C23        -3.8550   -1.5280    0.7070 c3        1 0OW      0.138100
     23 O25        -4.4100   -0.2340    0.5320 oh        1 0OW     -0.588800
     24 H1         -3.1880    1.5990   -0.3890 hn        1 0OW      0.313500
     25 H2         -3.6200    3.1390    0.1590 hn        1 0OW      0.313500
     26 H3          3.8290    0.1250   -1.4870 h1        1 0OW      0.069700
     27 H4          4.6310    1.1190    0.4840 hc        1 0OW      0.060700
     28 H5          3.7580   -0.0880    1.5050 hc        1 0OW      0.060700
     29 H6          6.6180   -0.1110    0.5230 hc        1 0OW      0.044200
     30 H7          5.8960   -0.9250    1.9600 hc        1 0OW      0.044200
     31 H8          6.6470   -2.2390   -0.4240 hc        1 0OW      0.044200
     32 H9          5.4620   -2.8820    0.7720 hc        1 0OW      0.044200
     33 H10         3.8520   -2.7560   -0.8860 hc        1 0OW      0.060700
     34 H11         4.9600   -1.8330   -1.9760 hc        1 0OW      0.060700
     35 H12         0.4230    4.2140   -0.0050 hn        1 0OW      0.452300
     36 H13         2.0460    3.8250   -0.3580 hn        1 0OW      0.452300
     37 H14        -1.7430   -1.9210    1.2160 h1        1 0OW      0.074700
     38 H15        -2.0480   -1.4180   -1.7660 hc        1 0OW      0.069700
     39 H16        -1.1740   -2.7580   -0.9240 hc        1 0OW      0.069700
     40 H17        -3.6330   -3.0900   -2.2210 hc        1 0OW      0.048200
     41 H18        -3.0780   -4.1250   -0.8530 hc        1 0OW      0.048200
     42 H19        -5.2360   -2.0420   -0.9020 hc        1 0OW      0.052700
     43 H20        -4.9530   -3.3750    0.2860 hc        1 0OW      0.052700
     44 H21        -4.0010   -1.8540    1.7720 h1        1 0OW      0.044700
     45 H22        -5.3510   -0.3130    0.7350 ho        1 0OW      0.402000
@<TRIPOS>BOND
     1    1    2 1   
     2    1   24 1   
     3    1   25 1   
     4    2    3 1   
     5    2   10 2   
     6    3    4 ar  
     7    3   16 ar  
     8    4   11 1   
     9    4   12 ar  
    10    5    6 1   
    11    5    9 1   
    12    5   14 1   
    13    5   26 1   
    14    6    7 1   
    15    6   27 1   
    16    6   28 1   
    17    7    8 1   
    18    7   29 1   
    19    7   30 1   
    20    8    9 1   
    21    8   31 1   
    22    8   32 1   
    23    9   33 1   
    24    9   34 1   
    25   11   35 1   
    26   11   36 1   
    27   12   13 ar  
    28   13   14 1   
    29   13   15 ar  
    30   15   16 ar  
    31   16   17 1   
    32   17   18 1   
    33   18   19 1   
    34   18   22 1   
    35   18   37 1   
    36   19   20 1   
    37   19   38 1   
    38   19   39 1   
    39   20   21 1   
    40   20   40 1   
    41   20   41 1   
    42   21   22 1   
    43   21   42 1   
    44   21   43 1   
    45   22   23 1   
    46   22   44 1   
    47   23   45 1   
@<TRIPOS>SUBSTRUCTURE
     1 0OW         1 TEMP              0 ****  ****    0 ROOT
