@<TRIPOS>MOLECULE
0OW
   45    44     1     0     0
SMALL
bcc


@<TRIPOS>ATOM
      1 N1         -3.7120   -0.6830   -2.2780 n         1 0OW     -0.400000
      2 C2         -2.2560   -0.5080   -2.2770 c2        1 0OW      0.378000
      3 C4         -1.5160   -0.3330   -0.9650 c2        1 0OW     -0.353000
      4 C5         -2.1950   -0.4550    0.2250 c2        1 0OW      0.265000
      5 C10         0.2750   -1.2510    3.5120 c3        1 0OW      0.043000
      6 C11         1.6670   -1.8230    4.1680 c3        1 0OW     -0.171500
      7 C12         1.9320   -1.0480    5.2000 c3        1 0OW     -0.158000
      8 C13         0.5390   -0.5090    5.6680 c3        1 0OW     -0.158000
      9 C14        -0.4740   -0.8830    4.5090 c3        1 0OW     -0.171500
     10 O3         -1.6580   -0.4010   -3.3270 o         1 0OW     -0.416000
     11 N6         -3.4660   -0.9940    0.7980 n3        1 0OW     -0.339000
     12 N7         -1.5230   -0.4270    1.3870 n1        1 0OW     -0.329000
     13 C8         -0.1490   -0.2750    1.3910 c1        1 0OW      0.243000
     14 O9          0.5600   -0.1180    2.6620 os        1 0OW     -0.175000
     15 N15         0.5330   -0.1530    0.2040 n1        1 0OW     -0.292000
     16 C16        -0.1380   -0.1810   -0.9650 c1        1 0OW      0.228000
     17 O17         0.5800   -0.2280   -2.1970 o         1 0OW     -0.212000
     18 C18         0.4830    1.0570   -2.8620 c3        1 0OW      0.005000
     19 C20         0.2070    0.8550   -4.4380 c3        1 0OW     -0.163000
     20 C21         1.2780    1.7670   -5.1760 c3        1 0OW     -0.155000
     21 C22         1.8130    2.5470   -4.1970 c3        1 0OW     -0.161000
     22 C23         1.6610    1.6980   -2.7920 c3        1 0OW      0.018000
     23 O25         2.7130    0.7620   -2.6640 oh        1 0OW     -0.317000
     24 H1         -4.0900   -1.2130   -2.8710 hn        1 0OW      0.224000
     25 H2         -4.2420   -0.1630   -1.7190 hn        1 0OW      0.224000
     26 H3         -0.1510   -1.9240    3.0170 h1        1 0OW      0.109000
     27 H4          1.5410   -2.7410    4.4640 hc        1 0OW      0.100750
     28 H5          2.3880   -1.7760    3.5160 hc        1 0OW      0.100750
     29 H6          2.3670   -1.5780    5.9330 hc        1 0OW      0.084500
     30 H7          2.5130   -0.2970    4.9250 hc        1 0OW      0.084500
     31 H8          0.2790   -0.9350    6.4820 hc        1 0OW      0.084500
     32 H9          0.5700    0.4070    5.7810 hc        1 0OW      0.084500
     33 H10        -0.9970   -0.1240    4.2690 hc        1 0OW      0.100750
     34 H11        -1.0410   -1.6030    4.7830 hc        1 0OW      0.100750
     35 H12        -3.5930   -1.0000    1.7100 hn        1 0OW      0.250500
     36 H13        -4.1090   -1.3010    0.2540 hn        1 0OW      0.250500
     37 H14        -0.2140    1.5890   -2.4660 h1        1 0OW      0.120000
     38 H15        -0.6870    1.1440   -4.6580 hc        1 0OW      0.096000
     39 H16         0.3260   -0.0640   -4.6830 hc        1 0OW      0.096000
     40 H17         1.9930    1.1990   -5.6000 hc        1 0OW      0.086500
     41 H18         0.8350    2.3330   -5.8610 hc        1 0OW      0.086500
     42 H19         2.7560    2.7160   -4.3830 hc        1 0OW      0.101000
     43 H20         1.3080    3.4200   -4.1340 hc        1 0OW      0.101000
     44 H21         1.6610    2.3310   -2.0090 h1        1 0OW      0.099000
     45 H22         3.4290    1.1630   -2.3370 ho        1 0OW      0.207000
@<TRIPOS>BOND
     1    1    2 1   
     2    1   24 1   
     3    1   25 1   
     4    2    3 1   
     5    2   10 1   
     6    3    4 1   
     7    3   16 1   
     8    4   11 1   
     9    4   12 1   
    10    5    6 1   
    11    5    9 1   
    12    5   14 1   
    13    5   26 1   
    14    6    7 1   
    15    6   27 1   
    16    6   28 1   
    17    7    8 1   
    18    7   29 1   
    19    7   30 1   
    20    8    9 1   
    21    8   31 1   
    22    8   32 1   
    23    9   33 1   
    24    9   34 1   
    25   11   35 1   
    26   11   36 1   
    27   13   14 1   
    28   13   15 1   
    29   17   18 1   
    30   18   19 1   
    31   18   22 1   
    32   18   37 1   
    33   19   20 1   
    34   19   38 1   
    35   19   39 1   
    36   20   21 1   
    37   20   40 1   
    38   20   41 1   
    39   21   22 1   
    40   21   42 1   
    41   21   43 1   
    42   22   23 1   
    43   22   44 1   
    44   23   45 1   
@<TRIPOS>SUBSTRUCTURE
     1 0OW         1 TEMP              0 ****  ****    0 ROOT
