@<TRIPOS>MOLECULE
0OX
   30    31     1     0     0
SMALL
bcc


@<TRIPOS>ATOM
      1 C2          3.6260    0.6430    0.3890 c         1 0OX      0.703700
      2 C4          2.2170    0.2920    0.1320 ca        1 0OX     -0.501200
      3 C5          1.2170    1.2780    0.0430 ca        1 0OX      0.518200
      4 C10        -3.9620   -0.4510   -1.1050 c3        1 0OX     -0.092900
      5 C11        -5.0350   -0.2200   -0.0530 c3        1 0OX     -0.079400
      6 C12        -4.5130    0.8330    0.9150 c3        1 0OX     -0.079400
      7 C13        -3.0100    0.9330    0.7100 c3        1 0OX     -0.092900
      8 N1          4.1060    1.8300   -0.1120 n         1 0OX     -0.670000
      9 O3          4.4020   -0.0880    1.0500 o         1 0OX     -0.647100
     10 N6         -0.0780    1.0190   -0.1750 nb        1 0OX     -0.796000
     11 C7         -0.3920   -0.3230   -0.3070 ca        1 0OX      0.909300
     12 O8         -1.6860   -0.7250   -0.5440 os        1 0OX     -0.416100
     13 C9         -2.7030    0.2980   -0.6470 c3        1 0OX      0.154100
     14 N14         0.4580   -1.3860   -0.2250 nb        1 0OX     -0.785000
     15 C15         1.7890   -1.0810   -0.0030 ca        1 0OX      0.765200
     16 N16         2.6880   -2.1130    0.0310 nh        1 0OX     -0.943500
     17 H1          1.4580    2.3510    0.1710 h4        1 0OX      0.025100
     18 H3         -4.2840   -0.0590   -2.1020 hc        1 0OX      0.061450
     19 H4         -5.9900    0.1150   -0.5270 hc        1 0OX      0.044700
     20 H5         -5.2500   -1.1740    0.4930 hc        1 0OX      0.044700
     21 H6         -4.9970    1.8210    0.7090 hc        1 0OX      0.044700
     22 H7         -4.7530    0.5580    1.9720 hc        1 0OX      0.044700
     23 H8         -2.6660    1.9960    0.7330 hc        1 0OX      0.061450
     24 H9         -2.4630    0.3810    1.5170 hc        1 0OX      0.061450
     25 H10         3.5650    2.3860   -0.7210 hn        1 0OX      0.313000
     26 H11         5.0550    2.0670    0.0390 hn        1 0OX      0.313000
     27 H12        -2.3830    1.0600   -1.4030 h1        1 0OX      0.068700
     28 H13         3.6000   -1.9310    0.3860 hn        1 0OX      0.454800
     29 H14         2.3600   -3.0500    0.0240 hn        1 0OX      0.454800
     30 H2         -3.7410   -1.5430   -1.2230 hc        1 0OX      0.061450
@<TRIPOS>BOND
     1    1    2 1   
     2    1    8 1   
     3    1    9 2   
     4    2    3 ar  
     5    2   15 ar  
     6    3   10 ar  
     7    3   17 1   
     8    4    5 1   
     9    4   13 1   
    10    4   18 1   
    11    4   30 1   
    12    5    6 1   
    13    5   19 1   
    14    5   20 1   
    15    6    7 1   
    16    6   21 1   
    17    6   22 1   
    18    7   13 1   
    19    7   23 1   
    20    7   24 1   
    21    8   25 1   
    22    8   26 1   
    23   10   11 ar  
    24   11   12 1   
    25   11   14 ar  
    26   12   13 1   
    27   13   27 1   
    28   14   15 ar  
    29   15   16 1   
    30   16   28 1   
    31   16   29 1   
@<TRIPOS>SUBSTRUCTURE
     1 0OX         1 TEMP              0 ****  ****    0 ROOT
