@<TRIPOS>MOLECULE
0OX
   32    33     1     0     0
SMALL
bcc


@<TRIPOS>ATOM
      1 C2          0.0470    0.1880   -0.2340 c         1 0OX      0.593700
      2 C4          1.4600    0.0370   -0.0140 ca        1 0OX     -0.535200
      3 C5          2.0810    0.0430    1.2810 ca        1 0OX      0.560200
      4 C10         7.6290   -0.8310    1.3550 c3        1 0OX     -0.099900
      5 C11         8.5130    0.3710    1.6590 c3        1 0OX     -0.085400
      6 C12         7.6950    1.3380    2.5030 c3        1 0OX     -0.085400
      7 C13         6.2270    0.9600    2.3400 c3        1 0OX     -0.099900
      8 N1         -0.8650    0.3610    0.9510 n4        1 0OX     -0.741400
      9 O3         -0.5380    0.1930   -1.3190 o         1 0OX     -0.481100
     10 N6          3.3790   -0.0970    1.4870 nb        1 0OX     -0.694000
     11 C7          4.1890   -0.2620    0.3590 ca        1 0OX      1.002300
     12 O8          5.4980   -0.4290    0.4200 os        1 0OX     -0.339100
     13 C9          6.2020   -0.4390    1.7350 c3        1 0OX      0.161100
     14 N14         3.6970   -0.2830   -0.9620 nb        1 0OX     -0.692000
     15 C15         2.3810   -0.1360   -1.1090 ca        1 0OX      0.657200
     16 N16         1.8900   -0.1610   -2.5090 n4        1 0OX     -0.844300
     17 H1          1.4860    0.1680    2.2100 h4        1 0OX      0.056100
     18 H4          9.4380    0.0510    2.2030 hc        1 0OX      0.074450
     19 H5          8.8390    0.8620    0.7080 hc        1 0OX      0.074450
     20 H6          7.8700    2.3950    2.1830 hc        1 0OX      0.074450
     21 H7          7.9920    1.2620    3.5810 hc        1 0OX      0.074450
     22 H8          5.7080    1.6870    1.6650 hc        1 0OX      0.077450
     23 H9          5.6970    0.9660    3.3250 hc        1 0OX      0.077450
     24 H10        -0.8060   -0.4540    1.5740 hn        1 0OX      0.489800
     25 H11        -1.8410    0.4540    0.6160 hn        1 0OX      0.489800
     26 H12         5.6840   -1.2010    2.3720 h1        1 0OX      0.095700
     27 H13         1.4080    0.7270   -2.7140 hn        1 0OX      0.498800
     28 H14         1.2150   -0.9330   -2.6170 hn        1 0OX      0.498800
     29 H2          7.6950   -1.1200    0.2740 hc        1 0OX      0.077450
     30 H131       -0.6170    1.2080    1.4770 hn        1 0OX      0.489800
     31 H163        2.6700   -0.2910   -3.1800 hn        1 0OX      0.498800
     32 H3          7.9310   -1.7220    1.9640 hc        1 0OX      0.077450
@<TRIPOS>BOND
     1    1    2 1   
     2    1    8 1   
     3    1    9 2   
     4    2    3 ar  
     5    2   15 ar  
     6    3   10 ar  
     7    3   17 1   
     8    4    5 1   
     9    4   13 1   
    10    4   29 1   
    11    4   32 1   
    12    5    6 1   
    13    5   18 1   
    14    5   19 1   
    15    6    7 1   
    16    6   20 1   
    17    6   21 1   
    18    7   13 1   
    19    7   22 1   
    20    7   23 1   
    21    8   24 1   
    22    8   25 1   
    23    8   30 1   
    24   10   11 ar  
    25   11   12 1   
    26   11   14 ar  
    27   12   13 1   
    28   13   26 1   
    29   14   15 ar  
    30   15   16 1   
    31   16   27 1   
    32   16   28 1   
    33   16   31 1   
@<TRIPOS>SUBSTRUCTURE
     1 0OX         1 TEMP              0 ****  ****    0 ROOT
