@<TRIPOS>MOLECULE
0OX
   31    32     1     0     0
SMALL
bcc


@<TRIPOS>ATOM
      1 C2          0.0470    0.1570   -0.2110 c         1 0OX      0.600700
      2 C4          1.4510    0.0300   -0.0490 ca        1 0OX     -0.582200
      3 C5          2.1030   -0.0090    1.2290 ca        1 0OX      0.535200
      4 C10         7.6190   -0.7810    1.2750 c3        1 0OX     -0.093400
      5 C11         8.5090    0.2280    1.9840 c3        1 0OX     -0.081400
      6 C12         7.6400    1.4120    2.3820 c3        1 0OX     -0.081400
      7 C13         6.1840    0.9850    2.2510 c3        1 0OX     -0.093400
      8 N1         -0.8000    0.2500    1.0600 nz        1 0OX     -0.759400
      9 O3         -0.6580    0.2080   -1.2190 o         1 0OX     -0.500100
     10 N6          3.3990   -0.1260    1.4070 nb        1 0OX     -0.742000
     11 C7          4.1750   -0.2230    0.2310 ca        1 0OX      0.964300
     12 O8          5.5190   -0.3600    0.2920 os        1 0OX     -0.381100
     13 C9          6.1720   -0.3950    1.5980 c3        1 0OX      0.150100
     14 N14         3.7050   -0.2000   -1.0430 nb        1 0OX     -0.778000
     15 C15         2.3360   -0.0730   -1.2100 ca        1 0OX      0.817200
     16 N16         1.8690   -0.0480   -2.4790 nv        1 0OX     -0.905500
     17 H1          1.5260    0.0630    2.1720 h4        1 0OX      0.012100
     18 H4          8.9700   -0.2380    2.8920 hc        1 0OX      0.057450
     19 H5          9.3450    0.5530    1.3160 hc        1 0OX      0.057450
     20 H6          7.8650    1.7340    3.4300 hc        1 0OX      0.057450
     21 H7          7.8460    2.2870    1.7140 hc        1 0OX      0.057450
     22 H8          5.6920    0.9310    3.2540 hc        1 0OX      0.065700
     23 H9          5.6120    1.7190    1.6300 hc        1 0OX      0.065700
     24 H10        -1.7890    0.3350    0.7930 hn        1 0OX      0.463133
     25 H11        -0.6750   -0.5900    1.6290 hn        1 0OX      0.463133
     26 H12         5.6630   -1.1660    2.2310 h1        1 0OX      0.077700
     27 H13         0.8960    0.0410   -2.6680 hn        1 0OX      0.477300
     28 H14         2.4970   -0.1200   -3.2520 hn        1 0OX      0.477300
     29 H2          7.7850   -0.7520    0.1660 hc        1 0OX      0.065700
     30 H131       -0.5270    1.0700    1.6050 hn        1 0OX      0.463133
     31 H3          7.8240   -1.8240    1.6210 hc        1 0OX      0.065700
@<TRIPOS>BOND
     1    1    2 1   
     2    1    8 1   
     3    1    9 2   
     4    2    3 ar  
     5    2   15 ar  
     6    3   10 ar  
     7    3   17 1   
     8    4    5 1   
     9    4   13 1   
    10    4   29 1   
    11    4   31 1   
    12    5    6 1   
    13    5   18 1   
    14    5   19 1   
    15    6    7 1   
    16    6   20 1   
    17    6   21 1   
    18    7   13 1   
    19    7   22 1   
    20    7   23 1   
    21    8   24 1   
    22    8   25 1   
    23    8   30 1   
    24   10   11 ar  
    25   11   12 1   
    26   11   14 ar  
    27   12   13 1   
    28   13   26 1   
    29   14   15 ar  
    30   15   16 1   
    31   16   27 1   
    32   16   28 1   
@<TRIPOS>SUBSTRUCTURE
     1 0OX         1 TEMP              0 ****  ****    0 ROOT
