@<TRIPOS>MOLECULE
0OX
   31    32     1     0     0
SMALL
bcc


@<TRIPOS>ATOM
      1 C2          0.0560    0.1950   -0.2480 c         1 0OX      0.600700
      2 C4          1.4580    0.0550   -0.0730 ca        1 0OX     -0.582200
      3 C5          2.0980    0.0110    1.2110 ca        1 0OX      0.535200
      4 C10         7.6050   -0.8120    1.3080 c3        1 0OX     -0.093400
      5 C11         8.4980    0.1890    2.0250 c3        1 0OX     -0.081400
      6 C12         7.6360    1.3820    2.4140 c3        1 0OX     -0.081400
      7 C13         6.1780    0.9680    2.2700 c3        1 0OX     -0.093400
      8 N1         -0.8010    0.2970    1.0150 n4        1 0OX     -0.759400
      9 O3         -0.6390    0.2520   -1.2620 o         1 0OX     -0.500100
     10 N6          3.3910   -0.1180    1.4010 nb        1 0OX     -0.742000
     11 C7          4.1760   -0.2230    0.2320 ca        1 0OX      0.964300
     12 O8          5.5190   -0.3730    0.3050 os        1 0OX     -0.381100
     13 C9          6.1590   -0.4130    1.6170 c3        1 0OX      0.150100
     14 N14         3.7180   -0.1970   -1.0470 nb        1 0OX     -0.778000
     15 C15         2.3520   -0.0570   -1.2260 ca        1 0OX      0.817200
     16 N16         1.8960   -0.0290   -2.4990 nh        1 0OX     -0.905500
     17 H1          1.5130    0.0880    2.1480 h4        1 0OX      0.012100
     18 H4          8.9460   -0.2800    2.9370 hc        1 0OX      0.057450
     19 H5          9.3430    0.5070    1.3650 hc        1 0OX      0.057450
     20 H6          7.8540    1.7020    3.4640 hc        1 0OX      0.057450
     21 H7          7.8560    2.2540    1.7480 hc        1 0OX      0.057450
     22 H8          5.6760    0.9190    3.2680 hc        1 0OX      0.065700
     23 H9          5.6180    1.7070    1.6430 hc        1 0OX      0.065700
     24 H10        -1.7880    0.3910    0.7400 hn        1 0OX      0.463133
     25 H11        -0.6900   -0.5430    1.5860 hn        1 0OX      0.463133
     26 H12         5.6370   -1.1790    2.2460 h1        1 0OX      0.077700
     27 H13         2.5310   -0.1070   -3.2660 hn        1 0OX      0.477300
     28 H14         0.9260    0.0690   -2.6970 hn        1 0OX      0.477300
     29 H2          7.7820   -0.7850    0.2010 hc        1 0OX      0.065700
     30 H131       -0.5260    1.1150    1.5620 hn        1 0OX      0.463133
     31 H3          7.7980   -1.8560    1.6570 hc        1 0OX      0.065700
@<TRIPOS>BOND
     1    1    2 1   
     2    1    8 1   
     3    1    9 2   
     4    2    3 ar  
     5    2   15 ar  
     6    3   10 ar  
     7    3   17 1   
     8    4    5 1   
     9    4   13 1   
    10    4   29 1   
    11    4   31 1   
    12    5    6 1   
    13    5   18 1   
    14    5   19 1   
    15    6    7 1   
    16    6   20 1   
    17    6   21 1   
    18    7   13 1   
    19    7   22 1   
    20    7   23 1   
    21    8   24 1   
    22    8   25 1   
    23    8   30 1   
    24   10   11 ar  
    25   11   12 1   
    26   11   14 ar  
    27   12   13 1   
    28   13   26 1   
    29   14   15 ar  
    30   15   16 1   
    31   16   27 1   
    32   16   28 1   
@<TRIPOS>SUBSTRUCTURE
     1 0OX         1 TEMP              0 ****  ****    0 ROOT
