@<TRIPOS>MOLECULE
0OY
   28    29     1     0     0
SMALL
bcc


@<TRIPOS>ATOM
      1 O1          0.0370   -0.3100    0.0370 o         1 0OY     -0.594100
      2 C1          1.2680   -0.1070   -0.0050 c         1 0OY      0.670700
      3 N           1.9820    0.1370    1.1690 n         1 0OY     -0.458800
      4 C11         1.3020    0.0710    2.4480 c3        1 0OY      0.047000
      5 C10         1.7490   -1.1100    3.3200 c3        1 0OY      0.101400
      6 O3          3.1670   -1.1770    3.4290 os        1 0OY     -0.411600
      7 C9          3.8070   -1.2430    2.1610 c3        1 0OY      0.101400
      8 C8          3.4110   -0.0620    1.2600 c3        1 0OY      0.047000
      9 C2          1.9800   -0.0460   -1.3120 ca        1 0OY     -0.174600
     10 C7          1.7560   -1.0700   -2.2420 ca        1 0OY     -0.056000
     11 C6          2.3590   -1.0290   -3.4930 ca        1 0OY     -0.195000
     12 C5          3.1840    0.0630   -3.8180 ca        1 0OY      0.144100
     13 O2          3.7530    0.0480   -5.0680 oh        1 0OY     -0.492100
     14 C4          3.4000    1.1010   -2.8990 ca        1 0OY     -0.195000
     15 C3          2.7950    1.0390   -1.6470 ca        1 0OY     -0.056000
     16 H1          0.1890    0.0060    2.2880 h1        1 0OY      0.068950
     17 H2          1.5330    1.0300    2.9940 h1        1 0OY      0.068950
     18 H3          1.3590   -2.0800    2.9120 h1        1 0OY      0.056950
     19 H4          1.3960   -0.9670    4.3740 h1        1 0OY      0.056950
     20 H5          4.9020   -1.1940    2.3970 h1        1 0OY      0.056950
     21 H6          3.5640   -2.2200    1.6670 h1        1 0OY      0.056950
     22 H7          3.8540    0.8810    1.6930 h1        1 0OY      0.068950
     23 H8          3.8560   -0.2280    0.2400 h1        1 0OY      0.068950
     24 H9          1.0850   -1.9030   -1.9790 ha        1 0OY      0.149000
     25 H10         2.1970   -1.8260   -4.2320 ha        1 0OY      0.148000
     26 H11         4.2690    0.8620   -5.1730 ho        1 0OY      0.423000
     27 H12         4.0360    1.9560   -3.1670 ha        1 0OY      0.148000
     28 H13         2.9550    1.8540   -0.9230 ha        1 0OY      0.149000
@<TRIPOS>BOND
     1    1    2 2   
     2    2    3 1   
     3    2    9 1   
     4    3    4 1   
     5    3    8 1   
     6    4    5 1   
     7    4   16 1   
     8    4   17 1   
     9    5    6 1   
    10    5   18 1   
    11    5   19 1   
    12    6    7 1   
    13    7    8 1   
    14    7   20 1   
    15    7   21 1   
    16    8   22 1   
    17    8   23 1   
    18    9   10 ar  
    19    9   15 ar  
    20   10   11 ar  
    21   10   24 1   
    22   11   12 ar  
    23   11   25 1   
    24   12   13 1   
    25   12   14 ar  
    26   13   26 1   
    27   14   15 ar  
    28   14   27 1   
    29   15   28 1   
@<TRIPOS>SUBSTRUCTURE
     1 0OY         1 TEMP              0 ****  ****    0 ROOT
