@<TRIPOS>MOLECULE
0OY
   28    29     1     0     0
SMALL
bcc


@<TRIPOS>ATOM
      1 O1          0.0370   -0.2850    0.0330 o         1 0OY     -0.594100
      2 C1          1.2690   -0.0950   -0.0070 c         1 0OY      0.670700
      3 N           1.9840    0.1390    1.1700 n         1 0OY     -0.458800
      4 C11         1.3000    0.0760    2.4470 c3        1 0OY      0.047000
      5 C10         1.7340   -1.1120    3.3160 c3        1 0OY      0.101400
      6 O3          3.1520   -1.1930    3.4280 os        1 0OY     -0.411600
      7 C9          3.7930   -1.2620    2.1600 c3        1 0OY      0.101400
      8 C8          3.4100   -0.0750    1.2620 c3        1 0OY      0.047000
      9 C2          1.9850   -0.0370   -1.3120 ca        1 0OY     -0.174600
     10 C7          1.7510   -1.0550   -2.2460 ca        1 0OY     -0.056000
     11 C6          2.3570   -1.0170   -3.4960 ca        1 0OY     -0.195000
     12 C5          3.1940    0.0670   -3.8160 ca        1 0OY      0.144100
     13 O2          3.7650    0.0500   -5.0650 oh        1 0OY     -0.492100
     14 C4          3.4200    1.1000   -2.8930 ca        1 0OY     -0.195000
     15 C3          2.8120    1.0410   -1.6420 ca        1 0OY     -0.056000
     16 H1          1.5400    1.0310    2.9960 h1        1 0OY      0.068950
     17 H2          0.1870    0.0230    2.2850 h1        1 0OY      0.068950
     18 H3          1.3350   -2.0760    2.9050 h1        1 0OY      0.056950
     19 H4          1.3810   -0.9680    4.3700 h1        1 0OY      0.056950
     20 H5          4.8890   -1.2240    2.3990 h1        1 0OY      0.056950
     21 H6          3.5410   -2.2360    1.6640 h1        1 0OY      0.056950
     22 H7          3.8560   -0.2420    0.2430 h1        1 0OY      0.068950
     23 H8          3.8620    0.8630    1.6980 h1        1 0OY      0.068950
     24 H9          1.0700   -1.8820   -1.9870 ha        1 0OY      0.149000
     25 H10         2.1880   -1.8100   -4.2380 ha        1 0OY      0.148000
     26 H11         4.2900    0.8580   -5.1670 ho        1 0OY      0.423000
     27 H12         4.0650    1.9490   -3.1580 ha        1 0OY      0.148000
     28 H13         2.9790    1.8510   -0.9150 ha        1 0OY      0.149000
@<TRIPOS>BOND
     1    1    2 2   
     2    2    3 1   
     3    2    9 1   
     4    3    4 1   
     5    3    8 1   
     6    4    5 1   
     7    4   16 1   
     8    4   17 1   
     9    5    6 1   
    10    5   18 1   
    11    5   19 1   
    12    6    7 1   
    13    7    8 1   
    14    7   20 1   
    15    7   21 1   
    16    8   22 1   
    17    8   23 1   
    18    9   10 ar  
    19    9   15 ar  
    20   10   11 ar  
    21   10   24 1   
    22   11   12 ar  
    23   11   25 1   
    24   12   13 1   
    25   12   14 ar  
    26   13   26 1   
    27   14   15 ar  
    28   14   27 1   
    29   15   28 1   
@<TRIPOS>SUBSTRUCTURE
     1 0OY         1 TEMP              0 ****  ****    0 ROOT
