@<TRIPOS>MOLECULE
0OY
   28    26     1     0     0
SMALL
bcc


@<TRIPOS>ATOM
      1 O1         -2.4750    0.3780    0.1750 o         1 0OY     -0.358000
      2 C1         -1.2620    0.3120    0.1670 c1        1 0OY      0.350000
      3 N          -0.5490    0.2260    1.3890 n2        1 0OY     -0.331000
      4 C11         0.7200    0.1600    1.3170 c3        1 0OY     -0.056000
      5 C10         1.2860   -0.8050    2.3350 c3        1 0OY     -0.032500
      6 O3          0.2480   -1.7960    2.8600 os        1 0OY     -0.278000
      7 C9         -0.6700   -0.7440    3.4800 c3        1 0OY     -0.032500
      8 C8         -1.2360    0.2210    2.4620 c3        1 0OY     -0.056000
      9 C2         -0.5160    0.2690   -1.1470 c2        1 0OY     -0.155000
     10 C7         -0.0780    1.4460   -1.7340 c1        1 0OY     -0.042000
     11 C6          0.5390    1.4140   -2.9740 c1        1 0OY     -0.223000
     12 C5          0.7180    0.2050   -3.6280 c1        1 0OY      0.101000
     13 O2          1.3490    0.1720   -4.8850 oh        1 0OY     -0.247000
     14 C4          0.2800   -0.9720   -3.0420 c1        1 0OY     -0.168000
     15 C3         -0.3370   -0.9400   -1.8020 c2        1 0OY     -0.067000
     16 H1          1.0970    1.0510    1.4770 h1        1 0OY      0.100000
     17 H2          0.9740   -0.1380    0.4180 h1        1 0OY      0.100000
     18 H3          1.6410   -0.2940    3.0890 h1        1 0OY      0.094250
     19 H4          2.0170   -1.3060    1.9210 h1        1 0OY      0.094250
     20 H5         -1.4110   -1.1980    3.9280 h1        1 0OY      0.094250
     21 H6         -0.1630   -0.2370    4.1450 h1        1 0OY      0.094250
     22 H7         -1.2380    1.1240    2.8440 h1        1 0OY      0.100000
     23 H8         -2.1570   -0.0400    2.2510 h1        1 0OY      0.100000
     24 H9         -0.2040    2.2970   -1.2730 ha        1 0OY      0.154000
     25 H10         0.8480    2.2430   -3.3870 ha        1 0OY      0.141000
     26 H11         0.8170    0.5420   -5.4940 ho        1 0OY      0.223000
     27 H12         0.4060   -1.8230   -3.5030 ha        1 0OY      0.156000
     28 H13        -0.6460   -1.7690   -1.3890 ha        1 0OY      0.144000
@<TRIPOS>BOND
     1    1    2 1   
     2    2    9 1   
     3    3    4 1   
     4    3    8 1   
     5    4    5 1   
     6    4   16 1   
     7    4   17 1   
     8    5    6 1   
     9    5   18 1   
    10    5   19 1   
    11    6    7 1   
    12    7    8 1   
    13    7   20 1   
    14    7   21 1   
    15    8   22 1   
    16    8   23 1   
    17    9   10 1   
    18    9   15 1   
    19   10   24 1   
    20   11   12 1   
    21   11   25 1   
    22   12   13 1   
    23   13   26 1   
    24   14   15 1   
    25   14   27 1   
    26   15   28 1   
@<TRIPOS>SUBSTRUCTURE
     1 0OY         1 TEMP              0 ****  ****    0 ROOT
