@<TRIPOS>MOLECULE
0OY
   28    29     1     0     0
SMALL
bcc


@<TRIPOS>ATOM
      1 O1         -0.7420   -2.3200    0.0210 o         1 0OY     -0.594100
      2 C1         -0.5050   -1.1090   -0.1680 c         1 0OY      0.670700
      3 N          -1.5360   -0.2370   -0.5230 n         1 0OY     -0.458800
      4 C11        -2.8980   -0.7280   -0.5890 c3        1 0OY      0.047000
      5 C10        -3.8100   -0.1520    0.5030 c3        1 0OY      0.101400
      6 O3         -3.7220    1.2680    0.5680 os        1 0OY     -0.411600
      7 C9         -2.3890    1.7210    0.7630 c3        1 0OY      0.101400
      8 C8         -1.4410    1.1910   -0.3250 c3        1 0OY      0.047000
      9 C2          0.8900   -0.5910   -0.0950 ca        1 0OY     -0.174600
     10 C7          1.6720   -0.9380    1.0150 ca        1 0OY     -0.056000
     11 C6          2.9940   -0.5190    1.1020 ca        1 0OY     -0.195000
     12 C5          3.5400    0.2430    0.0540 ca        1 0OY      0.144100
     13 O2          4.8500    0.6290    0.1960 oh        1 0OY     -0.492100
     14 C4          2.7690    0.5800   -1.0690 ca        1 0OY     -0.195000
     15 C3          1.4430    0.1600   -1.1360 ca        1 0OY     -0.056000
     16 H1         -3.3080   -0.4290   -1.5960 h1        1 0OY      0.068950
     17 H2         -2.9060   -1.8520   -0.5160 h1        1 0OY      0.068950
     18 H3         -4.8850   -0.3520    0.2530 h1        1 0OY      0.056950
     19 H4         -3.5600   -0.5890    1.5050 h1        1 0OY      0.056950
     20 H5         -2.4610    2.8380    0.6980 h1        1 0OY      0.056950
     21 H6         -2.0340    1.4170    1.7830 h1        1 0OY      0.056950
     22 H7         -0.3900    1.4880   -0.0560 h1        1 0OY      0.068950
     23 H8         -1.7100    1.6840   -1.3030 h1        1 0OY      0.068950
     24 H9          1.2350   -1.5580    1.8130 ha        1 0OY      0.149000
     25 H10         3.6200   -0.7780    1.9680 ha        1 0OY      0.148000
     26 H11         5.1090    1.1180   -0.6000 ho        1 0OY      0.423000
     27 H12         3.2080    1.1650   -1.8890 ha        1 0OY      0.148000
     28 H13         0.8340    0.4150   -2.0180 ha        1 0OY      0.149000
@<TRIPOS>BOND
     1    1    2 2   
     2    2    3 1   
     3    2    9 1   
     4    3    4 1   
     5    3    8 1   
     6    4    5 1   
     7    4   16 1   
     8    4   17 1   
     9    5    6 1   
    10    5   18 1   
    11    5   19 1   
    12    6    7 1   
    13    7    8 1   
    14    7   20 1   
    15    7   21 1   
    16    8   22 1   
    17    8   23 1   
    18    9   10 ar  
    19    9   15 ar  
    20   10   11 ar  
    21   10   24 1   
    22   11   12 ar  
    23   11   25 1   
    24   12   13 1   
    25   12   14 ar  
    26   13   26 1   
    27   14   15 ar  
    28   14   27 1   
    29   15   28 1   
@<TRIPOS>SUBSTRUCTURE
     1 0OY         1 TEMP              0 ****  ****    0 ROOT
