@<TRIPOS>MOLECULE
0OY
   28    29     1     0     0
SMALL
bcc


@<TRIPOS>ATOM
      1 O1          0.0370   -0.2850    0.0350 o         1 0OY     -0.594100
      2 C1          1.2690   -0.0950   -0.0060 c         1 0OY      0.670700
      3 N           1.9850    0.1380    1.1700 n         1 0OY     -0.458800
      4 C11         1.3030    0.0740    2.4480 c3        1 0OY      0.047000
      5 C10         1.7360   -1.1140    3.3160 c3        1 0OY      0.101400
      6 O3          3.1540   -1.1960    3.4260 os        1 0OY     -0.411600
      7 C9          3.7950   -1.2640    2.1580 c3        1 0OY      0.101400
      8 C8          3.4110   -0.0760    1.2610 c3        1 0OY      0.047000
      9 C2          1.9840   -0.0350   -1.3110 ca        1 0OY     -0.174600
     10 C7          1.7500   -1.0540   -2.2450 ca        1 0OY     -0.056000
     11 C6          2.3560   -1.0150   -3.4950 ca        1 0OY     -0.195000
     12 C5          3.1910    0.0690   -3.8160 ca        1 0OY      0.144100
     13 O2          3.7620    0.0530   -5.0650 oh        1 0OY     -0.492100
     14 C4          3.4170    1.1020   -2.8930 ca        1 0OY     -0.195000
     15 C3          2.8100    1.0420   -1.6420 ca        1 0OY     -0.056000
     16 H1          0.1890    0.0220    2.2870 h1        1 0OY      0.068950
     17 H2          1.5430    1.0290    2.9980 h1        1 0OY      0.068950
     18 H3          1.3840   -0.9710    4.3710 h1        1 0OY      0.056950
     19 H4          1.3370   -2.0780    2.9040 h1        1 0OY      0.056950
     20 H5          3.5410   -2.2370    1.6610 h1        1 0OY      0.056950
     21 H6          4.8900   -1.2270    2.3960 h1        1 0OY      0.056950
     22 H7          3.8560   -0.2420    0.2420 h1        1 0OY      0.068950
     23 H8          3.8640    0.8610    1.6980 h1        1 0OY      0.068950
     24 H9          1.0710   -1.8820   -1.9860 ha        1 0OY      0.149000
     25 H10         2.1870   -1.8080   -4.2370 ha        1 0OY      0.148000
     26 H11         4.2850    0.8620   -5.1680 ho        1 0OY      0.423000
     27 H12         4.0610    1.9520   -3.1580 ha        1 0OY      0.148000
     28 H13         2.9770    1.8530   -0.9150 ha        1 0OY      0.149000
@<TRIPOS>BOND
     1    1    2 2   
     2    2    3 1   
     3    2    9 1   
     4    3    4 1   
     5    3    8 1   
     6    4    5 1   
     7    4   16 1   
     8    4   17 1   
     9    5    6 1   
    10    5   18 1   
    11    5   19 1   
    12    6    7 1   
    13    7    8 1   
    14    7   20 1   
    15    7   21 1   
    16    8   22 1   
    17    8   23 1   
    18    9   10 ar  
    19    9   15 ar  
    20   10   11 ar  
    21   10   24 1   
    22   11   12 ar  
    23   11   25 1   
    24   12   13 1   
    25   12   14 ar  
    26   13   26 1   
    27   14   15 ar  
    28   14   27 1   
    29   15   28 1   
@<TRIPOS>SUBSTRUCTURE
     1 0OY         1 TEMP              0 ****  ****    0 ROOT
