@<TRIPOS>MOLECULE
0P0
   36    35     1     0     0
SMALL
bcc


@<TRIPOS>ATOM
      1 N          -2.3100    1.8330    0.4520 n4        1 0P0     -0.836600
      2 CA         -3.4000    1.4980   -0.5100 c3        1 0P0     -0.056500
      3 C          -4.6760    2.4200   -0.2400 c         1 0P0      0.930600
      4 O          -4.5650    3.2490    0.7000 o         1 0P0     -0.778800
      5 CB         -3.8320    0.0410   -0.4590 c3        1 0P0     -0.084400
      6 CG         -2.8420   -0.9150   -1.0890 c3        1 0P0     -0.163400
      7 CD         -1.6170   -1.1100   -0.2120 c         1 0P0      0.643100
      8 OE1        -1.7120   -1.0780    1.0360 o         1 0P0     -0.635100
      9 OXT        -5.6420    2.2290   -1.0040 o         1 0P0     -0.778800
     10 N1         -0.4110   -1.3870   -0.8350 n         1 0P0     -0.516900
     11 CA1         0.8330   -1.2550   -0.1010 c3        1 0P0      0.008700
     12 C1          1.1570    0.2240    0.2680 c         1 0P0      0.641100
     13 O1          0.3760    1.1450   -0.0770 o         1 0P0     -0.711100
     14 CB1         2.0210   -1.8190   -0.8940 c3        1 0P0      0.002700
     15 SG          3.1670   -2.6290    0.1910 sh        1 0P0     -0.471900
     16 N2          2.2680    0.4450    1.0500 n         1 0P0     -0.474900
     17 CA2         3.0830    1.6210    0.8250 c3        1 0P0     -0.082000
     18 C2          4.2910    1.3690   -0.1280 c         1 0P0      0.902600
     19 O2          4.3930    0.2300   -0.6790 o         1 0P0     -0.838300
     20 OXT1        5.0920    2.3210   -0.2860 o         1 0P0     -0.838300
     21 H          -2.0540    1.0250    1.0270 hn        1 0P0      0.459467
     22 H2         -1.4740    2.1580   -0.0390 hn        1 0P0      0.459467
     23 H3         -2.6670    2.5910    1.0640 hn        1 0P0      0.459467
     24 HA         -3.0330    1.7540   -1.5430 hx        1 0P0      0.083700
     25 HB2        -4.0400   -0.2730    0.5980 hc        1 0P0      0.091200
     26 HB3        -4.8040   -0.0120   -1.0270 hc        1 0P0      0.091200
     27 HG2        -3.3260   -1.9220   -1.2090 hc        1 0P0      0.068700
     28 HG3        -2.5590   -0.5490   -2.1110 hc        1 0P0      0.068700
     29 H1         -0.3480   -1.1700   -1.8050 hn        1 0P0      0.301500
     30 HA1         0.7090   -1.8320    0.8670 h1        1 0P0      0.112700
     31 HB21        1.6830   -2.5900   -1.6290 h1        1 0P0      0.099700
     32 HB31        2.5520   -1.0000   -1.4470 h1        1 0P0      0.099700
     33 HG          4.2290   -1.8020    0.0240 hs        1 0P0      0.316800
     34 H4          2.8360   -0.3770    1.1880 hn        1 0P0      0.305500
     35 HA2         2.4570    2.4470    0.3940 h1        1 0P0      0.059200
     36 HA3         3.4790    1.9530    1.8230 h1        1 0P0      0.059200
@<TRIPOS>BOND
     1    1    2 1   
     2    1   21 1   
     3    1   22 1   
     4    1   23 1   
     5    2    3 1   
     6    2    5 1   
     7    2   24 1   
     8    3    4 1   
     9    3    9 1   
    10    5    6 1   
    11    5   25 1   
    12    5   26 1   
    13    6    7 1   
    14    6   27 1   
    15    6   28 1   
    16    7    8 2   
    17    7   10 1   
    18   10   11 1   
    19   10   29 1   
    20   11   12 1   
    21   11   14 1   
    22   11   30 1   
    23   12   13 2   
    24   12   16 1   
    25   14   15 1   
    26   14   31 1   
    27   14   32 1   
    28   15   33 1   
    29   16   17 1   
    30   16   34 1   
    31   17   18 1   
    32   17   35 1   
    33   17   36 1   
    34   18   19 1   
    35   18   20 1   
@<TRIPOS>SUBSTRUCTURE
     1 0P0         1 TEMP              0 ****  ****    0 ROOT
