@<TRIPOS>MOLECULE
0P0
   36    35     1     0     0
SMALL
bcc


@<TRIPOS>ATOM
      1 N          -3.0360   -2.7890    3.3920 n4        1 0P0     -0.833600
      2 CA         -2.2010   -3.1140    2.3150 c3        1 0P0     -0.056500
      3 C          -1.3970   -4.3720    2.6570 c         1 0P0      0.930600
      4 O          -0.7370   -4.4240    3.7260 o         1 0P0     -0.778300
      5 CB         -1.2540   -1.9660    2.0500 c3        1 0P0     -0.084400
      6 CG         -1.4760   -1.4360    0.6320 c3        1 0P0     -0.161400
      7 CD         -0.2890   -0.5680    0.2260 c         1 0P0      0.650100
      8 OE1         0.8180   -0.7880    0.6980 o         1 0P0     -0.633100
      9 OXT        -1.4580   -5.3840    1.9040 o         1 0P0     -0.778300
     10 N1         -0.4820    0.5380   -0.6530 n         1 0P0     -0.523900
     11 CA1         0.5700    0.9450   -1.5310 c3        1 0P0      0.011700
     12 C1          0.9500    2.3670   -1.2300 c         1 0P0      0.632100
     13 O1          0.1160    3.1420   -0.8160 o         1 0P0     -0.732100
     14 CB1         0.0960    0.8410   -2.9680 c3        1 0P0     -0.010300
     15 SG          1.3490    0.0600   -3.9490 sh        1 0P0     -0.373900
     16 N2          2.3100    2.7950   -1.3880 n         1 0P0     -0.482900
     17 CA2         2.6510    4.1890   -1.2220 c3        1 0P0     -0.074000
     18 C2          4.1680    4.3770   -1.4360 c         1 0P0      0.912600
     19 O2          4.9510    4.3720   -0.4450 o         1 0P0     -0.823800
     20 OXT1        4.6210    4.6070   -2.6020 o         1 0P0     -0.823800
     21 H          -3.5290   -3.5200    3.6260 hn        1 0P0      0.459467
     22 H2         -2.5280   -2.5260    4.0990 hn        1 0P0      0.459467
     23 H3         -3.5970   -2.1080    3.1480 hn        1 0P0      0.459467
     24 HA         -2.7450   -3.2810    1.5170 hx        1 0P0      0.082700
     25 HB2        -0.3400   -2.2750    2.1400 hc        1 0P0      0.091200
     26 HB3        -1.4220   -1.2530    2.6930 hc        1 0P0      0.091200
     27 HG2        -1.5580   -2.1900    0.0100 hc        1 0P0      0.069700
     28 HG3        -2.2990   -0.8990    0.6080 hc        1 0P0      0.069700
     29 H1         -1.2720    0.9740   -0.6630 hn        1 0P0      0.313500
     30 HA1         1.3520    0.3610   -1.3990 h1        1 0P0      0.096700
     31 HB21       -0.7260    0.3070   -3.0040 h1        1 0P0      0.100200
     32 HB31       -0.0830    1.7430   -3.3220 h1        1 0P0      0.100200
     33 HG          0.9370   -0.1080   -5.0640 hs        1 0P0      0.205800
     34 H4          2.9730    2.1750   -1.5520 hn        1 0P0      0.336500
     35 HA2         2.4100    4.4790   -0.3130 h1        1 0P0      0.048700
     36 HA3         2.1540    4.7310   -1.8840 h1        1 0P0      0.048700
@<TRIPOS>BOND
     1    1    2 1   
     2    1   21 1   
     3    1   22 1   
     4    1   23 1   
     5    2    3 1   
     6    2    5 1   
     7    2   24 1   
     8    3    4 1   
     9    3    9 1   
    10    5    6 1   
    11    5   25 1   
    12    5   26 1   
    13    6    7 1   
    14    6   27 1   
    15    6   28 1   
    16    7    8 2   
    17    7   10 1   
    18   10   11 1   
    19   10   29 1   
    20   11   12 1   
    21   11   14 1   
    22   11   30 1   
    23   12   13 2   
    24   12   16 1   
    25   14   15 1   
    26   14   31 1   
    27   14   32 1   
    28   15   33 1   
    29   16   17 1   
    30   16   34 1   
    31   17   18 1   
    32   17   35 1   
    33   17   36 1   
    34   18   19 1   
    35   18   20 1   
@<TRIPOS>SUBSTRUCTURE
     1 0P0         1 TEMP              0 ****  ****    0 ROOT
