@<TRIPOS>MOLECULE
0P1
   81    77     1     0     0
SMALL
bcc


@<TRIPOS>ATOM
      1 C1         -3.8420   -1.9860    5.6960 c1        1 0P1      0.381000
      2 O1         -3.3230   -3.0890    5.8820 o         1 0P1     -0.400000
      3 O2         -4.5210   -1.3500    6.7380 o         1 0P1     -0.279000
      4 C2         -4.8740   -2.2180    7.8170 c3        1 0P1      0.038000
      5 C3         -5.8230   -1.4560    8.8110 c2        1 0P1     -0.084000
      6 C4         -7.2010   -1.6030    8.7050 c1        1 0P1     -0.100000
      7 C5         -8.0480   -0.9030    9.5680 c1        1 0P1     -0.139500
      8 C6         -7.5140   -0.0620   10.5300 c1        1 0P1     -0.139500
      9 C7         -6.1310    0.0860   10.6370 c1        1 0P1     -0.134000
     10 C8         -5.2890   -0.6110    9.7770 c2        1 0P1     -0.125000
     11 N          -3.6480   -1.2900    4.4130 n3        1 0P1     -0.300000
     12 CA         -2.7820   -1.8220    3.4570 c3        1 0P1     -0.010000
     13 C          -1.9490   -0.6900    2.8270 c2        1 0P1      0.267000
     14 O          -2.4460    0.4230    2.6710 o         1 0P1     -0.379000
     15 CB         -3.5960   -2.5280    2.3650 c3        1 0P1     -0.221000
     16 N1         -0.6040   -0.9710    2.3160 n         1 0P1     -0.330000
     17 CA1         0.2650    0.1180    1.9280 c3        1 0P1     -0.015000
     18 C9          1.0950   -0.3000    0.7180 c2        1 0P1      0.276000
     19 O3          1.6650   -1.3810    0.7120 o         1 0P1     -0.414000
     20 CB1         1.1740    0.4570    3.0590 c3        1 0P1     -0.217000
     21 CA2         1.5740    0.0290   -1.6900 c3        1 0P1     -0.613000
     22 CB2         0.3540   -0.4190   -2.5100 c3        1 0P1     -0.149000
     23 CG          0.5270   -1.8890   -2.9310 c3        1 0P1     -0.100000
     24 CD1        -0.0360   -2.7990   -1.8460 c3        1 0P1     -0.211500
     25 CD2        -0.1990   -2.1240   -4.1980 c3        1 0P1     -0.211500
     26 N2          1.1440    0.5520   -0.4570 n         1 0P1     -0.318000
     27 P           2.4950    1.3180   -2.6110 p5        1 0P1      1.977000
     28 O11         1.6140    2.5170   -2.8090 o         1 0P1     -0.839500
     29 O21         3.7220    1.7190   -1.8210 o         1 0P1     -0.839500
     30 CA3         3.5850    1.6140   -5.0120 c3        1 0P1      0.120000
     31 CB3         4.2250    0.8090   -6.1380 c3        1 0P1     -0.145000
     32 CG1         5.5580    1.5040   -6.5820 c2        1 0P1     -0.071000
     33 CD11        6.7470    0.7950   -6.5490 c2        1 0P1     -0.117000
     34 CD21        5.5240    2.7710   -7.1470 c1        1 0P1     -0.135000
     35 CE1         7.9010    1.3510   -7.0780 c1        1 0P1     -0.137000
     36 CE2         6.6810    3.3260   -7.6770 c1        1 0P1     -0.139500
     37 CZ          7.8670    2.6170   -7.6420 c1        1 0P1     -0.139500
     38 CC          2.5510    2.5610   -5.5900 c2        1 0P1      0.297000
     39 CS          1.6670    4.7420   -5.9880 c3        1 0P1     -0.060000
     40 OP          2.9550    0.7240   -4.0830 os        1 0P1     -0.734000
     41 OS          2.7610    3.9730   -5.5190 os        1 0P1     -0.269000
     42 O4          1.4830    2.1130   -6.0460 o         1 0P1     -0.379000
     43 H21        -4.0390   -2.5070    8.3030 h1        1 0P1      0.102500
     44 H22        -5.3480   -3.0280    7.4540 h1        1 0P1      0.102500
     45 H41        -7.5720   -2.1890    8.0350 ha        1 0P1      0.152000
     46 H51        -9.0230   -0.9510    9.4450 ha        1 0P1      0.121500
     47 H61        -8.1130    0.4340   11.1420 ha        1 0P1      0.121500
     48 H71        -5.7550    0.6800   11.3150 ha        1 0P1      0.128000
     49 H81        -4.3040   -0.5040    9.8530 ha        1 0P1      0.131000
     50 H          -4.0310   -0.4530    4.2760 hn        1 0P1      0.243000
     51 HA         -2.1900   -2.4600    3.8800 h1        1 0P1      0.141000
     52 HB1        -3.0550   -3.2330    1.9610 hc        1 0P1      0.096000
     53 HB2        -4.3990   -2.9200    2.7590 hc        1 0P1      0.096000
     54 HB3        -3.8510   -1.8840    1.6820 hc        1 0P1      0.096000
     55 H1         -0.3400   -1.8290    2.1840 hn        1 0P1      0.234000
     56 HA1        -0.2770    0.9030    1.6960 h1        1 0P1      0.137000
     57 HB11        0.7340    0.2580    3.8970 hc        1 0P1      0.091333
     58 HB21        1.3960    1.4080    3.0270 hc        1 0P1      0.091333
     59 HB31        1.9950   -0.0710    2.9880 hc        1 0P1      0.091333
     60 HA2         2.1730   -0.7570   -1.5280 h1        1 0P1      0.142000
     61 HB12       -0.4560   -0.3300   -1.9670 hc        1 0P1      0.087500
     62 HB22        0.2750    0.1450   -3.3130 hc        1 0P1      0.087500
     63 HG          1.4410   -2.0760   -3.0540 hc        1 0P1      0.094000
     64 HD11       -0.1070   -3.7140   -2.1910 hc        1 0P1      0.069667
     65 HD12        0.5450   -2.7880   -1.0890 hc        1 0P1      0.069667
     66 HD13       -0.9060   -2.4870   -1.5870 hc        1 0P1      0.069667
     67 HD21       -0.0090   -3.0350   -4.5210 hc        1 0P1      0.069667
     68 HD22        0.0990   -1.4640   -4.8760 hc        1 0P1      0.069667
     69 HD23       -1.1590   -2.0260   -4.0460 hc        1 0P1      0.069667
     70 HN2         0.8810    1.4480   -0.3960 hn        1 0P1      0.249000
     71 HA3         4.2730    2.1290   -4.5520 h1        1 0P1      0.140000
     72 HB13        4.4200   -0.0950   -5.8220 hc        1 0P1      0.105000
     73 HB23        3.6100    0.7620   -6.8990 hc        1 0P1      0.105000
     74 HD1         6.7730   -0.1110   -6.1450 ha        1 0P1      0.208000
     75 HD2         4.7060    3.2600   -7.1710 ha        1 0P1      0.124000
     76 HE1         8.7250    0.8480   -7.0740 ha        1 0P1      0.126000
     77 HE2         6.6570    4.2320   -8.0810 ha        1 0P1      0.121500
     78 HZ          8.6780    3.0060   -8.0140 ha        1 0P1      0.121500
     79 HS1         0.9220    4.6840   -5.3430 h1        1 0P1      0.078000
     80 HS2         1.9450    5.6860   -6.0870 h1        1 0P1      0.078000
     81 HS3         1.3770    4.4000   -6.8470 h1        1 0P1      0.078000
@<TRIPOS>BOND
     1    1    2 1   
     2    1   11 1   
     3    3    4 1   
     4    4    5 1   
     5    4   43 1   
     6    4   44 1   
     7    5    6 1   
     8    5   10 1   
     9    6   45 1   
    10    7    8 1   
    11    7   46 1   
    12    8   47 1   
    13    9   10 1   
    14    9   48 1   
    15   10   49 1   
    16   11   12 1   
    17   11   50 1   
    18   12   13 1   
    19   12   15 1   
    20   12   51 1   
    21   13   14 1   
    22   13   16 1   
    23   15   52 1   
    24   15   53 1   
    25   15   54 1   
    26   16   17 1   
    27   16   55 1   
    28   17   18 1   
    29   17   20 1   
    30   17   56 1   
    31   18   19 1   
    32   18   26 1   
    33   20   57 1   
    34   20   58 1   
    35   20   59 1   
    36   21   22 1   
    37   21   26 1   
    38   21   27 1   
    39   21   60 1   
    40   22   23 1   
    41   22   61 1   
    42   22   62 1   
    43   23   24 1   
    44   23   25 1   
    45   23   63 1   
    46   24   64 1   
    47   24   65 1   
    48   24   66 1   
    49   25   67 1   
    50   25   68 1   
    51   25   69 1   
    52   26   70 1   
    53   27   28 1   
    54   27   29 1   
    55   27   40 1   
    56   30   31 1   
    57   30   38 1   
    58   30   40 1   
    59   30   71 1   
    60   31   32 1   
    61   31   72 1   
    62   31   73 1   
    63   32   33 1   
    64   32   34 1   
    65   33   35 1   
    66   33   74 1   
    67   34   75 1   
    68   35   76 1   
    69   36   37 1   
    70   36   77 1   
    71   37   78 1   
    72   38   41 1   
    73   38   42 1   
    74   39   41 1   
    75   39   79 1   
    76   39   80 1   
    77   39   81 1   
@<TRIPOS>SUBSTRUCTURE
     1 0P1         1 TEMP              0 ****  ****    0 ROOT
