@<TRIPOS>MOLECULE
0P1
   81    82     1     0     0
SMALL
bcc


@<TRIPOS>ATOM
      1 C1          5.5440   -0.7860    0.9430 c         1 0P1      0.728100
      2 O1          5.4020   -2.0140    1.0770 o         1 0P1     -0.589000
      3 O2          6.7270   -0.3160    0.4010 os        1 0P1     -0.441900
      4 C2          7.6990   -1.3360    0.1070 c3        1 0P1      0.194700
      5 C3          8.9240   -0.6740   -0.4260 ca        1 0P1     -0.088300
      6 C4          9.1870    0.6830   -0.2180 ca        1 0P1     -0.114500
      7 C5         10.3590    1.2520   -0.7150 ca        1 0P1     -0.132500
      8 C6         11.2740    0.4700   -1.4180 ca        1 0P1     -0.131000
      9 C7         11.0150   -0.8850   -1.6280 ca        1 0P1     -0.132500
     10 C8          9.8430   -1.4570   -1.1370 ca        1 0P1     -0.114500
     11 N           4.7010    0.2340    1.3530 n         1 0P1     -0.492900
     12 CA          3.2940   -0.0680    1.5490 c3        1 0P1      0.016700
     13 C           2.4140    0.5060    0.4060 c         1 0P1      0.624100
     14 O           2.8210    1.4560   -0.2950 o         1 0P1     -0.618100
     15 CB          2.7650    0.5240    2.8580 c3        1 0P1     -0.102100
     16 N1          1.2060   -0.1200    0.1930 n         1 0P1     -0.519900
     17 CA1         0.1560    0.4980   -0.5930 c3        1 0P1      0.013700
     18 C9         -1.0370    0.9370    0.3080 c         1 0P1      0.626100
     19 O3         -1.1870    0.4300    1.4450 o         1 0P1     -0.664100
     20 CB1        -0.4070   -0.4410   -1.6600 c3        1 0P1     -0.117100
     21 CA2        -3.1710    2.1870    0.3090 c3        1 0P1     -0.150500
     22 CB2        -3.2780    3.5610    0.9620 c3        1 0P1     -0.081400
     23 CG         -3.5990    3.4920    2.4500 c3        1 0P1     -0.063700
     24 CD1        -2.4040    3.0260    3.2540 c3        1 0P1     -0.092100
     25 CD2        -4.0650    4.8480    2.9400 c3        1 0P1     -0.092100
     26 N2         -1.8580    1.8970   -0.2180 n         1 0P1     -0.485900
     27 P          -4.3500    2.0510   -0.9820 p5        1 0P1      1.313600
     28 O11        -5.1780    3.2590   -1.1230 o         1 0P1     -0.825500
     29 O21        -3.6760    1.3840   -2.1250 o         1 0P1     -0.825500
     30 CA3        -5.2480   -0.4160   -0.7120 c3        1 0P1      0.168100
     31 CB3        -4.8640   -1.3170    0.4760 c3        1 0P1     -0.065100
     32 CG1        -4.0670   -2.5020    0.0600 ca        1 0P1     -0.068300
     33 CD11       -2.6840   -2.5350    0.2770 ca        1 0P1     -0.127500
     34 CD21       -4.6960   -3.6070   -0.5280 ca        1 0P1     -0.127500
     35 CE1        -1.9420   -3.6550   -0.0980 ca        1 0P1     -0.140500
     36 CE2        -3.9510   -4.7250   -0.8990 ca        1 0P1     -0.140500
     37 CZ         -2.5730   -4.7510   -0.6850 ca        1 0P1     -0.143000
     38 CC         -6.6060   -0.8540   -1.2550 c         1 0P1      0.626100
     39 CS         -8.2740   -0.4630   -2.9070 c3        1 0P1      0.128700
     40 OP         -5.3380    0.8980   -0.2780 os        1 0P1     -0.562200
     41 H21         7.9280   -1.8980    1.0530 h1        1 0P1      0.063700
     42 H22         7.2550   -2.0460   -0.6420 h1        1 0P1      0.063700
     43 H41         8.4590    1.3000    0.3330 ha        1 0P1      0.141500
     44 H51        10.5580    2.3210   -0.5520 ha        1 0P1      0.129500
     45 H61        12.1980    0.9190   -1.8090 ha        1 0P1      0.127000
     46 H71        11.7340   -1.5030   -2.1850 ha        1 0P1      0.129500
     47 H81         9.6360   -2.5230   -1.3090 ha        1 0P1      0.141500
     48 H           4.8870    1.1390    0.9680 hn        1 0P1      0.330500
     49 HA          3.1790   -1.1940    1.5870 h1        1 0P1      0.100700
     50 HB1         1.6930    0.2370    2.9810 hc        1 0P1      0.056367
     51 HB2         3.3460    0.1290    3.7250 hc        1 0P1      0.056367
     52 HB3         2.8400    1.6380    2.8530 hc        1 0P1      0.056367
     53 H1          0.8750   -0.7380    0.9040 hn        1 0P1      0.317500
     54 HA1         0.5950    1.4090   -1.1030 h1        1 0P1      0.099700
     55 HB11       -0.8320   -1.3660   -1.1960 hc        1 0P1      0.061367
     56 HB21       -1.2250    0.0790   -2.2220 hc        1 0P1      0.061367
     57 HB31        0.3950   -0.7360   -2.3780 hc        1 0P1      0.061367
     58 HA2        -3.4120    1.4100    1.0940 h1        1 0P1      0.095700
     59 HB12       -2.3310    4.1530    0.8400 hc        1 0P1      0.066200
     60 HB22       -4.0980    4.1400    0.4480 hc        1 0P1      0.066200
     61 HG         -4.4390    2.7570    2.6040 hc        1 0P1      0.049700
     62 HD11       -2.6830    2.8950    4.3270 hc        1 0P1      0.029033
     63 HD12       -2.0270    2.0500    2.8560 hc        1 0P1      0.029033
     64 HD13       -1.5760    3.7740    3.1950 hc        1 0P1      0.029033
     65 HD21       -4.9870    5.1620    2.3930 hc        1 0P1      0.029033
     66 HD22       -4.2920    4.8090    4.0320 hc        1 0P1      0.029033
     67 HD23       -3.2750    5.6190    2.7700 hc        1 0P1      0.029033
     68 HN2        -1.7890    2.0450   -1.2100 hn        1 0P1      0.326500
     69 HA3        -4.4990   -0.5050   -1.5590 h1        1 0P1      0.110700
     70 HB13       -4.2770   -0.7000    1.2090 hc        1 0P1      0.070200
     71 HB23       -5.7980   -1.6560    1.0000 hc        1 0P1      0.070200
     72 HD1        -2.1830   -1.6690    0.7450 ha        1 0P1      0.153500
     73 HD2        -5.7850   -3.5770   -0.6960 ha        1 0P1      0.153500
     74 HE1        -0.8550   -3.6700    0.0690 ha        1 0P1      0.120000
     75 HE2        -4.4520   -5.5870   -1.3620 ha        1 0P1      0.120000
     76 HZ         -1.9860   -5.6310   -0.9800 ha        1 0P1      0.117000
     77 HS1        -8.2970   -1.5220   -3.2630 h1        1 0P1      0.039367
     78 HS2        -9.0660   -0.3040   -2.1370 h1        1 0P1      0.039367
     79 HS3        -8.3800    0.2560   -3.7570 h1        1 0P1      0.039367
     80 OS         -6.9920   -0.1590   -2.3650 os        1 0P1     -0.408900
     81 O4         -7.3600   -1.7480   -0.8530 o         1 0P1     -0.590000
@<TRIPOS>BOND
     1    1    2 2   
     2    1    3 1   
     3    1   11 1   
     4    3    4 1   
     5    4    5 1   
     6    4   41 1   
     7    4   42 1   
     8    5    6 ar  
     9    5   10 ar  
    10    6    7 ar  
    11    6   43 1   
    12    7    8 ar  
    13    7   44 1   
    14    8    9 ar  
    15    8   45 1   
    16    9   10 ar  
    17    9   46 1   
    18   10   47 1   
    19   11   12 1   
    20   11   48 1   
    21   12   13 1   
    22   12   15 1   
    23   12   49 1   
    24   13   14 2   
    25   13   16 1   
    26   15   50 1   
    27   15   51 1   
    28   15   52 1   
    29   16   17 1   
    30   16   53 1   
    31   17   18 1   
    32   17   20 1   
    33   17   54 1   
    34   18   19 2   
    35   18   26 1   
    36   20   55 1   
    37   20   56 1   
    38   20   57 1   
    39   21   22 1   
    40   21   26 1   
    41   21   27 1   
    42   21   58 1   
    43   22   23 1   
    44   22   59 1   
    45   22   60 1   
    46   23   24 1   
    47   23   25 1   
    48   23   61 1   
    49   24   62 1   
    50   24   63 1   
    51   24   64 1   
    52   25   65 1   
    53   25   66 1   
    54   25   67 1   
    55   26   68 1   
    56   27   28 1   
    57   27   29 1   
    58   27   40 1   
    59   30   31 1   
    60   30   38 1   
    61   30   40 1   
    62   30   69 1   
    63   31   32 1   
    64   31   70 1   
    65   31   71 1   
    66   32   33 ar  
    67   32   34 ar  
    68   33   35 ar  
    69   33   72 1   
    70   34   36 ar  
    71   34   73 1   
    72   35   37 ar  
    73   35   74 1   
    74   36   37 ar  
    75   36   75 1   
    76   37   76 1   
    77   38   80 1   
    78   38   81 2   
    79   39   77 1   
    80   39   78 1   
    81   39   79 1   
    82   39   80 1   
@<TRIPOS>SUBSTRUCTURE
     1 0P1         1 TEMP              0 ****  ****    0 ROOT
