@<TRIPOS>MOLECULE
0P4
   42    44     1     0     0
SMALL
bcc


@<TRIPOS>ATOM
      1 CAH        -0.4910   -0.9030    0.9000 ca        1 0P4     -0.106500
      2 CAR         0.7800   -1.3220    0.4930 ca        1 0P4      0.027400
      3 CL1         0.9330   -2.6740   -0.5090 cl        1 0P4     -0.025400
      4 CAG         1.9240   -0.6310    0.9100 ca        1 0P4     -0.075000
      5 CAS         1.7870    0.4860    1.7420 ca        1 0P4      0.027400
      6 CL2         3.1610    1.3250    2.2560 cl        1 0P4     -0.025400
      7 CAI         0.5210    0.9130    2.1560 ca        1 0P4     -0.106500
      8 CAT        -0.6140    0.2150    1.7300 ca        1 0P4     -0.171300
      9 CAM        -1.9620    0.6430    2.1990 c3        1 0P4      0.173100
     10 NAO        -2.5730    1.6290    1.2450 n4        1 0P4     -0.767000
     11 CAK        -3.9250    2.0760    1.6920 c3        1 0P4      0.101800
     12 CAJ        -4.5570    3.0690    0.7250 c3        1 0P4     -0.120400
     13 CAL        -5.9500    3.4230    1.2640 c3        1 0P4      0.183800
     14 NAP        -6.6790    4.2610    0.3300 nh        1 0P4     -0.754200
     15 CAU        -8.0570    4.4330    0.6680 cc        1 0P4      0.539700
     16 NAQ        -8.9710    4.9510   -0.2930 na        1 0P4     -0.270300
     17 CAW       -10.2280    4.9240    0.3170 ca        1 0P4     -0.067200
     18 CAF       -11.5000    5.3030   -0.1330 ca        1 0P4     -0.130000
     19 CAD       -12.5560    5.1600    0.7540 ca        1 0P4     -0.103000
     20 CAC       -12.3680    4.6610    2.0570 ca        1 0P4     -0.141000
     21 CAE       -11.1190    4.2830    2.5240 ca        1 0P4     -0.072000
     22 CAV       -10.0220    4.4090    1.6580 ca        1 0P4      0.070400
     23 NAN        -8.6590    4.1200    1.8500 nd        1 0P4     -0.596100
     24 H1         -1.3840   -1.4670    0.5830 ha        1 0P4      0.155500
     25 H2          2.9260   -0.9690    0.5900 ha        1 0P4      0.188000
     26 H3          0.4260    1.7820    2.8280 ha        1 0P4      0.155500
     27 H4         -1.8990    1.1390    3.2110 hx        1 0P4      0.112700
     28 H5         -2.6610   -0.2410    2.2730 hx        1 0P4      0.112700
     29 H6         -1.9530    2.4430    1.1590 hn        1 0P4      0.451300
     30 H8         -4.5780    1.1600    1.7860 hx        1 0P4      0.110200
     31 H9         -3.8160    2.5430    2.7130 hx        1 0P4      0.110200
     32 H10        -3.9300    3.9950    0.6440 hc        1 0P4      0.073700
     33 H11        -4.6490    2.6210   -0.3000 hc        1 0P4      0.073700
     34 H12        -5.8300    3.9080    2.2770 h1        1 0P4      0.066700
     35 H13        -6.5370    2.4700    1.4090 h1        1 0P4      0.066700
     36 H14        -6.2380    5.1580    0.2170 hn        1 0P4      0.389800
     37 H15        -8.7800    5.1510   -1.2380 hn        1 0P4      0.313700
     38 H16       -11.6530    5.6950   -1.1470 ha        1 0P4      0.143000
     39 H17       -13.5700    5.4450    0.4350 ha        1 0P4      0.143000
     40 H18       -13.2430    4.5710    2.7200 ha        1 0P4      0.143000
     41 H19       -10.9810    3.8980    3.5450 ha        1 0P4      0.150000
     42 HAO2       -2.6450    1.1970    0.3150 hn        1 0P4      0.451300
@<TRIPOS>BOND
     1    1    2 ar  
     2    1    8 ar  
     3    1   24 1   
     4    2    3 1   
     5    2    4 ar  
     6    4    5 ar  
     7    4   25 1   
     8    5    6 1   
     9    5    7 ar  
    10    7    8 ar  
    11    7   26 1   
    12    8    9 1   
    13    9   10 1   
    14    9   27 1   
    15    9   28 1   
    16   10   11 1   
    17   10   29 1   
    18   10   42 1   
    19   11   12 1   
    20   11   30 1   
    21   11   31 1   
    22   12   13 1   
    23   12   32 1   
    24   12   33 1   
    25   13   14 1   
    26   13   34 1   
    27   13   35 1   
    28   14   15 1   
    29   14   36 1   
    30   15   16 1   
    31   15   23 2   
    32   16   17 1   
    33   16   37 1   
    34   17   18 ar  
    35   17   22 ar  
    36   18   19 ar  
    37   18   38 1   
    38   19   20 ar  
    39   19   39 1   
    40   20   21 ar  
    41   20   40 1   
    42   21   22 ar  
    43   21   41 1   
    44   22   23 1   
@<TRIPOS>SUBSTRUCTURE
     1 0P4         1 TEMP              0 ****  ****    0 ROOT
