@<TRIPOS>MOLECULE
0P4
   42    44     1     0     0
SMALL
bcc


@<TRIPOS>ATOM
      1 CAH        -1.8160   -0.5920    0.8380 ca        1 0P4     -0.107000
      2 CAR        -0.7140   -1.4410    0.9900 ca        1 0P4      0.026400
      3 Cl1        -0.3610   -2.5760   -0.2120 cl        1 0P4     -0.029400
      4 CAG         0.0960   -1.3590    2.1290 ca        1 0P4     -0.079000
      5 CAS        -0.2060   -0.4180    3.1190 ca        1 0P4      0.026400
      6 Cl2         0.7620   -0.3120    4.5010 cl        1 0P4     -0.029400
      7 CAI        -1.3060    0.4360    2.9780 ca        1 0P4     -0.107000
      8 CAT        -2.1050    0.3440    1.8350 ca        1 0P4     -0.167300
      9 CAM        -3.3000    1.2260    1.6960 c3        1 0P4      0.171100
     10 NAO        -2.9480    2.5020    0.9890 ny        1 0P4     -0.767000
     11 CAK        -4.1380    3.3960    0.8430 c3        1 0P4      0.103800
     12 CAJ        -3.8080    4.6950    0.1260 c3        1 0P4     -0.111400
     13 CAL        -5.0170    5.6420    0.1520 c3        1 0P4      0.198800
     14 NAP        -6.1450    5.1510   -0.6110 nu        1 0P4     -0.787200
     15 CAU        -7.2240    4.5990    0.1200 cc        1 0P4      0.576700
     16 NAQ        -8.5780    4.7130   -0.3220 na        1 0P4     -0.283300
     17 CAW        -9.3400    3.9530    0.5780 ca        1 0P4     -0.074200
     18 CAF       -10.7090    3.6750    0.6410 ca        1 0P4     -0.119000
     19 CAD       -11.1540    2.9130    1.7130 ca        1 0P4     -0.107000
     20 CAC       -10.2730    2.4400    2.7010 ca        1 0P4     -0.131000
     21 CAE        -8.9120    2.7040    2.6560 ca        1 0P4     -0.088000
     22 CAV        -8.4190    3.4640    1.5850 ca        1 0P4      0.079400
     23 NAN        -7.1100    3.8790    1.2770 nd        1 0P4     -0.652100
     24 H1         -2.4590   -0.6790   -0.0520 ha        1 0P4      0.156000
     25 H2          0.9620   -2.0340    2.2470 ha        1 0P4      0.186000
     26 H3         -1.5470    1.1590    3.7740 ha        1 0P4      0.156000
     27 H4         -4.1110    0.7150    1.0990 hx        1 0P4      0.115200
     28 H5         -3.7200    1.4990    2.7080 hx        1 0P4      0.115200
     29 H6         -2.2120    2.9860    1.5150 hn        1 0P4      0.444300
     30 H8         -4.5370    3.6100    1.8780 hx        1 0P4      0.127200
     31 H9         -4.9220    2.8220    0.2680 hx        1 0P4      0.127200
     32 H10        -3.5050    4.4910   -0.9350 hc        1 0P4      0.066200
     33 H11        -2.9610    5.2280    0.6350 hc        1 0P4      0.066200
     34 H12        -4.6710    6.6170   -0.3020 h1        1 0P4      0.072700
     35 H13        -5.2880    5.8450    1.2280 h1        1 0P4      0.072700
     36 H14        -6.4410    5.7910   -1.3210 hn        1 0P4      0.417800
     37 H15        -8.8720    4.9890   -1.2220 hn        1 0P4      0.309700
     38 H16       -11.4050    4.0480   -0.1220 ha        1 0P4      0.147000
     39 H17       -12.2270    2.6760    1.7960 ha        1 0P4      0.147000
     40 H18       -10.6800    1.8450    3.5340 ha        1 0P4      0.144000
     41 H19        -8.2350    2.3360    3.4390 ha        1 0P4      0.141000
     42 HAO2       -2.5700    2.2790    0.0620 hn        1 0P4      0.444300
@<TRIPOS>BOND
     1    1    2 ar  
     2    1    8 ar  
     3    1   24 1   
     4    2    3 1   
     5    2    4 ar  
     6    4    5 ar  
     7    4   25 1   
     8    5    6 1   
     9    5    7 ar  
    10    7    8 ar  
    11    7   26 1   
    12    8    9 1   
    13    9   10 1   
    14    9   27 1   
    15    9   28 1   
    16   10   11 1   
    17   10   29 1   
    18   10   42 1   
    19   11   12 1   
    20   11   30 1   
    21   11   31 1   
    22   12   13 1   
    23   12   32 1   
    24   12   33 1   
    25   13   14 1   
    26   13   34 1   
    27   13   35 1   
    28   14   15 1   
    29   14   36 1   
    30   15   16 1   
    31   15   23 2   
    32   16   17 1   
    33   16   37 1   
    34   17   18 ar  
    35   17   22 ar  
    36   18   19 ar  
    37   18   38 1   
    38   19   20 ar  
    39   19   39 1   
    40   20   21 ar  
    41   20   40 1   
    42   21   22 ar  
    43   21   41 1   
    44   22   23 1   
@<TRIPOS>SUBSTRUCTURE
     1 0P4         1 TEMP              0 ****  ****    0 ROOT
