@<TRIPOS>MOLECULE
0P4
   41    33     1     0     0
SMALL
bcc


@<TRIPOS>ATOM
      1 CAH         5.6100   -2.0870   -0.9170 c1        1 0P4     -0.122000
      2 CAR         6.9640   -2.0720   -0.6600 c1        1 0P4     -0.057000
      3 CL1         8.1030   -2.2960   -1.9760 cl        1 0P4     -0.005000
      4 CAG         7.4170   -1.9430    0.6240 c1        1 0P4     -0.112000
      5 CAS         6.5020   -1.8250    1.6890 c1        1 0P4     -0.057000
      6 CL2         7.0700   -1.8790    3.3090 cl        1 0P4     -0.005000
      7 CAI         5.1430   -1.8400    1.4350 c1        1 0P4     -0.112000
      8 CAT         4.6890   -1.9690    0.1460 c1        1 0P4     -0.071000
      9 CAM         3.2070   -2.1120   -0.1230 c3        1 0P4     -0.035000
     10 NAO         2.5780   -0.7760   -0.1300 n3        1 0P4     -0.304000
     11 CAK         1.1370   -0.9230   -0.1600 c3        1 0P4     -0.070000
     12 CAJ         0.4730    0.4570   -0.0230 c3        1 0P4     -0.174000
     13 CAL        -1.0510    0.2870   -0.0590 c3        1 0P4     -0.065000
     14 NAP        -1.6780    1.5490    0.0270 n3        1 0P4     -0.247000
     15 CAU        -3.1100    1.6330   -0.0160 c2        1 0P4      0.103000
     16 NAQ        -4.0680    1.4330    0.9420 n2        1 0P4     -0.242000
     17 CAW        -5.2680    1.7750    0.4120 c1        1 0P4     -0.038000
     18 CAF        -6.5740    1.6910    0.9230 c1        1 0P4     -0.119500
     19 CAD        -7.6430    2.0210    0.1330 c1        1 0P4     -0.119500
     20 CAC        -7.4440    2.4350   -1.1600 c1        1 0P4     -0.119500
     21 CAE        -6.1440    2.5210   -1.6750 c1        1 0P4     -0.119500
     22 CAV        -5.0620    2.1880   -0.8780 c1        1 0P4     -0.052000
     23 NAN        -3.7270    2.0980   -1.1390 n1        1 0P4     -0.177000
     24 H1          5.2870   -2.1780   -1.8390 ha        1 0P4      0.150000
     25 H2          8.3600   -1.9350    0.7990 ha        1 0P4      0.164500
     26 H3          4.4830   -1.7540    2.1980 ha        1 0P4      0.164500
     27 H4          2.7960   -2.6660    0.5830 h1        1 0P4      0.082000
     28 H5          3.0740   -2.5410   -0.9900 h1        1 0P4      0.082000
     29 H6          2.8730   -0.2800   -0.9180 hn        1 0P4      0.161000
     30 H8          0.8450   -1.5130    0.6090 h1        1 0P4      0.071500
     31 H9          0.8570   -1.3470   -1.0380 h1        1 0P4      0.071500
     32 H10         0.7520    1.0270   -0.7540 hc        1 0P4      0.099500
     33 H11         0.7400    0.8620    0.8280 hc        1 0P4      0.099500
     34 H12        -1.3110   -0.1530   -0.9050 h1        1 0P4      0.083500
     35 H13        -1.3210   -0.2430    0.6630 h1        1 0P4      0.083500
     36 H14        -1.1690    2.3110    0.2350 hn        1 0P4      0.210000
     37 H15        -3.9200    1.2030    1.7830 DU        1 0P4      0.250000
     38 H16        -6.7210    1.3920    1.8510 ha        1 0P4      0.136000
     39 H17        -8.5460    1.9610    0.4910 ha        1 0P4      0.136000
     40 H18        -8.2030    2.6690   -1.7160 ha        1 0P4      0.136000
     41 H19        -5.9990    2.8210   -2.6050 ha        1 0P4      0.136000
@<TRIPOS>BOND
     1    1    8 1   
     2    1   24 1   
     3    2    4 1   
     4    4   25 1   
     5    5    7 1   
     6    7   26 1   
     7    8    9 1   
     8    9   10 1   
     9    9   27 1   
    10    9   28 1   
    11   10   11 1   
    12   10   29 1   
    13   11   12 1   
    14   11   30 1   
    15   11   31 1   
    16   12   13 1   
    17   12   32 1   
    18   12   33 1   
    19   13   14 1   
    20   13   34 1   
    21   13   35 1   
    22   14   15 1   
    23   14   36 1   
    24   15   16 1   
    25   15   23 1   
    26   16   17 1   
    27   17   22 1   
    28   18   19 1   
    29   18   38 1   
    30   19   39 1   
    31   20   21 1   
    32   20   40 1   
    33   21   41 1   
@<TRIPOS>SUBSTRUCTURE
     1 0P4         1 TEMP              0 ****  ****    0 ROOT
