@<TRIPOS>MOLECULE
0P4
   43    45     1     0     0
SMALL
bcc


@<TRIPOS>ATOM
      1 CAH        -0.2890   -0.7160    0.6140 ca        1 0P4     -0.106000
      2 CAR         1.0740   -0.9770    0.4310 ca        1 0P4      0.027900
      3 CL1         1.5700   -1.9770   -0.8340 cl        1 0P4     -0.007400
      4 CAG         2.0260   -0.4190    1.2940 ca        1 0P4     -0.062000
      5 CAS         1.6050    0.4070    2.3450 ca        1 0P4      0.027900
      6 CL2         2.7420    1.0810    3.3920 cl        1 0P4     -0.007400
      7 CAI         0.2440    0.6740    2.5350 ca        1 0P4     -0.106000
      8 CAT        -0.6960    0.1100    1.6660 ca        1 0P4     -0.190300
      9 CAM        -2.1460    0.3460    1.8980 c3        1 0P4      0.186100
     10 NAO        -2.6020    1.5730    1.1360 n4        1 0P4     -0.772000
     11 CAK        -4.0490    1.8470    1.3420 c3        1 0P4      0.102800
     12 CAJ        -4.5450    3.0830    0.5910 c3        1 0P4     -0.139400
     13 CAL        -6.0290    3.2610    0.9070 c3        1 0P4      0.105800
     14 NAP        -6.6140    4.4920    0.2810 n4        1 0P4     -0.662000
     15 CAU        -8.0260    4.6420    0.6500 cc        1 0P4      0.328700
     16 NAQ        -9.0950    4.5460   -0.2890 na        1 0P4     -0.232300
     17 CAW       -10.2520    4.7460    0.4750 ca        1 0P4     -0.027200
     18 CAF       -11.6070    4.8070    0.1160 ca        1 0P4     -0.137000
     19 CAD       -12.5230    4.9780    1.1410 ca        1 0P4     -0.042000
     20 CAC       -12.1250    5.0890    2.4940 ca        1 0P4     -0.121000
     21 CAE       -10.8000    5.0350    2.8760 ca        1 0P4     -0.042000
     22 CAV        -9.8290    4.8620    1.8650 ca        1 0P4      0.051400
     23 NAN        -8.4400    4.7780    1.9450 nd        1 0P4     -0.467100
     24 H1         -1.0300   -1.1830   -0.0540 ha        1 0P4      0.153500
     25 H2          3.1010   -0.6350    1.1530 ha        1 0P4      0.197000
     26 H3         -0.0770    1.3020    3.3810 ha        1 0P4      0.153500
     27 H4         -2.3610    0.5260    2.9910 hx        1 0P4      0.115200
     28 H5         -2.7640   -0.5260    1.5370 hx        1 0P4      0.115200
     29 H6         -2.4080    1.4290    0.1370 hn        1 0P4      0.456300
     30 H8         -4.6250    0.9350    1.0040 hx        1 0P4      0.120200
     31 H9         -4.2200    1.9790    2.4520 hx        1 0P4      0.120200
     32 H10        -3.9650    3.9900    0.9140 hc        1 0P4      0.087200
     33 H11        -4.3940    2.9520   -0.5150 hc        1 0P4      0.087200
     34 H12        -6.1790    3.3420    2.0260 hx        1 0P4      0.134200
     35 H13        -6.6230    2.3760    0.5350 hx        1 0P4      0.134200
     36 H14        -6.1160    5.3290    0.6240 hn        1 0P4      0.470300
     37 H15        -9.0290    4.7190   -1.2620 hn        1 0P4      0.323700
     38 H16       -11.9290    4.7230   -0.9320 ha        1 0P4      0.169000
     39 H17       -13.6000    5.0330    0.9000 ha        1 0P4      0.175000
     40 H18       -12.9070    5.2260    3.2620 ha        1 0P4      0.175000
     41 H19       -10.4960    5.1230    3.9310 ha        1 0P4      0.176000
     42 HAO2       -2.0420    2.3770    1.4470 hn        1 0P4      0.456300
     43 HAP2       -6.5210    4.4470   -0.7410 hn        1 0P4      0.470300
@<TRIPOS>BOND
     1    1    2 ar  
     2    1    8 ar  
     3    1   24 1   
     4    2    3 1   
     5    2    4 ar  
     6    4    5 ar  
     7    4   25 1   
     8    5    6 1   
     9    5    7 ar  
    10    7    8 ar  
    11    7   26 1   
    12    8    9 1   
    13    9   10 1   
    14    9   27 1   
    15    9   28 1   
    16   10   11 1   
    17   10   29 1   
    18   10   42 1   
    19   11   12 1   
    20   11   30 1   
    21   11   31 1   
    22   12   13 1   
    23   12   32 1   
    24   12   33 1   
    25   13   14 1   
    26   13   34 1   
    27   13   35 1   
    28   14   15 1   
    29   14   36 1   
    30   14   43 1   
    31   15   16 1   
    32   15   23 2   
    33   16   17 1   
    34   16   37 1   
    35   17   18 ar  
    36   17   22 ar  
    37   18   19 ar  
    38   18   38 1   
    39   19   20 ar  
    40   19   39 1   
    41   20   21 ar  
    42   20   40 1   
    43   21   22 ar  
    44   21   41 1   
    45   22   23 1   
@<TRIPOS>SUBSTRUCTURE
     1 0P4         1 TEMP              0 ****  ****    0 ROOT
