@<TRIPOS>MOLECULE
0P4
   41    43     1     0     0
SMALL
bcc


@<TRIPOS>ATOM
      1 CAH         4.2860   -1.0210   -0.1370 ca        1 0P4     -0.113500
      2 CAR         5.6270   -1.0080   -0.5310 ca        1 0P4      0.021400
      3 CL1         6.1900   -2.1730   -1.6320 cl        1 0P4     -0.083400
      4 CAG         6.5150   -0.0510   -0.0320 ca        1 0P4     -0.118000
      5 CAS         6.0380    0.9020    0.8730 ca        1 0P4      0.021400
      6 CL2         7.1020    2.0740    1.4910 cl        1 0P4     -0.083400
      7 CAI         4.6990    0.9060    1.2740 ca        1 0P4     -0.113500
      8 CAT         3.8240   -0.0590    0.7670 ca        1 0P4     -0.078300
      9 CAM         2.3960   -0.0800    1.2300 c3        1 0P4      0.209100
     10 NAO         1.4420   -0.1550    0.1390 n3        1 0P4     -0.825200
     11 CAK         0.0730    0.0360    0.5760 c3        1 0P4      0.166800
     12 CAJ        -0.9140    0.1000   -0.5890 c3        1 0P4     -0.095400
     13 CAL        -2.3290    0.2310   -0.0290 c3        1 0P4      0.171800
     14 NAP        -3.3320    0.3670   -1.0710 nh        1 0P4     -0.763200
     15 CAU        -4.6680    0.1190   -0.6730 cc        1 0P4      0.581700
     16 NAQ        -5.1950    0.6480    0.5520 na        1 0P4     -0.285300
     17 CAW        -6.5670    0.3510    0.5300 ca        1 0P4     -0.084200
     18 CAF        -7.5980    0.6320    1.4300 ca        1 0P4     -0.129000
     19 CAD        -8.8610    0.1330    1.1300 ca        1 0P4     -0.122000
     20 CAC        -9.0980   -0.6280   -0.0240 ca        1 0P4     -0.145000
     21 CAE        -8.0860   -0.9220   -0.9300 ca        1 0P4     -0.081000
     22 CAV        -6.8000   -0.4340   -0.6690 ca        1 0P4      0.088400
     23 NAN        -5.5990   -0.5730   -1.3910 nd        1 0P4     -0.603100
     24 H1          3.5940   -1.7810   -0.5330 ha        1 0P4      0.158000
     25 H2          7.5710   -0.0470   -0.3450 ha        1 0P4      0.163000
     26 H3          4.3370    1.6640    1.9860 ha        1 0P4      0.158000
     27 H4          2.2430   -0.9990    1.8690 h1        1 0P4      0.043200
     28 H5          2.2120    0.8190    1.8930 h1        1 0P4      0.043200
     29 H6          1.6790    0.4930   -0.5900 hn        1 0P4      0.365800
     30 H8         -0.1920   -0.8390    1.2360 h1        1 0P4      0.032200
     31 H9         -0.0500    0.9720    1.2000 h1        1 0P4      0.032200
     32 H10        -0.6770    0.9760   -1.2480 hc        1 0P4      0.060700
     33 H11        -0.8290   -0.8280   -1.2140 hc        1 0P4      0.060700
     34 H12        -2.5340   -0.6550    0.6410 h1        1 0P4      0.043700
     35 H13        -2.3850    1.1590    0.6110 h1        1 0P4      0.043700
     36 H14        -3.1000   -0.1500   -1.9010 hn        1 0P4      0.415800
     37 H15        -4.7940    1.3980    1.0510 hn        1 0P4      0.298700
     38 H16        -7.4200    1.2220    2.3380 ha        1 0P4      0.134000
     39 H17        -9.6960    0.3410    1.8160 ha        1 0P4      0.131000
     40 H18       -10.1150   -1.0020   -0.2150 ha        1 0P4      0.132000
     41 H19        -8.2810   -1.5230   -1.8290 ha        1 0P4      0.148000
@<TRIPOS>BOND
     1    1    2 ar  
     2    1    8 ar  
     3    1   24 1   
     4    2    3 1   
     5    2    4 ar  
     6    4    5 ar  
     7    4   25 1   
     8    5    6 1   
     9    5    7 ar  
    10    7    8 ar  
    11    7   26 1   
    12    8    9 1   
    13    9   10 1   
    14    9   27 1   
    15    9   28 1   
    16   10   11 1   
    17   10   29 1   
    18   11   12 1   
    19   11   30 1   
    20   11   31 1   
    21   12   13 1   
    22   12   32 1   
    23   12   33 1   
    24   13   14 1   
    25   13   34 1   
    26   13   35 1   
    27   14   15 1   
    28   14   36 1   
    29   15   16 1   
    30   15   23 2   
    31   16   17 1   
    32   16   37 1   
    33   17   18 ar  
    34   17   22 ar  
    35   18   19 ar  
    36   18   38 1   
    37   19   20 ar  
    38   19   39 1   
    39   20   21 ar  
    40   20   40 1   
    41   21   22 ar  
    42   21   41 1   
    43   22   23 1   
@<TRIPOS>SUBSTRUCTURE
     1 0P4         1 TEMP              0 ****  ****    0 ROOT
