@<TRIPOS>MOLECULE
0P5
   56    60     1     0     0
SMALL
bcc


@<TRIPOS>ATOM
      1 CL1        -2.9770   -1.5570   -2.2950 cl        1 0P5     -0.065400
      2 CAY        -3.7740   -1.9310   -0.8460 ca        1 0P5      0.052400
      3 CAJ        -5.1640   -2.0420   -0.8500 ca        1 0P5     -0.152000
      4 CAZ        -5.8350   -2.3510    0.3470 ca        1 0P5      0.135100
      5 OAV        -7.2070   -2.4350    0.2280 os        1 0P5     -0.322900
      6 CAA        -7.9220   -2.7750    1.4110 c3        1 0P5      0.111700
      7 CAF        -5.1300   -2.5470    1.5420 ca        1 0P5     -0.199000
      8 CAG        -3.7420   -2.4290    1.5410 ca        1 0P5     -0.078000
      9 CBD        -3.0670   -2.1340    0.3530 ca        1 0P5      0.068100
     10 OAW        -1.6710   -2.1720    0.3830 os        1 0P5     -0.354400
     11 C4         -0.9900   -0.9630    0.3450 ca        1 0P5      0.704600
     12 C5          0.4150   -1.0960    0.2990 ca        1 0P5     -0.467600
     13 N3         -1.6540    0.2130    0.3570 nb        1 0P5     -0.813000
     14 C2         -0.8520    1.3490    0.3290 ca        1 0P5      0.926900
     15 N          -1.4950    2.6110    0.4550 nh        1 0P5     -0.734300
     16 CA         -0.7200    3.7760    0.0680 c3        1 0P5      0.132800
     17 CAM        -2.9180    2.6760    0.1800 c3        1 0P5      0.188800
     18 CAL        -3.5510    3.9890    0.6890 c3        1 0P5      0.089000
     19 NAS        -2.8120    5.1590    0.3210 n         1 0P5     -0.569900
     20 C          -1.4500    5.1180    0.1210 c         1 0P5      0.690500
     21 O          -0.8080    6.1710   -0.0590 o         1 0P5     -0.641500
     22 N1          0.5260    1.3420    0.2480 nb        1 0P5     -0.816000
     23 C6          1.1510    0.1200    0.2650 ca        1 0P5      0.713200
     24 NAT         2.5540    0.1140    0.3140 nh        1 0P5     -0.846900
     25 CAN         3.2420   -1.0740   -0.1450 c3        1 0P5      0.178500
     26 CBC         4.7360   -0.8820   -0.1620 cc        1 0P5      0.385800
     27 NAU         5.4350   -0.3950    0.9660 na        1 0P5     -0.272300
     28 CBG         6.7860   -0.3810    0.6180 ca        1 0P5     -0.069200
     29 CAI         7.9440   -0.0030    1.3100 ca        1 0P5     -0.135000
     30 CAE         9.1520   -0.1260    0.6430 ca        1 0P5     -0.108000
     31 CAD         9.2270   -0.6100   -0.6760 ca        1 0P5     -0.154000
     32 CAH         8.0960   -0.9900   -1.3820 ca        1 0P5     -0.065000
     33 CBF         6.8500   -0.8810   -0.7470 ca        1 0P5      0.060400
     34 NAR         5.5500   -1.1780   -1.1970 nd        1 0P5     -0.550100
     35 H1         -5.7450   -1.8930   -1.7720 ha        1 0P5      0.167000
     36 H2         -7.7760   -1.9960    2.1980 h1        1 0P5      0.047367
     37 H3         -8.9890   -2.7980    1.0710 h1        1 0P5      0.047367
     38 H4         -7.6070   -3.7780    1.7880 h1        1 0P5      0.047367
     39 H5         -5.6530   -2.7890    2.4770 ha        1 0P5      0.146000
     40 H6         -3.1670   -2.5760    2.4680 ha        1 0P5      0.154000
     41 H7          0.8770   -2.0870    0.2930 ha        1 0P5      0.170000
     42 H8          0.1590    3.8680    0.7710 h1        1 0P5      0.090700
     43 H9         -0.3180    3.6800   -0.9840 h1        1 0P5      0.090700
     44 H10        -3.1160    2.5720   -0.9260 h1        1 0P5      0.069200
     45 H11        -3.4480    1.8360    0.7130 h1        1 0P5      0.069200
     46 H12        -4.5870    4.0580    0.2490 h1        1 0P5      0.048700
     47 H13        -3.6540    3.9350    1.8120 h1        1 0P5      0.048700
     48 H14        -3.2560    6.0430    0.4120 hn        1 0P5      0.325500
     49 H15         2.9940    0.9760    0.0600 hn        1 0P5      0.430800
     50 H16         3.0080   -1.9180    0.5700 h1        1 0P5      0.076700
     51 H17         2.9000   -1.3870   -1.1760 h1        1 0P5      0.076700
     52 H18         5.0380   -0.1000    1.8180 hn        1 0P5      0.314700
     53 H19         7.8940    0.3760    2.3390 ha        1 0P5      0.137000
     54 H20        10.0830    0.1610    1.1570 ha        1 0P5      0.134000
     55 H21        10.2140   -0.6870   -1.1560 ha        1 0P5      0.135000
     56 H22         8.1620   -1.3670   -2.4130 ha        1 0P5      0.149000
@<TRIPOS>BOND
     1    1    2 1   
     2    2    3 ar  
     3    2    9 ar  
     4    3    4 ar  
     5    3   35 1   
     6    4    5 1   
     7    4    7 ar  
     8    5    6 1   
     9    6   36 1   
    10    6   37 1   
    11    6   38 1   
    12    7    8 ar  
    13    7   39 1   
    14    8    9 ar  
    15    8   40 1   
    16    9   10 1   
    17   10   11 1   
    18   11   12 ar  
    19   11   13 ar  
    20   12   23 ar  
    21   12   41 1   
    22   13   14 ar  
    23   14   15 1   
    24   14   22 ar  
    25   15   16 1   
    26   15   17 1   
    27   16   20 1   
    28   16   42 1   
    29   16   43 1   
    30   17   18 1   
    31   17   44 1   
    32   17   45 1   
    33   18   19 1   
    34   18   46 1   
    35   18   47 1   
    36   19   20 1   
    37   19   48 1   
    38   20   21 2   
    39   22   23 ar  
    40   23   24 1   
    41   24   25 1   
    42   24   49 1   
    43   25   26 1   
    44   25   50 1   
    45   25   51 1   
    46   26   27 1   
    47   26   34 2   
    48   27   28 1   
    49   27   52 1   
    50   28   29 ar  
    51   28   33 ar  
    52   29   30 ar  
    53   29   53 1   
    54   30   31 ar  
    55   30   54 1   
    56   31   32 ar  
    57   31   55 1   
    58   32   33 ar  
    59   32   56 1   
    60   33   34 1   
@<TRIPOS>SUBSTRUCTURE
     1 0P5         1 TEMP              0 ****  ****    0 ROOT
