@<TRIPOS>MOLECULE
0P5
   56    47     1     0     0
SMALL
bcc


@<TRIPOS>ATOM
      1 CL1         1.6000   -1.5220    4.5240 cl        1 0P5      0.013000
      2 CAY         2.2600   -2.4930    3.1930 c1        1 0P5     -0.020000
      3 CAJ         3.6120   -2.8490    3.1910 c1        1 0P5     -0.199000
      4 CAZ         4.1270   -3.6310    2.1550 c1        1 0P5      0.095000
      5 OAV         5.5050   -3.9940    2.1530 o         1 0P5     -0.205000
      6 CAA         5.7790   -5.2480    2.8130 c3        1 0P5     -0.079000
      7 CAF         3.2920   -4.0570    1.1210 c2        1 0P5     -0.149000
      8 CAG         1.9320   -3.7000    1.1230 c1        1 0P5     -0.083000
      9 CBD         1.4200   -2.9220    2.1530 c1        1 0P5      0.016000
     10 OAW         0.0320   -2.6020    2.1800 os        1 0P5     -0.135000
     11 C4         -0.1490   -1.2840    1.7230 c1        1 0P5      0.203000
     12 C5         -0.8090   -1.0470    0.5250 c1        1 0P5     -0.309000
     13 N3          0.2370   -0.2660    2.4790 n1        1 0P5     -0.276000
     14 C2         -0.0170    1.0280    2.0770 c1        1 0P5      0.207000
     15 N           0.4630    2.1340    2.8720 n2        1 0P5     -0.232000
     16 CA          1.4320    2.8390    2.1640 c3        1 0P5     -0.050000
     17 CAM        -0.6660    2.9640    3.2950 c3        1 0P5     -0.041000
     18 CAL        -0.2510    4.1400    4.0470 c3        1 0P5     -0.027000
     19 NAS         0.7610    4.9110    3.3990 n         1 0P5     -0.380000
     20 C           1.8540    4.1480    2.9850 c2        1 0P5      0.298000
     21 O           2.9590    4.7080    2.7510 o         1 0P5     -0.363000
     22 N1         -0.6700    1.2660    0.8940 n1        1 0P5     -0.310000
     23 C6         -1.0620    0.2360    0.1260 c1        1 0P5      0.161000
     24 NAT        -1.7840    0.4810   -1.0870 n2        1 0P5     -0.269000
     25 CAN        -1.2680    0.0360   -2.3090 c3        1 0P5      0.008000
     26 CBC        -2.2540    0.3950   -3.4390 c2        1 0P5     -0.036000
     27 NAU        -2.2470    1.4390   -4.3120 n2        1 0P5     -0.237000
     28 CBG        -3.1220    1.1550   -5.3140 c1        1 0P5     -0.026000
     29 CAI        -3.5590    1.8990   -6.4000 c1        1 0P5     -0.116500
     30 CAE        -4.5550    1.4010   -7.2270 c1        1 0P5     -0.116500
     31 CAD        -5.1100    0.1710   -6.9720 c1        1 0P5     -0.116500
     32 CAH        -4.6750   -0.5710   -5.8900 c1        1 0P5     -0.116500
     33 CBF        -3.6720   -0.0690   -5.0580 c1        1 0P5     -0.075000
     34 NAR        -3.1360   -0.5360   -3.9030 n1        1 0P5     -0.131000
     35 H1          4.1970   -2.5770    3.9440 ha        1 0P5      0.156000
     36 H2          6.6720   -5.5230    2.6170 h1        1 0P5      0.088333
     37 H3          5.6790   -5.1380    3.7730 h1        1 0P5      0.088333
     38 H4          5.1370   -5.9440    2.4890 h1        1 0P5      0.088333
     39 H5          3.6460   -4.5970    0.4080 ha        1 0P5      0.159000
     40 H6          1.3450   -3.9990    0.3980 ha        1 0P5      0.155000
     41 H7         -1.0960   -1.8060   -0.0390 ha        1 0P5      0.176000
     42 H8          2.1720    2.1620    1.9610 h1        1 0P5      0.132000
     43 H9          1.1680    3.1090    1.2680 h1        1 0P5      0.132000
     44 H10        -1.2620    2.4250    3.8520 h1        1 0P5      0.104000
     45 H11        -1.1590    3.2590    2.4960 h1        1 0P5      0.104000
     46 H12         0.1020    3.8370    4.9540 h1        1 0P5      0.090500
     47 H13        -1.0060    4.6910    4.1860 h1        1 0P5      0.090500
     48 H14         0.8640    5.7810    3.5970 hn        1 0P5      0.241000
     49 H15        -2.5390    1.0280   -1.0740 hn        1 0P5      0.213000
     50 H16        -0.3650    0.4900   -2.4850 h1        1 0P5      0.134000
     51 H17        -1.1470   -0.9160   -2.2780 h1        1 0P5      0.134000
     52 H18        -1.7350    2.1370   -4.2660 DU        1 0P5      0.262000
     53 H19        -3.1840    2.7320   -6.5740 ha        1 0P5      0.137750
     54 H20        -4.8540    1.9120   -7.9710 ha        1 0P5      0.137750
     55 H21        -5.8370   -0.1920   -7.5760 ha        1 0P5      0.137750
     56 H22        -5.0600   -1.4290   -5.7120 ha        1 0P5      0.137750
@<TRIPOS>BOND
     1    1    2 1   
     2    2    9 1   
     3    3    4 1   
     4    3   35 1   
     5    4    7 1   
     6    5    6 1   
     7    6   36 1   
     8    6   37 1   
     9    6   38 1   
    10    7    8 1   
    11    7   39 1   
    12    8   40 1   
    13    9   10 1   
    14   10   11 1   
    15   11   13 1   
    16   12   23 1   
    17   12   41 1   
    18   14   22 1   
    19   15   16 1   
    20   15   17 1   
    21   16   20 1   
    22   16   42 1   
    23   16   43 1   
    24   17   18 1   
    25   17   44 1   
    26   17   45 1   
    27   18   19 1   
    28   18   46 1   
    29   18   47 1   
    30   19   20 1   
    31   19   48 1   
    32   20   21 1   
    33   24   25 1   
    34   24   49 1   
    35   25   26 1   
    36   25   50 1   
    37   25   51 1   
    38   26   27 1   
    39   26   34 1   
    40   27   28 1   
    41   28   33 1   
    42   29   30 1   
    43   29   53 1   
    44   30   54 1   
    45   31   32 1   
    46   31   55 1   
    47   32   56 1   
@<TRIPOS>SUBSTRUCTURE
     1 0P5         1 TEMP              0 ****  ****    0 ROOT
