@<TRIPOS>MOLECULE
0P5
   56    60     1     0     0
SMALL
bcc


@<TRIPOS>ATOM
      1 CL1         0.2730    0.2350    0.2320 cl        1 0P5     -0.065400
      2 CAY         1.9410   -0.0270    0.0790 ca        1 0P5      0.052400
      3 CAJ         2.6990   -0.2380    1.2300 ca        1 0P5     -0.152000
      4 CAZ         4.0840   -0.4560    1.1130 ca        1 0P5      0.135100
      5 OAV         4.7350   -0.6520    2.3140 os        1 0P5     -0.322900
      6 CAA         6.1340   -0.9050    2.2390 c3        1 0P5      0.111700
      7 CAF         4.7120   -0.4630   -0.1390 ca        1 0P5     -0.199000
      8 CAG         3.9510   -0.2460   -1.2840 ca        1 0P5     -0.078000
      9 CBD         2.5720   -0.0400   -1.1780 ca        1 0P5      0.068100
     10 OAW         1.8410    0.0260   -2.3660 os        1 0P5     -0.354400
     11 C4          1.3690    1.2690   -2.7670 ca        1 0P5      0.704600
     12 C5          0.5740    1.2330   -3.9330 ca        1 0P5     -0.467600
     13 N3          1.6740    2.3880   -2.0740 nb        1 0P5     -0.813000
     14 C2          1.1490    3.5680   -2.5900 ca        1 0P5      0.926900
     15 N           1.5330    4.7860   -1.9660 nh        1 0P5     -0.734300
     16 CA          0.7210    5.9530   -2.2640 c3        1 0P5      0.132800
     17 CAM         2.0740    4.7170   -0.6210 c3        1 0P5      0.188800
     18 CAL         2.7690    6.0300   -0.2040 c3        1 0P5      0.089000
     19 NAS         1.9930    7.2010   -0.4820 n         1 0P5     -0.569900
     20 C           1.0880    7.2350   -1.5180 c         1 0P5      0.690500
     21 O           0.5280    8.3050   -1.8290 o         1 0P5     -0.641500
     22 N1          0.3320    3.6510   -3.6990 nb        1 0P5     -0.816000
     23 C6          0.0750    2.4870   -4.3810 ca        1 0P5      0.712200
     24 NAT        -0.6470    2.5870   -5.5800 nh        1 0P5     -0.846900
     25 CAN        -1.3380    1.4080   -6.0550 c3        1 0P5      0.178500
     26 CBC        -2.1780    1.7040   -7.2690 cc        1 0P5      0.385800
     27 NAU        -1.6440    2.3660   -8.3980 na        1 0P5     -0.272300
     28 CBG        -2.6740    2.4370   -9.3370 ca        1 0P5     -0.069200
     29 CAI        -2.7480    2.9750  -10.6290 ca        1 0P5     -0.135000
     30 CAE        -3.9590    2.8640  -11.2950 ca        1 0P5     -0.108000
     31 CAD        -5.0750    2.2390  -10.7090 ca        1 0P5     -0.154000
     32 CAH        -5.0260    1.7000   -9.4330 ca        1 0P5     -0.065000
     33 CBF        -3.8210    1.7900   -8.7200 ca        1 0P5      0.060400
     34 NAR        -3.4710    1.3510   -7.4290 nd        1 0P5     -0.550100
     35 H1          2.2340   -0.2370    2.2280 ha        1 0P5      0.167000
     36 H2          6.3360   -1.8330    1.6510 h1        1 0P5      0.047367
     37 H3          6.6690   -0.0330    1.7910 h1        1 0P5      0.047367
     38 H4          6.4290   -1.0440    3.3100 h1        1 0P5      0.047367
     39 H5          5.7940   -0.6330   -0.2310 ha        1 0P5      0.146000
     40 H6          4.4230   -0.2440   -2.2780 ha        1 0P5      0.154000
     41 H7          0.3740    0.2830   -4.4370 ha        1 0P5      0.170000
     42 H8         -0.3720    5.7660   -2.0480 h1        1 0P5      0.090700
     43 H9          0.8260    6.1860   -3.3640 h1        1 0P5      0.090700
     44 H10         2.8560    3.9070   -0.5660 h1        1 0P5      0.069200
     45 H11         1.2620    4.4740    0.1230 h1        1 0P5      0.069200
     46 H12         3.7690    6.0970   -0.7260 h1        1 0P5      0.048700
     47 H13         2.9610    5.9740    0.9060 h1        1 0P5      0.048700
     48 H14         2.2620    8.0550   -0.0520 hn        1 0P5      0.325500
     49 H15        -1.1490    3.4440   -5.7060 hn        1 0P5      0.430800
     50 H16        -1.9950    0.9540   -5.2550 h1        1 0P5      0.076700
     51 H17        -0.5640    0.6370   -6.3470 h1        1 0P5      0.076700
     52 H18        -0.7330    2.7260   -8.4880 hn        1 0P5      0.314700
     53 H19        -1.8820    3.4640  -11.0930 ha        1 0P5      0.137000
     54 H20        -4.0530    3.2750  -12.3120 ha        1 0P5      0.134000
     55 H21        -6.0110    2.1790  -11.2850 ha        1 0P5      0.135000
     56 H22        -5.9030    1.2140   -8.9810 ha        1 0P5      0.149000
@<TRIPOS>BOND
     1    1    2 1   
     2    2    3 ar  
     3    2    9 ar  
     4    3    4 ar  
     5    3   35 1   
     6    4    5 1   
     7    4    7 ar  
     8    5    6 1   
     9    6   36 1   
    10    6   37 1   
    11    6   38 1   
    12    7    8 ar  
    13    7   39 1   
    14    8    9 ar  
    15    8   40 1   
    16    9   10 1   
    17   10   11 1   
    18   11   12 ar  
    19   11   13 ar  
    20   12   23 ar  
    21   12   41 1   
    22   13   14 ar  
    23   14   15 1   
    24   14   22 ar  
    25   15   16 1   
    26   15   17 1   
    27   16   20 1   
    28   16   42 1   
    29   16   43 1   
    30   17   18 1   
    31   17   44 1   
    32   17   45 1   
    33   18   19 1   
    34   18   46 1   
    35   18   47 1   
    36   19   20 1   
    37   19   48 1   
    38   20   21 2   
    39   22   23 ar  
    40   23   24 1   
    41   24   25 1   
    42   24   49 1   
    43   25   26 1   
    44   25   50 1   
    45   25   51 1   
    46   26   27 1   
    47   26   34 2   
    48   27   28 1   
    49   27   52 1   
    50   28   29 ar  
    51   28   33 ar  
    52   29   30 ar  
    53   29   53 1   
    54   30   31 ar  
    55   30   54 1   
    56   31   32 ar  
    57   31   55 1   
    58   32   33 ar  
    59   32   56 1   
    60   33   34 1   
@<TRIPOS>SUBSTRUCTURE
     1 0P5         1 TEMP              0 ****  ****    0 ROOT
