@<TRIPOS>MOLECULE
0P5
   56    60     1     0     0
SMALL
bcc


@<TRIPOS>ATOM
      1 Cl1         0.2780    0.2330    0.2340 cl        1 0P5     -0.065400
      2 CAY         1.9460   -0.0300    0.0770 ca        1 0P5      0.052400
      3 CAJ         2.7070   -0.2410    1.2270 ca        1 0P5     -0.152000
      4 CAZ         4.0910   -0.4590    1.1060 ca        1 0P5      0.135100
      5 OAV         4.7450   -0.6550    2.3060 os        1 0P5     -0.322900
      6 CAA         6.1430   -0.9100    2.2270 c3        1 0P5      0.111700
      7 CAF         4.7160   -0.4660   -0.1470 ca        1 0P5     -0.199000
      8 CAG         3.9530   -0.2480   -1.2910 ca        1 0P5     -0.078000
      9 CBD         2.5740   -0.0420   -1.1810 ca        1 0P5      0.068100
     10 OAW         1.8400    0.0250   -2.3680 os        1 0P5     -0.354400
     11 C4          1.3680    1.2680   -2.7670 ca        1 0P5      0.704600
     12 C5          0.5710    1.2330   -3.9320 ca        1 0P5     -0.467600
     13 N3          1.6740    2.3860   -2.0740 nb        1 0P5     -0.813000
     14 C2          1.1490    3.5670   -2.5880 ca        1 0P5      0.926900
     15 N           1.5340    4.7850   -1.9640 nh        1 0P5     -0.734300
     16 CA          0.7220    5.9520   -2.2600 c3        1 0P5      0.132800
     17 CAM         2.0770    4.7150   -0.6210 c3        1 0P5      0.188800
     18 CAL         2.7730    6.0270   -0.2040 c3        1 0P5      0.089000
     19 NAS         1.9960    7.1980   -0.4800 ns        1 0P5     -0.569900
     20 C           1.0890    7.2340   -1.5140 c         1 0P5      0.690500
     21 O           0.5280    8.3030   -1.8230 o         1 0P5     -0.641500
     22 N1          0.3300    3.6510   -3.6970 nb        1 0P5     -0.816000
     23 C6          0.0720    2.4870   -4.3790 ca        1 0P5      0.713200
     24 NAT        -0.6510    2.5880   -5.5770 nu        1 0P5     -0.846900
     25 CAN        -1.3430    1.4100   -6.0520 c3        1 0P5      0.178500
     26 CBC        -2.1840    1.7060   -7.2660 cc        1 0P5      0.385800
     27 NAU        -1.6500    2.3690   -8.3940 na        1 0P5     -0.272300
     28 CBG        -2.6800    2.4420   -9.3330 ca        1 0P5     -0.069200
     29 CAI        -2.7550    2.9810  -10.6250 ca        1 0P5     -0.135000
     30 CAE        -3.9650    2.8700  -11.2910 ca        1 0P5     -0.108000
     31 CAD        -5.0810    2.2440  -10.7040 ca        1 0P5     -0.154000
     32 CAH        -5.0320    1.7050   -9.4290 ca        1 0P5     -0.065000
     33 CBF        -3.8270    1.7940   -8.7160 ca        1 0P5      0.060400
     34 NAR        -3.4770    1.3540   -7.4260 nd        1 0P5     -0.550100
     35 H1          2.2440   -0.2410    2.2250 ha        1 0P5      0.167000
     36 H2          6.6770   -0.0370    1.7790 h1        1 0P5      0.047367
     37 H3          6.3430   -1.8370    1.6380 h1        1 0P5      0.047367
     38 H4          6.4410   -1.0490    3.2970 h1        1 0P5      0.047367
     39 H5          5.7980   -0.6350   -0.2420 ha        1 0P5      0.146000
     40 H6          4.4230   -0.2460   -2.2860 ha        1 0P5      0.154000
     41 H7          0.3700    0.2840   -4.4360 ha        1 0P5      0.170000
     42 H8          0.8250    6.1860   -3.3610 h1        1 0P5      0.090700
     43 H9         -0.3720    5.7650   -2.0430 h1        1 0P5      0.090700
     44 H10         1.2660    4.4710    0.1250 h1        1 0P5      0.069200
     45 H11         2.8590    3.9050   -0.5680 h1        1 0P5      0.069200
     46 H12         2.9670    5.9700    0.9060 h1        1 0P5      0.048700
     47 H13         3.7720    6.0950   -0.7270 h1        1 0P5      0.048700
     48 H14         2.2650    8.0520   -0.0480 hn        1 0P5      0.325500
     49 H15        -1.1530    3.4460   -5.7020 hn        1 0P5      0.430800
     50 H16        -2.0000    0.9560   -5.2520 h1        1 0P5      0.076700
     51 H17        -0.5700    0.6380   -6.3450 h1        1 0P5      0.076700
     52 H18        -0.7380    2.7300   -8.4840 hn        1 0P5      0.314700
     53 H19        -1.8880    3.4700  -11.0880 ha        1 0P5      0.137000
     54 H20        -4.0600    3.2820  -12.3070 ha        1 0P5      0.134000
     55 H21        -6.0170    2.1860  -11.2800 ha        1 0P5      0.135000
     56 H22        -5.9090    1.2180   -8.9770 ha        1 0P5      0.149000
@<TRIPOS>BOND
     1    1    2 1   
     2    2    3 ar  
     3    2    9 ar  
     4    3    4 ar  
     5    3   35 1   
     6    4    5 1   
     7    4    7 ar  
     8    5    6 1   
     9    6   36 1   
    10    6   37 1   
    11    6   38 1   
    12    7    8 ar  
    13    7   39 1   
    14    8    9 ar  
    15    8   40 1   
    16    9   10 1   
    17   10   11 1   
    18   11   12 ar  
    19   11   13 ar  
    20   12   23 ar  
    21   12   41 1   
    22   13   14 ar  
    23   14   15 1   
    24   14   22 ar  
    25   15   16 1   
    26   15   17 1   
    27   16   20 1   
    28   16   42 1   
    29   16   43 1   
    30   17   18 1   
    31   17   44 1   
    32   17   45 1   
    33   18   19 1   
    34   18   46 1   
    35   18   47 1   
    36   19   20 1   
    37   19   48 1   
    38   20   21 2   
    39   22   23 ar  
    40   23   24 1   
    41   24   25 1   
    42   24   49 1   
    43   25   26 1   
    44   25   50 1   
    45   25   51 1   
    46   26   27 1   
    47   26   34 2   
    48   27   28 1   
    49   27   52 1   
    50   28   29 ar  
    51   28   33 ar  
    52   29   30 ar  
    53   29   53 1   
    54   30   31 ar  
    55   30   54 1   
    56   31   32 ar  
    57   31   55 1   
    58   32   33 ar  
    59   32   56 1   
    60   33   34 1   
@<TRIPOS>SUBSTRUCTURE
     1 0P5         1 TEMP              0 ****  ****    0 ROOT
