@<TRIPOS>MOLECULE
0P5
   57    61     1     0     0
SMALL
bcc


@<TRIPOS>ATOM
      1 CL1         0.2650    0.5500    0.6920 cl        1 0P5     -0.064400
      2 CAY         1.8750    0.0690    0.4630 ca        1 0P5      0.057400
      3 CAJ         2.7020   -0.0860    1.5730 ca        1 0P5     -0.148000
      4 CAZ         4.0410   -0.4880    1.3850 ca        1 0P5      0.160100
      5 OAV         4.7660   -0.6050    2.5470 os        1 0P5     -0.312900
      6 CAA         6.1060   -1.0790    2.4190 c3        1 0P5      0.107700
      7 CAF         4.5510   -0.7280    0.1020 ca        1 0P5     -0.199000
      8 CAG         3.7240   -0.5650   -1.0050 ca        1 0P5     -0.063000
      9 CBD         2.3920   -0.1790   -0.8210 ca        1 0P5      0.023100
     10 OAW         1.5670   -0.1840   -1.9560 os        1 0P5     -0.326400
     11 C4          1.1230    1.0210   -2.4420 ca        1 0P5      0.730600
     12 C5          0.2010    0.8830   -3.5380 ca        1 0P5     -0.412600
     13 N3          1.5220    2.1980   -1.9350 nb        1 0P5     -0.766000
     14 C2          0.9960    3.3490   -2.5360 ca        1 0P5      0.960900
     15 N           1.4270    4.5880   -2.0800 nh        1 0P5     -0.731300
     16 CA          0.7480    5.7810   -2.5460 c3        1 0P5      0.136800
     17 CAM         2.2870    4.6780   -0.9130 c3        1 0P5      0.195800
     18 CAL         3.0600    6.0110   -0.8410 c3        1 0P5      0.087000
     19 NAS         2.2350    7.1590   -1.0600 n         1 0P5     -0.567900
     20 C           1.1470    7.1070   -1.8940 c         1 0P5      0.691500
     21 O           0.4660    8.1180   -2.1440 o         1 0P5     -0.613500
     22 N1          0.0850    3.3250   -3.5950 nb        1 0P5     -0.809000
     23 C6         -0.2720    2.0950   -4.0440 ca        1 0P5      0.566200
     24 NAT        -1.2630    2.0610   -5.1510 n4        1 0P5     -0.745700
     25 CAN        -0.7060    2.6380   -6.4180 c3        1 0P5      0.125500
     26 CBC        -1.7140    2.5420   -7.5220 cc        1 0P5      0.302800
     27 NAU        -1.8060    3.4940   -8.5550 na        1 0P5     -0.242300
     28 CBG        -2.8250    3.0490   -9.4020 ca        1 0P5     -0.054200
     29 CAI        -3.3590    3.5660  -10.5920 ca        1 0P5     -0.131000
     30 CAE        -4.3990    2.8620  -11.1740 ca        1 0P5     -0.081000
     31 CAD        -4.9110    1.6760  -10.6060 ca        1 0P5     -0.133000
     32 CAH        -4.4020    1.1460   -9.4350 ca        1 0P5     -0.060000
     33 CBF        -3.3410    1.8260   -8.8070 ca        1 0P5      0.064400
     34 NAR        -2.6220    1.5430   -7.6390 nd        1 0P5     -0.570100
     35 H1          2.3300    0.0910    2.5940 ha        1 0P5      0.179000
     36 H2          6.1210   -2.0940    1.9540 h1        1 0P5      0.056033
     37 H3          6.4610   -1.1220    3.4810 h1        1 0P5      0.056033
     38 H4          6.7190   -0.3590    1.8250 h1        1 0P5      0.056033
     39 H5          5.5940   -1.0450   -0.0430 ha        1 0P5      0.158000
     40 H6          4.1030   -0.7540   -2.0210 ha        1 0P5      0.156000
     41 H7         -0.0800   -0.1150   -3.8920 ha        1 0P5      0.194000
     42 H8         -0.3680    5.6820   -2.3930 h1        1 0P5      0.090700
     43 H9          0.9450    5.9020   -3.6520 h1        1 0P5      0.090700
     44 H10         1.6590    4.5520    0.0160 h1        1 0P5      0.082700
     45 H11         3.0590    3.8560   -0.9340 h1        1 0P5      0.082700
     46 H12         3.5200    6.0750    0.1870 h1        1 0P5      0.065200
     47 H13         3.8990    5.9930   -1.5970 h1        1 0P5      0.065200
     48 H14         2.5030    8.0300   -0.6610 hn        1 0P5      0.345500
     49 H15        -2.1030    2.5930   -4.8800 hn        1 0P5      0.478300
     50 H16         0.2170    2.0460   -6.6910 hx        1 0P5      0.123700
     51 H17        -0.4140    3.7120   -6.2250 hx        1 0P5      0.123700
     52 H18        -1.2000    4.2560   -8.7130 hn        1 0P5      0.320700
     53 H19        -2.9670    4.4890  -11.0410 ha        1 0P5      0.153000
     54 H20        -4.8460    3.2360  -12.1110 ha        1 0P5      0.154000
     55 H21        -5.7400    1.1620  -11.1180 ha        1 0P5      0.154000
     56 H22        -4.8040    0.2200   -8.9980 ha        1 0P5      0.159000
     57 HAT2       -1.5390    1.0800   -5.3090 hn        1 0P5      0.478300
@<TRIPOS>BOND
     1    1    2 1   
     2    2    3 ar  
     3    2    9 ar  
     4    3    4 ar  
     5    3   35 1   
     6    4    5 1   
     7    4    7 ar  
     8    5    6 1   
     9    6   36 1   
    10    6   37 1   
    11    6   38 1   
    12    7    8 ar  
    13    7   39 1   
    14    8    9 ar  
    15    8   40 1   
    16    9   10 1   
    17   10   11 1   
    18   11   12 ar  
    19   11   13 ar  
    20   12   23 ar  
    21   12   41 1   
    22   13   14 ar  
    23   14   15 1   
    24   14   22 ar  
    25   15   16 1   
    26   15   17 1   
    27   16   20 1   
    28   16   42 1   
    29   16   43 1   
    30   17   18 1   
    31   17   44 1   
    32   17   45 1   
    33   18   19 1   
    34   18   46 1   
    35   18   47 1   
    36   19   20 1   
    37   19   48 1   
    38   20   21 2   
    39   22   23 ar  
    40   23   24 1   
    41   24   25 1   
    42   24   49 1   
    43   24   57 1   
    44   25   26 1   
    45   25   50 1   
    46   25   51 1   
    47   26   27 1   
    48   26   34 2   
    49   27   28 1   
    50   27   52 1   
    51   28   29 ar  
    52   28   33 ar  
    53   29   30 ar  
    54   29   53 1   
    55   30   31 ar  
    56   30   54 1   
    57   31   32 ar  
    58   31   55 1   
    59   32   33 ar  
    60   32   56 1   
    61   33   34 1   
@<TRIPOS>SUBSTRUCTURE
     1 0P5         1 TEMP              0 ****  ****    0 ROOT
