@<TRIPOS>MOLECULE
0P6
   20    21     1     0     0
SMALL
bcc


@<TRIPOS>ATOM
      1 CAE        -0.0040   -0.0080    0.0020 ca        1 0P6     -0.267300
      2 CAG         1.3590    0.0640    0.0140 ca        1 0P6     -0.059000
      3 CAK         2.0710    0.0240    1.2490 ca        1 0P6     -0.148300
      4 CAF         3.4820    0.0920    1.3040 ca        1 0P6     -0.139000
      5 CAC         4.1330    0.0520    2.5150 ca        1 0P6     -0.105000
      6 CAD         3.4090   -0.0590    3.7170 ca        1 0P6     -0.161000
      7 CAJ         2.0250   -0.1290    3.6950 ca        1 0P6      0.078800
      8 OAB         1.4050   -0.2320    4.9160 oh        1 0P6     -0.499100
      9 CAL         1.3030   -0.0870    2.4470 ca        1 0P6      0.380600
     10 NAH        -0.0710   -0.1460    2.4480 nb        1 0P6     -0.753000
     11 CAI        -0.7140   -0.1280    1.2660 ca        1 0P6      0.641200
     12 NAA        -2.1060   -0.3010    1.2260 nh        1 0P6     -0.925500
     13 H1         -0.5710    0.0110   -0.9390 ha        1 0P6      0.144000
     14 H2          1.9310    0.1520   -0.9230 ha        1 0P6      0.141000
     15 H3          4.0450    0.1780    0.3630 ha        1 0P6      0.133000
     16 H4          5.2310    0.1050    2.5610 ha        1 0P6      0.136000
     17 H5          3.9370   -0.0930    4.6810 ha        1 0P6      0.152000
     18 H6          0.4490   -0.3100    4.7820 ho        1 0P6      0.443000
     19 H7         -2.5460    0.1780    0.4720 hn        1 0P6      0.403800
     20 H8         -2.5850   -0.2130    2.0960 hn        1 0P6      0.403800
@<TRIPOS>BOND
     1    1    2 ar  
     2    1   11 ar  
     3    1   13 1   
     4    2    3 ar  
     5    2   14 1   
     6    3    4 ar  
     7    3    9 ar  
     8    4    5 ar  
     9    4   15 1   
    10    5    6 ar  
    11    5   16 1   
    12    6    7 ar  
    13    6   17 1   
    14    7    8 1   
    15    7    9 ar  
    16    8   18 1   
    17    9   10 ar  
    18   10   11 ar  
    19   11   12 1   
    20   12   19 1   
    21   12   20 1   
@<TRIPOS>SUBSTRUCTURE
     1 0P6         1 TEMP              0 ****  ****    0 ROOT
