@<TRIPOS>MOLECULE
0P6
   21    22     1     0     0
SMALL
bcc


@<TRIPOS>ATOM
      1 CAE         0.0040    0.0040   -0.0780 ca        1 0P6     -0.234300
      2 CAG         1.3760    0.0150   -0.0200 ca        1 0P6     -0.041000
      3 CAK         2.0480   -0.0240    1.2370 ca        1 0P6     -0.085300
      4 CAF         3.4560   -0.0140    1.3250 ca        1 0P6     -0.154000
      5 CAC         4.0770   -0.0530    2.5570 ca        1 0P6     -0.031000
      6 CAD         3.3230   -0.1040    3.7420 ca        1 0P6     -0.207000
      7 CAJ         1.9350   -0.1160    3.6990 ca        1 0P6      0.122800
      8 OAB         1.1610   -0.1660    4.8230 oh        1 0P6     -0.464100
      9 CAL         1.2460   -0.0760    2.4290 ca        1 0P6      0.375600
     10 NAH        -0.1240   -0.0880    2.3760 nb        1 0P6     -0.588000
     11 CAI        -0.6980   -0.0490    1.1730 ca        1 0P6      0.432200
     12 NAA        -2.1790   -0.0620    1.1380 n4        1 0P6     -0.818300
     13 H1         -0.5310    0.0340   -1.0370 ha        1 0P6      0.165000
     14 H2          1.9770    0.0560   -0.9460 ha        1 0P6      0.177000
     15 H3          4.0500    0.0260    0.3980 ha        1 0P6      0.163000
     16 H4          5.1780   -0.0450    2.6240 ha        1 0P6      0.167000
     17 H5          3.8430   -0.1350    4.7130 ha        1 0P6      0.166000
     18 H6          1.7450   -0.1890    5.6000 ho        1 0P6      0.445000
     19 H7         -2.5720   -0.1010    2.0890 hn        1 0P6      0.470467
     20 H8         -2.5030    0.7910    0.6720 hn        1 0P6      0.470467
     21 HAA3       -2.4870   -0.8840    0.6100 hn        1 0P6      0.470467
@<TRIPOS>BOND
     1    1    2 ar  
     2    1   11 ar  
     3    1   13 1   
     4    2    3 ar  
     5    2   14 1   
     6    3    4 ar  
     7    3    9 ar  
     8    4    5 ar  
     9    4   15 1   
    10    5    6 ar  
    11    5   16 1   
    12    6    7 ar  
    13    6   17 1   
    14    7    8 1   
    15    7    9 ar  
    16    8   18 1   
    17    9   10 ar  
    18   10   11 ar  
    19   11   12 1   
    20   12   19 1   
    21   12   20 1   
    22   12   21 1   
@<TRIPOS>SUBSTRUCTURE
     1 0P6         1 TEMP              0 ****  ****    0 ROOT
