@<TRIPOS>MOLECULE
0P6
   20    16     1     0     0
SMALL
bcc


@<TRIPOS>ATOM
      1 CAE        -1.3590   -0.0200   -1.8930 c1        1 0P6     -0.126250
      2 CAG         0.0090   -0.0200   -1.8930 c1        1 0P6     -0.126250
      3 CAK         0.7010   -0.0200   -0.6920 c1        1 0P6     -0.083000
      4 CAF         2.1100   -0.0200   -0.6880 c1        1 0P6     -0.126250
      5 CAC         2.8010   -0.0200    0.5160 c1        1 0P6     -0.126250
      6 CAD         2.1030   -0.0200    1.7200 c1        1 0P6     -0.161000
      7 CAJ         0.7140   -0.0200    1.7180 c1        1 0P6      0.099000
      8 OAB         0.0640   -0.2130    2.9510 o         1 0P6     -0.253000
      9 CAL         0.0120   -0.0200    0.4980 c2        1 0P6     -0.013000
     10 NAH        -1.3730   -0.0200    0.4950 n2        1 0P6     -0.227000
     11 CAI        -2.0550   -0.0200   -0.6880 c1        1 0P6      0.120000
     12 NAA        -3.4650   -0.0200   -0.5300 n3        1 0P6     -0.323000
     13 H1         -1.8470   -0.0200   -2.7390 ha        1 0P6      0.138500
     14 H2          0.4970   -0.0200   -2.7390 ha        1 0P6      0.138500
     15 H3          2.6000   -0.0200   -1.5320 ha        1 0P6      0.138500
     16 H4          3.7770   -0.0200    0.5190 ha        1 0P6      0.138500
     17 H5          2.5900   -0.0200    2.5670 ha        1 0P6      0.152000
     18 H6         -0.0450    0.5710    3.3530 ho        1 0P6      0.242000
     19 H7         -3.9170   -0.8090   -0.4720 hn        1 0P6      0.199000
     20 H8         -3.9170    0.7700   -0.4710 hn        1 0P6      0.199000
@<TRIPOS>BOND
     1    1    2 1   
     2    1   13 1   
     3    2   14 1   
     4    3    9 1   
     5    4    5 1   
     6    4   15 1   
     7    5   16 1   
     8    6    7 1   
     9    6   17 1   
    10    7    9 1   
    11    8   18 1   
    12    9   10 1   
    13   10   11 1   
    14   11   12 1   
    15   12   19 1   
    16   12   20 1   
@<TRIPOS>SUBSTRUCTURE
     1 0P6         1 TEMP              0 ****  ****    0 ROOT
