@<TRIPOS>MOLECULE
0P6
   20    21     1     0     0
SMALL
bcc


@<TRIPOS>ATOM
      1 CAE         2.1420    1.1690   -0.0360 ca        1 0P6     -0.267300
      2 CAG         0.9570    1.8470    0.0060 ca        1 0P6     -0.059000
      3 CAK        -0.2790    1.1350   -0.0110 ca        1 0P6     -0.148300
      4 CAF        -1.5270    1.7990    0.0280 ca        1 0P6     -0.139000
      5 CAC        -2.6980    1.0790    0.0100 ca        1 0P6     -0.105000
      6 CAD        -2.6760   -0.3280   -0.0480 ca        1 0P6     -0.161000
      7 CAJ        -1.4680   -1.0060   -0.0870 ca        1 0P6      0.078800
      8 OAB        -1.5450   -2.3770   -0.1390 oh        1 0P6     -0.499100
      9 CAL        -0.2170   -0.2890   -0.0690 ca        1 0P6      0.380600
     10 NAH         0.9710   -0.9830   -0.0980 nb        1 0P6     -0.753000
     11 CAI         2.1200   -0.2830   -0.1010 ca        1 0P6      0.641200
     12 NAA         3.3450   -0.9540   -0.2450 nh        1 0P6     -0.925500
     13 H1          3.1050    1.6980   -0.0330 ha        1 0P6      0.144000
     14 H2          0.9330    2.9470    0.0530 ha        1 0P6      0.141000
     15 H3         -1.5410    2.8980    0.0720 ha        1 0P6      0.133000
     16 H4         -3.6710    1.5920    0.0400 ha        1 0P6      0.136000
     17 H5         -3.6160   -0.8970   -0.0630 ha        1 0P6      0.152000
     18 H6         -0.6510   -2.7440   -0.2000 ho        1 0P6      0.443000
     19 H7          4.1030   -0.5060    0.2190 hn        1 0P6      0.403800
     20 H8          3.3210   -1.9420   -0.1200 hn        1 0P6      0.403800
@<TRIPOS>BOND
     1    1    2 ar  
     2    1   11 ar  
     3    1   13 1   
     4    2    3 ar  
     5    2   14 1   
     6    3    4 ar  
     7    3    9 ar  
     8    4    5 ar  
     9    4   15 1   
    10    5    6 ar  
    11    5   16 1   
    12    6    7 ar  
    13    6   17 1   
    14    7    8 1   
    15    7    9 ar  
    16    8   18 1   
    17    9   10 ar  
    18   10   11 ar  
    19   11   12 1   
    20   12   19 1   
    21   12   20 1   
@<TRIPOS>SUBSTRUCTURE
     1 0P6         1 TEMP              0 ****  ****    0 ROOT
