@<TRIPOS>MOLECULE
0P8
   50    52     1     0     0
SMALL
bcc


@<TRIPOS>ATOM
      1 CAA         1.4170    0.7570   -0.8590 c3        1 0P8      0.113700
      2 OAS         2.4200    0.0070   -0.1540 os        1 0P8     -0.406900
      3 CAX         2.2880    0.0030    1.2280 ca        1 0P8      0.146100
      4 CAU         2.5550    1.1190    2.0350 ca        1 0P8     -0.053900
      5 BR1         3.0810    2.7770    1.3550 br        1 0P8      0.008900
      6 CAI         2.4510    0.9810    3.4270 ca        1 0P8     -0.015000
      7 CAT         2.1210   -0.2460    4.0110 ca        1 0P8     -0.040900
      8 BR2         1.9820   -0.3960    5.8650 br        1 0P8      0.010900
      9 CAJ         1.9040   -1.3650    3.2020 ca        1 0P8     -0.045000
     10 CAW         1.9840   -1.2460    1.8140 ca        1 0P8     -0.216300
     11 CAO         1.7200   -2.4220    0.9420 c3        1 0P8      0.199100
     12 NAP         2.9680   -2.7830    0.1660 n4        1 0P8     -0.773000
     13 CAM         2.7730   -3.9930   -0.6740 c3        1 0P8      0.105800
     14 CAL         4.0110   -4.3590   -1.4940 c3        1 0P8     -0.138400
     15 CAN         3.6860   -5.6000   -2.3220 c3        1 0P8      0.105800
     16 NAQ         4.8170   -6.0330   -3.1990 n4        1 0P8     -0.652800
     17 CAV         4.3990   -7.1690   -4.0820 cc        1 0P8      0.153000
     18 CAK         4.0430   -6.8930   -5.3640 cd        1 0P8     -0.209200
     19 CAY         3.6060   -7.9860   -6.2700 c         1 0P8      0.579900
     20 OAB         3.3790   -7.7410   -7.4570 o         1 0P8     -0.458100
     21 CBA         3.4610   -9.2980   -5.6370 ca        1 0P8     -0.194600
     22 CAH         2.9700  -10.3780   -6.3870 ca        1 0P8     -0.034000
     23 CAF         2.8450  -11.6370   -5.8100 ca        1 0P8     -0.122000
     24 CAE         3.2120  -11.8330   -4.4770 ca        1 0P8     -0.052000
     25 CAG         3.7010  -10.7800   -3.7090 ca        1 0P8     -0.153000
     26 CAZ         3.8210   -9.4970   -4.2830 ca        1 0P8      0.125600
     27 NAR         4.2770   -8.4250   -3.4650 na        1 0P8     -0.593400
     28 H1          1.2720    1.7690   -0.4120 h1        1 0P8      0.067367
     29 H2          1.8330    0.8390   -1.8950 h1        1 0P8      0.067367
     30 H3          0.4600    0.1810   -0.8450 h1        1 0P8      0.067367
     31 H4          2.6400    1.8610    4.0740 ha        1 0P8      0.197000
     32 H5          1.6520   -2.3380    3.6600 ha        1 0P8      0.163000
     33 H6          0.9200   -2.1760    0.1830 hx        1 0P8      0.111200
     34 H7          1.4080   -3.3230    1.5440 hx        1 0P8      0.111200
     35 H8          3.2140   -1.9700   -0.4250 hn        1 0P8      0.467300
     36 H10         1.9000   -3.7960   -1.3650 hx        1 0P8      0.116200
     37 H11         2.4970   -4.8500    0.0070 hx        1 0P8      0.116200
     38 H12         4.2950   -3.5040   -2.1670 hc        1 0P8      0.088200
     39 H13         4.8810   -4.5630   -0.8120 hc        1 0P8      0.088200
     40 H14         3.4240   -6.4670   -1.6450 hx        1 0P8      0.128200
     41 H15         2.7970   -5.4020   -2.9930 hx        1 0P8      0.128200
     42 H16         5.6230   -6.3070   -2.6220 hn        1 0P8      0.464800
     43 H17         4.0390   -5.8820   -5.8060 ha        1 0P8      0.182000
     44 H19         2.6920  -10.2080   -7.4430 ha        1 0P8      0.182000
     45 H20         2.4600  -12.4810   -6.4070 ha        1 0P8      0.175000
     46 H21         3.1170  -12.8350   -4.0220 ha        1 0P8      0.170000
     47 H22         3.9880  -10.9600   -2.6620 ha        1 0P8      0.152000
     48 H9          5.0160   -8.6910   -2.8400 hn        1 0P8      0.433800
     49 HAP2        3.7380   -2.9320    0.8280 hn        1 0P8      0.467300
     50 HAQ2        5.1070   -5.2560   -3.8080 hn        1 0P8      0.464800
@<TRIPOS>BOND
     1    1    2 1   
     2    1   28 1   
     3    1   29 1   
     4    1   30 1   
     5    2    3 1   
     6    3    4 ar  
     7    3   10 ar  
     8    4    5 1   
     9    4    6 ar  
    10    6    7 ar  
    11    6   31 1   
    12    7    8 1   
    13    7    9 ar  
    14    9   10 ar  
    15    9   32 1   
    16   10   11 1   
    17   11   12 1   
    18   11   33 1   
    19   11   34 1   
    20   12   13 1   
    21   12   35 1   
    22   12   49 1   
    23   13   14 1   
    24   13   36 1   
    25   13   37 1   
    26   14   15 1   
    27   14   38 1   
    28   14   39 1   
    29   15   16 1   
    30   15   40 1   
    31   15   41 1   
    32   16   17 1   
    33   16   42 1   
    34   16   50 1   
    35   17   18 2   
    36   17   27 1   
    37   18   19 1   
    38   18   43 1   
    39   19   20 2   
    40   19   21 1   
    41   21   22 ar  
    42   21   26 ar  
    43   22   23 ar  
    44   22   44 1   
    45   23   24 ar  
    46   23   45 1   
    47   24   25 ar  
    48   24   46 1   
    49   25   26 ar  
    50   25   47 1   
    51   26   27 1   
    52   27   48 1   
@<TRIPOS>SUBSTRUCTURE
     1 0P8         1 TEMP              0 ****  ****    0 ROOT
