@<TRIPOS>MOLECULE
0P8
   50    52     1     0     0
SMALL
bcc


@<TRIPOS>ATOM
      1 CAA        -0.1930   -0.3810    0.5000 c3        1 0P8      0.113700
      2 OAS         1.2320   -0.4580    0.3320 os        1 0P8     -0.407900
      3 CAX         1.9760   -0.1330    1.4580 ca        1 0P8      0.145100
      4 CAU         2.1020    1.1730    1.9530 ca        1 0P8     -0.053900
      5 Br1         1.2500    2.6500    1.1890 br        1 0P8      0.009900
      6 CAI         2.9330    1.3940    3.0620 ca        1 0P8     -0.014000
      7 CAT         3.6510    0.3470    3.6500 ca        1 0P8     -0.040900
      8 Br2         4.7390    0.6700    5.1290 br        1 0P8      0.011900
      9 CAJ         3.5570   -0.9430    3.1200 ca        1 0P8     -0.044000
     10 CAW         2.7220   -1.1880    2.0290 ca        1 0P8     -0.216300
     11 CAO         2.5880   -2.5640    1.4780 c3        1 0P8      0.199100
     12 NAP         3.1020   -2.6050    0.0560 ny        1 0P8     -0.773000
     13 CAM         3.0560   -3.9750   -0.5160 c3        1 0P8      0.105800
     14 CAL         3.5510   -4.0380   -1.9620 c3        1 0P8     -0.138400
     15 CAN         3.4830   -5.4890   -2.4340 c3        1 0P8      0.105800
     16 NAQ         3.9970   -5.6750   -3.8230 ny        1 0P8     -0.656800
     17 CAV         4.0890   -7.1280   -4.1760 cc        1 0P8      0.165000
     18 CAK         5.2960   -7.7480   -4.0580 cd        1 0P8     -0.220200
     19 CAY         5.4350   -9.1820   -4.4170 c         1 0P8      0.581900
     20 OAB         6.4820   -9.7780   -4.1590 o         1 0P8     -0.464100
     21 CBA         4.2710   -9.7700   -5.0820 ca        1 0P8     -0.195600
     22 CAH         4.3500  -11.0720   -5.5990 ca        1 0P8     -0.033000
     23 CAF         3.2510  -11.6510   -6.2230 ca        1 0P8     -0.123000
     24 CAE         2.0540  -10.9370   -6.3330 ca        1 0P8     -0.051000
     25 CAG         1.9460   -9.6440   -5.8290 ca        1 0P8     -0.157000
     26 CAZ         3.0610   -9.0450   -5.2060 ca        1 0P8      0.138600
     27 NAR         2.9500   -7.7100   -4.7390 na        1 0P8     -0.603400
     28 H1         -0.5320   -1.2580    1.1020 h1        1 0P8      0.067033
     29 H2         -0.5820   -0.4260   -0.5480 h1        1 0P8      0.067033
     30 H3         -0.4960    0.5740    0.9910 h1        1 0P8      0.067033
     31 H4          3.0250    2.4180    3.4750 ha        1 0P8      0.197000
     32 H5          4.1290   -1.7710    3.5750 ha        1 0P8      0.163000
     33 H6          3.1730   -3.3120    2.0850 hx        1 0P8      0.111200
     34 H7          1.5010   -2.8690    1.4440 hx        1 0P8      0.111200
     35 H8          2.5190   -1.9600   -0.5060 hn        1 0P8      0.467800
     36 H10         1.9870   -4.3370   -0.4610 hx        1 0P8      0.115700
     37 H11         3.6900   -4.6460    0.1360 hx        1 0P8      0.115700
     38 H12         4.6080   -3.6590   -2.0230 hc        1 0P8      0.090200
     39 H13         2.9130   -3.3840   -2.6180 hc        1 0P8      0.090200
     40 H14         2.4150   -5.8560   -2.4100 hx        1 0P8      0.121200
     41 H15         4.0990   -6.1490   -1.7530 hx        1 0P8      0.121200
     42 H16         3.3920   -5.1840   -4.4970 hn        1 0P8      0.470300
     43 H17         6.2220   -7.2470   -3.7320 ha        1 0P8      0.181000
     44 H19         5.3020  -11.6250   -5.5000 ha        1 0P8      0.182000
     45 H20         3.3220  -12.6740   -6.6300 ha        1 0P8      0.175000
     46 H21         1.1830  -11.3980   -6.8290 ha        1 0P8      0.170000
     47 H22         0.9950   -9.0990   -5.9320 ha        1 0P8      0.153000
     48 H9          2.0540   -7.4590   -4.3750 hn        1 0P8      0.438800
     49 HAP2        4.0650   -2.2470    0.0420 hn        1 0P8      0.467800
     50 HAQ2        4.9450   -5.2790   -3.9010 hn        1 0P8      0.470300
@<TRIPOS>BOND
     1    1    2 1   
     2    1   28 1   
     3    1   29 1   
     4    1   30 1   
     5    2    3 1   
     6    3    4 ar  
     7    3   10 ar  
     8    4    5 1   
     9    4    6 ar  
    10    6    7 ar  
    11    6   31 1   
    12    7    8 1   
    13    7    9 ar  
    14    9   10 ar  
    15    9   32 1   
    16   10   11 1   
    17   11   12 1   
    18   11   33 1   
    19   11   34 1   
    20   12   13 1   
    21   12   35 1   
    22   12   49 1   
    23   13   14 1   
    24   13   36 1   
    25   13   37 1   
    26   14   15 1   
    27   14   38 1   
    28   14   39 1   
    29   15   16 1   
    30   15   40 1   
    31   15   41 1   
    32   16   17 1   
    33   16   42 1   
    34   16   50 1   
    35   17   18 2   
    36   17   27 1   
    37   18   19 1   
    38   18   43 1   
    39   19   20 2   
    40   19   21 1   
    41   21   22 ar  
    42   21   26 ar  
    43   22   23 ar  
    44   22   44 1   
    45   23   24 ar  
    46   23   45 1   
    47   24   25 ar  
    48   24   46 1   
    49   25   26 ar  
    50   25   47 1   
    51   26   27 1   
    52   27   48 1   
@<TRIPOS>SUBSTRUCTURE
     1 0P8         1 TEMP              0 ****  ****    0 ROOT
