@<TRIPOS>MOLECULE
0P8
   48    50     1     0     0
SMALL
bcc


@<TRIPOS>ATOM
      1 CAA        -2.5180   -2.6090    1.7650 c3        1 0P8      0.113700
      2 OAS        -2.4390   -1.8610    0.5490 os        1 0P8     -0.345900
      3 CAX        -3.3300   -0.7970    0.4830 ca        1 0P8      0.132100
      4 CAU        -4.6650   -0.9740    0.0830 ca        1 0P8     -0.044900
      5 BR1        -5.4010   -2.6540   -0.2990 br        1 0P8     -0.061100
      6 CAI        -5.4870    0.1490   -0.0590 ca        1 0P8     -0.070000
      7 CAT        -4.9880    1.4290    0.1850 ca        1 0P8     -0.036900
      8 BR2        -6.1060    2.9180   -0.0060 br        1 0P8     -0.070100
      9 CAJ        -3.6540    1.6020    0.5660 ca        1 0P8     -0.068000
     10 CAW        -2.8220    0.4950    0.7240 ca        1 0P8     -0.094300
     11 CAO        -1.3930    0.6800    1.1440 c3        1 0P8      0.220100
     12 NAP        -0.4550    0.3630    0.0840 n3        1 0P8     -0.819200
     13 CAM         0.9150    0.2950    0.5490 c3        1 0P8      0.168800
     14 CAL         1.8810   -0.1780   -0.5360 c3        1 0P8     -0.096400
     15 CAN         3.3050   -0.1340    0.0170 c3        1 0P8      0.177800
     16 NAQ         4.2880   -0.6300   -0.9220 nh        1 0P8     -0.739000
     17 CAV         5.6470   -0.2740   -0.7450 cc        1 0P8      0.362000
     18 CAK         6.4860   -0.1360   -1.8350 cd        1 0P8     -0.391200
     19 CAY         7.9110    0.0910   -1.6930 c         1 0P8      0.598900
     20 OAB         8.6680    0.2170   -2.6730 o         1 0P8     -0.580100
     21 CBA         8.4100    0.1650   -0.3080 ca        1 0P8     -0.198600
     22 CAH         9.7750    0.3590   -0.0540 ca        1 0P8     -0.043000
     23 CAF        10.2530    0.4210    1.2470 ca        1 0P8     -0.176000
     24 CAE         9.3660    0.2880    2.3210 ca        1 0P8     -0.074000
     25 CAG         8.0110    0.0970    2.1040 ca        1 0P8     -0.198000
     26 CAZ         7.5100    0.0370    0.7780 ca        1 0P8      0.187600
     27 NAR         6.1410   -0.1180    0.5570 na        1 0P8     -0.627400
     28 H1         -2.2100   -1.9700    2.6270 h1        1 0P8      0.047700
     29 H2         -3.5470   -3.0090    1.9240 h1        1 0P8      0.047700
     30 H3         -1.7890   -3.4430    1.6040 h1        1 0P8      0.047700
     31 H4         -6.5380    0.0190   -0.3730 ha        1 0P8      0.164000
     32 H5         -3.2500    2.6130    0.7390 ha        1 0P8      0.158000
     33 H6         -1.2170    1.7540    1.4390 h1        1 0P8      0.038700
     34 H7         -1.2250    0.0440    2.0680 h1        1 0P8      0.038700
     35 H8         -0.7200   -0.4890   -0.3790 hn        1 0P8      0.378800
     36 H10         1.2100    1.3330    0.8790 h1        1 0P8      0.028700
     37 H11         1.0300   -0.3830    1.4480 h1        1 0P8      0.028700
     38 H12         1.6210   -1.2210   -0.8540 hc        1 0P8      0.061700
     39 H13         1.7960    0.4840   -1.4380 hc        1 0P8      0.061700
     40 H14         3.5310    0.9250    0.3370 h1        1 0P8      0.040700
     41 H15         3.3560   -0.7860    0.9370 h1        1 0P8      0.040700
     42 H16         4.0080   -0.5450   -1.8800 hn        1 0P8      0.417800
     43 H17         6.1020   -0.2060   -2.8620 ha        1 0P8      0.160000
     44 H19        10.4550    0.4590   -0.9170 ha        1 0P8      0.162000
     45 H20        11.3250    0.5730    1.4370 ha        1 0P8      0.139000
     46 H21         9.7480    0.3350    3.3530 ha        1 0P8      0.134000
     47 H22         7.3290   -0.0050    2.9610 ha        1 0P8      0.132000
     48 H9          5.5660   -0.3450    1.3360 hn        1 0P8      0.445800
@<TRIPOS>BOND
     1    1    2 1   
     2    1   28 1   
     3    1   29 1   
     4    1   30 1   
     5    2    3 1   
     6    3    4 ar  
     7    3   10 ar  
     8    4    5 1   
     9    4    6 ar  
    10    6    7 ar  
    11    6   31 1   
    12    7    8 1   
    13    7    9 ar  
    14    9   10 ar  
    15    9   32 1   
    16   10   11 1   
    17   11   12 1   
    18   11   33 1   
    19   11   34 1   
    20   12   13 1   
    21   12   35 1   
    22   13   14 1   
    23   13   36 1   
    24   13   37 1   
    25   14   15 1   
    26   14   38 1   
    27   14   39 1   
    28   15   16 1   
    29   15   40 1   
    30   15   41 1   
    31   16   17 1   
    32   16   42 1   
    33   17   18 2   
    34   17   27 1   
    35   18   19 1   
    36   18   43 1   
    37   19   20 2   
    38   19   21 1   
    39   21   22 ar  
    40   21   26 ar  
    41   22   23 ar  
    42   22   44 1   
    43   23   24 ar  
    44   23   45 1   
    45   24   25 ar  
    46   24   46 1   
    47   25   26 ar  
    48   25   47 1   
    49   26   27 1   
    50   27   48 1   
@<TRIPOS>SUBSTRUCTURE
     1 0P8         1 TEMP              0 ****  ****    0 ROOT
