@<TRIPOS>MOLECULE
0P8
   50    52     1     0     0
SMALL
bcc


@<TRIPOS>ATOM
      1 CAA        -0.1920   -0.3660    0.4680 c3        1 0P8      0.113700
      2 OAS         1.2340   -0.4470    0.3060 os        1 0P8     -0.407900
      3 CAX         1.9730   -0.1180    1.4340 ca        1 0P8      0.145100
      4 CAU         2.0990    1.1900    1.9240 ca        1 0P8     -0.053900
      5 BR1         1.2540    2.6650    1.1490 br        1 0P8      0.009900
      6 CAI         2.9260    1.4150    3.0350 ca        1 0P8     -0.014000
      7 CAT         3.6400    0.3690    3.6310 ca        1 0P8     -0.040900
      8 BR2         4.7220    0.6970    5.1130 br        1 0P8      0.011900
      9 CAJ         3.5460   -0.9230    3.1070 ca        1 0P8     -0.044000
     10 CAW         2.7150   -1.1720    2.0130 ca        1 0P8     -0.216300
     11 CAO         2.5810   -2.5500    1.4680 c3        1 0P8      0.199100
     12 NAP         3.1020   -2.5980    0.0480 n4        1 0P8     -0.773000
     13 CAM         3.0550   -3.9710   -0.5180 c3        1 0P8      0.105800
     14 CAL         3.5580   -4.0410   -1.9610 c3        1 0P8     -0.138400
     15 CAN         3.4860   -5.4940   -2.4280 c3        1 0P8      0.105800
     16 NAQ         4.0090   -5.6880   -3.8130 n4        1 0P8     -0.656800
     17 CAV         4.0960   -7.1430   -4.1590 cc        1 0P8      0.165000
     18 CAK         5.2980   -7.7680   -4.0290 cd        1 0P8     -0.220200
     19 CAY         5.4320   -9.2040   -4.3810 c         1 0P8      0.581900
     20 OAB         6.4740   -9.8050   -4.1120 o         1 0P8     -0.464100
     21 CBA         4.2700   -9.7890   -5.0530 ca        1 0P8     -0.195600
     22 CAH         4.3470  -11.0940   -5.5650 ca        1 0P8     -0.033000
     23 CAF         3.2490  -11.6690   -6.1950 ca        1 0P8     -0.123000
     24 CAE         2.0580  -10.9490   -6.3190 ca        1 0P8     -0.051000
     25 CAG         1.9520   -9.6530   -5.8200 ca        1 0P8     -0.157000
     26 CAZ         3.0650   -9.0580   -5.1900 ca        1 0P8      0.138600
     27 NAR         2.9580   -7.7210   -4.7300 na        1 0P8     -0.603400
     28 H1         -0.5350   -1.2400    1.0730 h1        1 0P8      0.067033
     29 H2         -0.5770   -0.4160   -0.5820 h1        1 0P8      0.067033
     30 H3         -0.4960    0.5910    0.9530 h1        1 0P8      0.067033
     31 H4          3.0180    2.4410    3.4440 ha        1 0P8      0.197000
     32 H5          4.1140   -1.7500    3.5670 ha        1 0P8      0.163000
     33 H6          3.1620   -3.2960    2.0810 hx        1 0P8      0.111200
     34 H7          1.4940   -2.8530    1.4310 hx        1 0P8      0.111200
     35 H8          2.5230   -1.9550   -0.5190 hn        1 0P8      0.467800
     36 H10         1.9850   -4.3290   -0.4670 hx        1 0P8      0.115700
     37 H11         3.6830   -4.6410    0.1410 hx        1 0P8      0.115700
     38 H12         4.6160   -3.6660   -2.0180 hc        1 0P8      0.090200
     39 H13         2.9260   -3.3880   -2.6230 hc        1 0P8      0.090200
     40 H14         2.4170   -5.8570   -2.4090 hx        1 0P8      0.121200
     41 H15         4.0950   -6.1540   -1.7400 hx        1 0P8      0.121200
     42 H16         3.4100   -5.1960   -4.4920 hn        1 0P8      0.470300
     43 H17         6.2240   -7.2720   -3.6970 ha        1 0P8      0.181000
     44 H19         5.2950  -11.6510   -5.4560 ha        1 0P8      0.182000
     45 H20         3.3180  -12.6940   -6.5980 ha        1 0P8      0.175000
     46 H21         1.1880  -11.4080   -6.8190 ha        1 0P8      0.170000
     47 H22         1.0050   -9.1040   -5.9330 ha        1 0P8      0.153000
     48 H9          2.0610   -7.4630   -4.3740 hn        1 0P8      0.438800
     49 HAP2        4.0650   -2.2430    0.0370 hn        1 0P8      0.467800
     50 HAQ2        4.9590   -5.2970   -3.8850 hn        1 0P8      0.470300
@<TRIPOS>BOND
     1    1    2 1   
     2    1   28 1   
     3    1   29 1   
     4    1   30 1   
     5    2    3 1   
     6    3    4 ar  
     7    3   10 ar  
     8    4    5 1   
     9    4    6 ar  
    10    6    7 ar  
    11    6   31 1   
    12    7    8 1   
    13    7    9 ar  
    14    9   10 ar  
    15    9   32 1   
    16   10   11 1   
    17   11   12 1   
    18   11   33 1   
    19   11   34 1   
    20   12   13 1   
    21   12   35 1   
    22   12   49 1   
    23   13   14 1   
    24   13   36 1   
    25   13   37 1   
    26   14   15 1   
    27   14   38 1   
    28   14   39 1   
    29   15   16 1   
    30   15   40 1   
    31   15   41 1   
    32   16   17 1   
    33   16   42 1   
    34   16   50 1   
    35   17   18 2   
    36   17   27 1   
    37   18   19 1   
    38   18   43 1   
    39   19   20 2   
    40   19   21 1   
    41   21   22 ar  
    42   21   26 ar  
    43   22   23 ar  
    44   22   44 1   
    45   23   24 ar  
    46   23   45 1   
    47   24   25 ar  
    48   24   46 1   
    49   25   26 ar  
    50   25   47 1   
    51   26   27 1   
    52   27   48 1   
@<TRIPOS>SUBSTRUCTURE
     1 0P8         1 TEMP              0 ****  ****    0 ROOT
