@<TRIPOS>MOLECULE
0P8
   48    43     1     0     0
SMALL
bcc


@<TRIPOS>ATOM
      1 CAA        -1.9620    3.8710    2.3240 c3        1 0P8     -0.075000
      2 OAS        -1.9800    2.9450    3.3840 os        1 0P8     -0.220000
      3 CAX        -0.6970    2.5080    3.7840 c1        1 0P8      0.088000
      4 CAU         0.2460    3.4340    4.2220 c1        1 0P8     -0.187000
      5 BR1        -0.1990    5.2940    4.2880 br        1 0P8      0.078000
      6 CAI         1.4890    2.9990    4.6710 c1        1 0P8     -0.071000
      7 CAT         1.7890    1.6440    4.6820 c1        1 0P8     -0.181000
      8 BR2         3.5020    1.0520    5.2700 br        1 0P8      0.069000
      9 CAJ         0.8450    0.7180    4.2430 c2        1 0P8     -0.067000
     10 CAW        -0.3980    1.1510    3.7940 c1        1 0P8     -0.095000
     11 CAO        -1.4260    0.1360    3.2840 c3        1 0P8     -0.039000
     12 NAP        -0.7880   -1.1500    3.1050 n3        1 0P8     -0.307000
     13 CAM        -1.4920   -1.9060    2.0940 c3        1 0P8     -0.071000
     14 CAL        -0.4830   -2.7860    1.3170 c3        1 0P8     -0.171000
     15 CAN        -0.8410   -2.7780   -0.2000 c3        1 0P8     -0.062000
     16 NAQ         0.3790   -2.7020   -0.9860 n3        1 0P8     -0.293000
     17 CAV         0.3470   -2.1290   -2.3150 c2        1 0P8      0.194000
     18 CAK        -0.2430   -2.8980   -3.4380 c1        1 0P8     -0.370000
     19 CAY        -0.1590   -2.3800   -4.7910 c1        1 0P8      0.319000
     20 OAB        -0.6620   -2.9970   -5.7130 o         1 0P8     -0.339000
     21 CBA         0.5290   -1.0590   -5.0510 c2        1 0P8     -0.178000
     22 CAH         0.6420   -0.5720   -6.3620 c2        1 0P8     -0.043000
     23 CAF         1.3100    0.6360   -6.6050 c1        1 0P8     -0.175000
     24 CAE         1.8670    1.3610   -5.5380 c1        1 0P8     -0.135500
     25 CAG         1.7570    0.8780   -4.2270 c1        1 0P8     -0.135500
     26 CAZ         1.0890   -0.3300   -3.9790 c1        1 0P8      0.104000
     27 NAR         1.0040   -0.8650   -2.5720 n2        1 0P8     -0.256000
     28 H1         -1.1000    3.8250    1.8660 h1        1 0P8      0.084667
     29 H2         -2.6830    3.6560    1.6880 h1        1 0P8      0.084667
     30 H3         -2.0950    4.7670    2.6740 h1        1 0P8      0.084667
     31 H4          2.1590    3.6560    4.9820 ha        1 0P8      0.164000
     32 H5          1.0550   -0.2330    4.2510 ha        1 0P8      0.169000
     33 H6         -2.1580    0.0510    3.9410 h1        1 0P8      0.094000
     34 H7         -1.7910    0.4440    2.4240 h1        1 0P8      0.094000
     35 H8          0.0850   -1.0260    2.8420 hn        1 0P8      0.152000
     36 H10        -1.9290   -1.2990    1.4810 h1        1 0P8      0.075000
     37 H11        -2.1640   -2.4790    2.5230 h1        1 0P8      0.075000
     38 H12         0.4110   -2.4350    1.4400 hc        1 0P8      0.102500
     39 H13        -0.5230   -3.6980    1.6540 hc        1 0P8      0.102500
     40 H14        -1.3240   -3.6020   -0.4250 h1        1 0P8      0.079000
     41 H15        -1.4010   -2.0100   -0.3970 h1        1 0P8      0.079000
     42 H16         1.1560   -3.0220   -0.6490 hn        1 0P8      0.210000
     43 H17        -0.6900   -3.7460   -3.2670 ha        1 0P8      0.159000
     44 H19         0.2550   -1.0770   -7.1070 ha        1 0P8      0.162000
     45 H20         1.3890    0.9740   -7.5160 ha        1 0P8      0.139000
     46 H21         2.3370    2.2110   -5.7120 ha        1 0P8      0.133500
     47 H22         2.1460    1.3840   -3.4850 ha        1 0P8      0.133500
     48 H9          1.3980   -0.4170   -1.8950 hn        1 0P8      0.240000
@<TRIPOS>BOND
     1    1    2 1   
     2    1   28 1   
     3    1   29 1   
     4    1   30 1   
     5    2    3 1   
     6    3    4 1   
     7    4    5 1   
     8    6    7 1   
     9    6   31 1   
    10    7    9 1   
    11    9   10 1   
    12    9   32 1   
    13   10   11 1   
    14   11   12 1   
    15   11   33 1   
    16   11   34 1   
    17   12   13 1   
    18   12   35 1   
    19   13   14 1   
    20   13   36 1   
    21   13   37 1   
    22   14   15 1   
    23   14   38 1   
    24   14   39 1   
    25   15   16 1   
    26   15   40 1   
    27   15   41 1   
    28   16   17 1   
    29   16   42 1   
    30   17   18 1   
    31   17   27 1   
    32   18   43 1   
    33   19   20 1   
    34   19   21 1   
    35   21   22 1   
    36   21   26 1   
    37   22   23 1   
    38   22   44 1   
    39   23   45 1   
    40   24   25 1   
    41   24   46 1   
    42   25   47 1   
    43   27   48 1   
@<TRIPOS>SUBSTRUCTURE
     1 0P8         1 TEMP              0 ****  ****    0 ROOT
