@<TRIPOS>MOLECULE
0PA
   20    20     1     0     0
SMALL
bcc


@<TRIPOS>ATOM
      1 O2          0.3330   -1.0930    0.1460 o         1 0PA     -0.852800
      2 C1          1.2410   -0.2180    0.0460 c         1 0PA      0.907600
      3 O1          1.6380    0.4960    1.0120 o         1 0PA     -0.852800
      4 C2          1.9310   -0.0230   -1.3160 c3        1 0PA     -0.188400
      5 C3          0.9380    0.0450   -2.4540 c3        1 0PA     -0.050700
      6 C4          1.5980   -0.1540   -3.8200 c3        1 0PA     -0.075900
      7 C5          0.8530    0.7260   -4.8140 c3        1 0PA     -0.076400
      8 C6         -0.0140    1.6890   -4.0110 c3        1 0PA     -0.076400
      9 C7          0.2140    1.3890   -2.5360 c3        1 0PA     -0.075900
     10 H2          2.5620    0.8990   -1.2850 hc        1 0PA      0.021200
     11 H2A         2.6110   -0.9000   -1.4740 hc        1 0PA      0.021200
     12 H3          0.1760   -0.7670   -2.2850 hc        1 0PA      0.074700
     13 H4          1.5590   -1.2280   -4.1250 hc        1 0PA      0.036950
     14 H4A         2.6760    0.1430   -3.7750 hc        1 0PA      0.036950
     15 H5          1.5710    1.2860   -5.4640 hc        1 0PA      0.019200
     16 H5A         0.2160    0.1020   -5.4890 hc        1 0PA      0.019200
     17 H6          0.2520    2.7500   -4.2460 hc        1 0PA      0.019200
     18 H6A        -1.0920    1.5520   -4.2780 hc        1 0PA      0.019200
     19 H7         -0.7520    1.3450   -1.9750 hc        1 0PA      0.036950
     20 H7A         0.8350    2.1950   -2.0670 hc        1 0PA      0.036950
@<TRIPOS>BOND
     1    1    2 1   
     2    2    3 1   
     3    2    4 1   
     4    4    5 1   
     5    4   10 1   
     6    4   11 1   
     7    5    6 1   
     8    5    9 1   
     9    5   12 1   
    10    6    7 1   
    11    6   13 1   
    12    6   14 1   
    13    7    8 1   
    14    7   15 1   
    15    7   16 1   
    16    8    9 1   
    17    8   17 1   
    18    8   18 1   
    19    9   19 1   
    20    9   20 1   
@<TRIPOS>SUBSTRUCTURE
     1 0PA         1 TEMP              0 ****  ****    0 ROOT
