@<TRIPOS>MOLECULE
0PA
   20    20     1     0     0
SMALL
bcc


@<TRIPOS>ATOM
      1 O2          0.4090   -1.0870    0.1660 o         1 0PA     -0.852800
      2 C1          1.2560   -0.1520    0.0610 c         1 0PA      0.907600
      3 O1          1.5890    0.6040    1.0190 o         1 0PA     -0.852800
      4 C2          1.9480    0.0660   -1.2970 c3        1 0PA     -0.188400
      5 C3          0.9660    0.0490   -2.4460 c3        1 0PA     -0.050700
      6 C4          1.6550   -0.1280   -3.8010 c3        1 0PA     -0.075900
      7 C5          0.8640    0.6830   -4.8190 c3        1 0PA     -0.076400
      8 C6         -0.0740    1.6000   -4.0420 c3        1 0PA     -0.076400
      9 C7          0.1550    1.3390   -2.5590 c3        1 0PA     -0.075900
     10 H2          2.6870   -0.7650   -1.4320 hc        1 0PA      0.021200
     11 H2A         2.5150    1.0300   -1.2740 hc        1 0PA      0.021200
     12 H3          0.2590   -0.8100   -2.2720 hc        1 0PA      0.074700
     13 H4          1.6930   -1.2070   -4.0880 hc        1 0PA      0.036950
     14 H4A         2.7100    0.2420   -3.7490 hc        1 0PA      0.036950
     15 H5          0.2780    0.0050   -5.4890 hc        1 0PA      0.019200
     16 H5A         1.5510    1.2780   -5.4710 hc        1 0PA      0.019200
     17 H6         -1.1370    1.3880   -4.3190 hc        1 0PA      0.019200
     18 H6A         0.1250    2.6720   -4.2920 hc        1 0PA      0.019200
     19 H7          0.7140    2.1920   -2.0970 hc        1 0PA      0.036950
     20 H7A        -0.8130    1.2390   -2.0090 hc        1 0PA      0.036950
@<TRIPOS>BOND
     1    1    2 1   
     2    2    3 1   
     3    2    4 1   
     4    4    5 1   
     5    4   10 1   
     6    4   11 1   
     7    5    6 1   
     8    5    9 1   
     9    5   12 1   
    10    6    7 1   
    11    6   13 1   
    12    6   14 1   
    13    7    8 1   
    14    7   15 1   
    15    7   16 1   
    16    8    9 1   
    17    8   17 1   
    18    8   18 1   
    19    9   19 1   
    20    9   20 1   
@<TRIPOS>SUBSTRUCTURE
     1 0PA         1 TEMP              0 ****  ****    0 ROOT
