@<TRIPOS>MOLECULE
0PA
   20    19     1     0     0
SMALL
bcc


@<TRIPOS>ATOM
      1 O2         -2.5120    0.9870    2.2510 o         1 0PA     -0.587500
      2 C1         -1.2530    0.9870    2.2510 c1        1 0PA      0.327000
      3 O1         -0.6230    0.9870    3.3420 o         1 0PA     -0.587500
      4 C2         -0.4960    1.0200    0.9410 c2        1 0PA     -0.219000
      5 C3         -0.3440   -0.4230    0.3960 c3        1 0PA     -0.081000
      6 C4          0.9000   -0.8000    0.4720 c3        1 0PA     -0.161000
      7 C5          1.5420   -0.4100   -0.9420 c3        1 0PA     -0.154000
      8 C6          0.3330   -0.0530   -1.8670 c3        1 0PA     -0.154000
      9 C7         -0.7430   -0.4690   -1.2040 c3        1 0PA     -0.161000
     10 H2         -0.9880    1.5620    0.2950 ha        1 0PA      0.060500
     11 H2A         0.3870    1.4090    1.0860 ha        1 0PA      0.060500
     12 H3         -0.9120   -1.0360    0.9010 hc        1 0PA      0.089000
     13 H4          1.3540   -0.3240    1.1930 hc        1 0PA      0.083000
     14 H4A         0.9540   -1.7640    0.6140 hc        1 0PA      0.083000
     15 H5          2.0350   -1.1680   -1.3090 hc        1 0PA      0.059250
     16 H5A         2.1310    0.3620   -0.8430 hc        1 0PA      0.059250
     17 H6          0.2900    0.9110   -2.0120 hc        1 0PA      0.059250
     18 H6A         0.4080   -0.5220   -2.7200 hc        1 0PA      0.059250
     19 H7         -0.9680   -1.3810   -1.4680 hc        1 0PA      0.083000
     20 H7A        -1.4960    0.1270   -1.3790 hc        1 0PA      0.083000
@<TRIPOS>BOND
     1    1    2 1   
     2    2    3 1   
     3    4    5 1   
     4    4   10 1   
     5    4   11 1   
     6    5    6 1   
     7    5    9 1   
     8    5   12 1   
     9    6    7 1   
    10    6   13 1   
    11    6   14 1   
    12    7    8 1   
    13    7   15 1   
    14    7   16 1   
    15    8    9 1   
    16    8   17 1   
    17    8   18 1   
    18    9   19 1   
    19    9   20 1   
@<TRIPOS>SUBSTRUCTURE
     1 0PA         1 TEMP              0 ****  ****    0 ROOT
