@<TRIPOS>MOLECULE
0PA
   20    20     1     0     0
SMALL
bcc


@<TRIPOS>ATOM
      1 O2          2.1970   -0.2810   -1.3460 o         1 0PA     -0.852800
      2 C1          2.0450    0.0970   -0.1470 c         1 0PA      0.907600
      3 O1          2.8920   -0.1130    0.7680 o         1 0PA     -0.852800
      4 C2          0.7750    0.8840    0.2210 c3        1 0PA     -0.188400
      5 C3         -0.4750    0.2470   -0.3430 c3        1 0PA     -0.050700
      6 C4         -1.6740    1.1970   -0.3280 c3        1 0PA     -0.075900
      7 C5         -2.9140    0.3550   -0.0560 c3        1 0PA     -0.076400
      8 C6         -2.4410   -1.0130    0.4200 c3        1 0PA     -0.076400
      9 C7         -0.9180   -0.9920    0.4350 c3        1 0PA     -0.075900
     10 H2          0.7040    0.9770    1.3330 hc        1 0PA      0.021200
     11 H2A         0.8860    1.9150   -0.2050 hc        1 0PA      0.021200
     12 H3         -0.2500   -0.0530   -1.4050 hc        1 0PA      0.074700
     13 H4         -1.5480    1.9660    0.4760 hc        1 0PA      0.036950
     14 H4A        -1.7610    1.7400   -1.3000 hc        1 0PA      0.036950
     15 H5         -3.5620    0.8410    0.7140 hc        1 0PA      0.019200
     16 H5A        -3.5280    0.2510   -0.9860 hc        1 0PA      0.019200
     17 H6         -2.8440   -1.2390    1.4380 hc        1 0PA      0.019200
     18 H6A        -2.8150   -1.8130   -0.2680 hc        1 0PA      0.019200
     19 H7         -0.4930   -1.9150   -0.0300 hc        1 0PA      0.036950
     20 H7A        -0.5400   -0.9460    1.4880 hc        1 0PA      0.036950
@<TRIPOS>BOND
     1    1    2 1   
     2    2    3 1   
     3    2    4 1   
     4    4    5 1   
     5    4   10 1   
     6    4   11 1   
     7    5    6 1   
     8    5    9 1   
     9    5   12 1   
    10    6    7 1   
    11    6   13 1   
    12    6   14 1   
    13    7    8 1   
    14    7   15 1   
    15    7   16 1   
    16    8    9 1   
    17    8   17 1   
    18    8   18 1   
    19    9   19 1   
    20    9   20 1   
@<TRIPOS>SUBSTRUCTURE
     1 0PA         1 TEMP              0 ****  ****    0 ROOT
