@<TRIPOS>MOLECULE
0PA
   20    20     1     0     0
SMALL
bcc


@<TRIPOS>ATOM
      1 O2          0.3090   -1.1150    0.1290 o         1 0PA     -0.852800
      2 C1          1.2260   -0.2470    0.0400 c         1 0PA      0.907600
      3 O1          1.6270    0.4540    1.0130 o         1 0PA     -0.852800
      4 C2          1.9210   -0.0480   -1.3190 c3        1 0PA     -0.188400
      5 C3          0.9320    0.0430   -2.4580 c3        1 0PA     -0.050700
      6 C4          1.5930   -0.1500   -3.8250 c3        1 0PA     -0.075900
      7 C5          0.8600    0.7470   -4.8120 c3        1 0PA     -0.076400
      8 C6          0.0030    1.7130   -4.0020 c3        1 0PA     -0.076400
      9 C7          0.2240    1.3960   -2.5290 c3        1 0PA     -0.075900
     10 H2          2.5630    0.8680   -1.2780 hc        1 0PA      0.021200
     11 H2A         2.5910   -0.9300   -1.4840 hc        1 0PA      0.021200
     12 H3          0.1610   -0.7620   -2.2990 hc        1 0PA      0.074700
     13 H4          1.5430   -1.2210   -4.1400 hc        1 0PA      0.036950
     14 H4A         2.6740    0.1340   -3.7740 hc        1 0PA      0.036950
     15 H5          0.2170    0.1360   -5.4940 hc        1 0PA      0.019200
     16 H5A         1.5860    1.3040   -5.4550 hc        1 0PA      0.019200
     17 H6         -1.0760    1.5920   -4.2720 hc        1 0PA      0.019200
     18 H6A         0.2820    2.7730   -4.2260 hc        1 0PA      0.019200
     19 H7          0.8520    2.1900   -2.0510 hc        1 0PA      0.036950
     20 H7A        -0.7440    1.3570   -1.9710 hc        1 0PA      0.036950
@<TRIPOS>BOND
     1    1    2 1   
     2    2    3 1   
     3    2    4 1   
     4    4    5 1   
     5    4   10 1   
     6    4   11 1   
     7    5    6 1   
     8    5    9 1   
     9    5   12 1   
    10    6    7 1   
    11    6   13 1   
    12    6   14 1   
    13    7    8 1   
    14    7   15 1   
    15    7   16 1   
    16    8    9 1   
    17    8   17 1   
    18    8   18 1   
    19    9   19 1   
    20    9   20 1   
@<TRIPOS>SUBSTRUCTURE
     1 0PA         1 TEMP              0 ****  ****    0 ROOT
