@<TRIPOS>MOLECULE
0PC
   51    47     1     0     0
SMALL
bcc


@<TRIPOS>ATOM
      1 C1         -0.0090    0.0820    1.8660 c1        1 0PC      0.393000
      2 O1          0.8290    0.9610    1.8430 o         1 0PC     -0.409000
      3 O2         -1.2130    0.2770    2.5640 o         1 0PC     -0.274000
      4 C2         -1.5700    1.6300    2.7190 c3        1 0PC      0.034000
      5 C3         -3.0560    1.7330    2.9820 c2        1 0PC     -0.119000
      6 C4         -3.5130    2.1680    4.2170 c1        1 0PC     -0.107000
      7 C5         -4.8720    2.3270    4.4380 c1        1 0PC     -0.126000
      8 C6         -5.7750    2.0510    3.4230 c1        1 0PC     -0.126000
      9 C7         -5.3200    1.6170    2.1880 c1        1 0PC     -0.135000
     10 C8         -3.9600    1.4580    1.9680 c2        1 0PC     -0.106000
     11 N           0.2300   -1.1440    1.1940 n3        1 0PC     -0.336000
     12 CA          0.9740   -1.1570   -0.0150 c3        1 0PC      0.020000
     13 C           0.2240   -0.3810   -1.0760 c2        1 0PC      0.297000
     14 O          -0.9110   -0.6960   -1.3700 o         1 0PC     -0.381000
     15 CB          1.1640   -2.5850   -0.4750 c3        1 0PC     -0.131000
     16 CG          2.5930   -3.0110   -0.2180 c2        1 0PC     -0.090000
     17 CD1         2.8610   -4.0180    0.6960 c2        1 0PC     -0.132000
     18 CD2         3.6220   -2.4710   -0.9750 c1        1 0PC     -0.122000
     19 CE1         4.1570   -4.4850    0.8540 c1        1 0PC     -0.125000
     20 CE2         4.9180   -2.9380   -0.8160 c1        1 0PC     -0.126000
     21 CZ          5.1850   -3.9450    0.0980 c1        1 0PC     -0.126000
     22 N1          0.8640    0.6840   -1.7590 n         1 0PC     -0.360000
     23 CA1         0.1400    1.4560   -2.7050 c3        1 0PC     -0.017000
     24 C9          0.8940    1.4820   -4.0170 c2        1 0PC      0.200000
     25 O3          2.1070    1.5650   -4.0200 o         1 0PC     -0.250000
     26 CB1        -0.0190    2.8680   -2.1870 c3        1 0PC     -0.224000
     27 CM          0.1340    1.4530   -5.3270 c3        1 0PC     -0.181000
     28 CL1         1.2640    1.5000   -6.6560 cl        1 0PC     -0.076000
     29 H21        -1.0770    2.0140    3.4740 h1        1 0PC      0.118000
     30 H22        -1.3480    2.1220    1.9000 h1        1 0PC      0.118000
     31 H41        -2.8760    2.3620    4.9320 ha        1 0PC      0.138000
     32 H51        -5.1930    2.6330    5.3070 ha        1 0PC      0.133750
     33 H61        -6.7330    2.1640    3.5780 ha        1 0PC      0.133750
     34 H71        -5.9560    1.4230    1.4730 ha        1 0PC      0.133000
     35 H81        -3.6390    1.1520    1.1000 ha        1 0PC      0.139000
     36 H          -0.1270   -1.9170    1.5170 hn        1 0PC      0.248000
     37 HA          1.8470   -0.7440    0.1350 h1        1 0PC      0.124000
     38 HB2         0.9720   -2.6470   -1.4320 hc        1 0PC      0.120500
     39 HB3         0.5560   -3.1700    0.0190 hc        1 0PC      0.120500
     40 HD1         2.1360   -4.3990    1.2290 ha        1 0PC      0.131000
     41 HD2         3.4350   -1.7630   -1.6180 ha        1 0PC      0.135000
     42 HE1         4.3450   -5.1950    1.4990 ha        1 0PC      0.134000
     43 HE2         5.6430   -2.5580   -1.3490 ha        1 0PC      0.133750
     44 HZ          6.0980   -4.2740    0.2100 ha        1 0PC      0.133750
     45 H1          1.7360    0.8800   -1.5840 hn        1 0PC      0.266000
     46 HA1        -0.7420    1.0580   -2.8440 h1        1 0PC      0.134000
     47 HB1        -0.9710    3.1040   -2.1700 hc        1 0PC      0.093000
     48 HB21        0.3490    2.9270   -1.2810 hc        1 0PC      0.093000
     49 HB31        0.4600    3.4880   -2.7760 hc        1 0PC      0.093000
     50 HM1        -0.3950    0.6330   -5.3790 h1        1 0PC      0.130500
     51 HM2        -0.4610    2.2290   -5.3760 h1        1 0PC      0.130500
@<TRIPOS>BOND
     1    1    2 1   
     2    1   11 1   
     3    3    4 1   
     4    4    5 1   
     5    4   29 1   
     6    4   30 1   
     7    5    6 1   
     8    5   10 1   
     9    6   31 1   
    10    7    8 1   
    11    7   32 1   
    12    8   33 1   
    13    9   10 1   
    14    9   34 1   
    15   10   35 1   
    16   11   12 1   
    17   11   36 1   
    18   12   13 1   
    19   12   15 1   
    20   12   37 1   
    21   13   14 1   
    22   13   22 1   
    23   15   16 1   
    24   15   38 1   
    25   15   39 1   
    26   16   17 1   
    27   16   18 1   
    28   17   19 1   
    29   17   40 1   
    30   18   41 1   
    31   19   42 1   
    32   20   21 1   
    33   20   43 1   
    34   21   44 1   
    35   22   23 1   
    36   22   45 1   
    37   23   24 1   
    38   23   26 1   
    39   23   46 1   
    40   24   25 1   
    41   24   27 1   
    42   26   47 1   
    43   26   48 1   
    44   26   49 1   
    45   27   28 1   
    46   27   50 1   
    47   27   51 1   
@<TRIPOS>SUBSTRUCTURE
     1 0PC         1 TEMP              0 ****  ****    0 ROOT
