@<TRIPOS>MOLECULE
0PC
   51    52     1     0     0
SMALL
bcc


@<TRIPOS>ATOM
      1 C1          1.7250    0.1490   -0.6670 c         1 0PC      0.735100
      2 O1          1.5790   -0.0490   -1.8850 o         1 0PC     -0.589000
      3 O2          2.8480    0.8140   -0.2230 os        1 0PC     -0.434900
      4 C2          3.7990    1.1420   -1.2580 c3        1 0PC      0.196700
      5 C3          4.9400    1.8490   -0.6100 ca        1 0PC     -0.097300
      6 C4          5.3840    1.4920    0.6670 ca        1 0PC     -0.111000
      7 C5          6.4780    2.1450    1.2340 ca        1 0PC     -0.131500
      8 C6          7.1340    3.1530    0.5290 ca        1 0PC     -0.124000
      9 C7          6.6930    3.5120   -0.7450 ca        1 0PC     -0.131500
     10 C8          5.5960    2.8660   -1.3130 ca        1 0PC     -0.111000
     11 N           0.9080   -0.2690    0.3700 n         1 0PC     -0.509900
     12 CA         -0.4280   -0.7230    0.0730 c3        1 0PC      0.046700
     13 C          -1.4640    0.4190    0.2630 c         1 0PC      0.627100
     14 O          -1.4340    1.1420    1.2790 o         1 0PC     -0.613100
     15 CB         -0.8870   -1.8670    0.9980 c3        1 0PC     -0.038100
     16 CG         -0.0900   -3.1060    0.8000 ca        1 0PC     -0.083300
     17 CD1         0.8180   -3.5280    1.7780 ca        1 0PC     -0.119000
     18 CD2        -0.2560   -3.8720   -0.3600 ca        1 0PC     -0.119000
     19 CE1         1.5500   -4.7010    1.5960 ca        1 0PC     -0.126500
     20 CE2         0.4780   -5.0430   -0.5400 ca        1 0PC     -0.126500
     21 CZ          1.3820   -5.4590    0.4380 ca        1 0PC     -0.125000
     22 N1         -2.4090    0.5840   -0.7210 n         1 0PC     -0.556900
     23 CA1        -3.4310    1.6000   -0.6560 c3        1 0PC      0.013700
     24 C9         -4.7950    0.9960   -0.2950 c         1 0PC      0.544100
     25 O3         -5.2700    0.0340   -0.8990 o         1 0PC     -0.505100
     26 CB1        -3.5940    2.3640   -1.9720 c3        1 0PC     -0.110100
     27 CM         -5.5140    1.6270    0.8660 c3        1 0PC     -0.079000
     28 CL1        -5.9820    3.2740    0.5170 cl        1 0PC     -0.154400
     29 H21         4.1390    0.1880   -1.7450 h1        1 0PC      0.064700
     30 H22         3.2860    1.7850   -2.0230 h1        1 0PC      0.064700
     31 H41         4.8590    0.6990    1.2220 ha        1 0PC      0.138500
     32 H51         6.8220    1.8630    2.2400 ha        1 0PC      0.133000
     33 H61         7.9980    3.6650    0.9760 ha        1 0PC      0.132000
     34 H71         7.2080    4.3080   -1.3020 ha        1 0PC      0.133000
     35 H81         5.2460    3.1560   -2.3150 ha        1 0PC      0.138500
     36 H           1.0530    0.1430    1.2660 hn        1 0PC      0.335500
     37 HA         -0.4340   -1.0980   -0.9960 h1        1 0PC      0.102700
     38 HB2        -0.8350   -1.5290    2.0680 hc        1 0PC      0.066700
     39 HB3        -1.9660   -2.0750    0.7610 hc        1 0PC      0.066700
     40 HD1         0.9560   -2.9320    2.6920 ha        1 0PC      0.130500
     41 HD2        -0.9680   -3.5470   -1.1330 ha        1 0PC      0.130500
     42 HE1         2.2620   -5.0260    2.3680 ha        1 0PC      0.133500
     43 HE2         0.3440   -5.6380   -1.4550 ha        1 0PC      0.133500
     44 HZ          1.9610   -6.3830    0.2950 ha        1 0PC      0.133000
     45 H1         -2.4200   -0.0180   -1.5110 hn        1 0PC      0.327500
     46 HA1        -3.1390    2.3340    0.1580 h1        1 0PC      0.105700
     47 HB1        -4.3650    3.1600   -1.8350 hc        1 0PC      0.057033
     48 HB21       -2.6300    2.8440   -2.2660 hc        1 0PC      0.057033
     49 HB31       -3.9240    1.6810   -2.7910 hc        1 0PC      0.057033
     50 HM1        -6.4490    1.0620    1.1050 h1        1 0PC      0.096200
     51 HM2        -4.8420    1.6520    1.7600 h1        1 0PC      0.096200
@<TRIPOS>BOND
     1    1    2 2   
     2    1    3 1   
     3    1   11 1   
     4    3    4 1   
     5    4    5 1   
     6    4   29 1   
     7    4   30 1   
     8    5    6 ar  
     9    5   10 ar  
    10    6    7 ar  
    11    6   31 1   
    12    7    8 ar  
    13    7   32 1   
    14    8    9 ar  
    15    8   33 1   
    16    9   10 ar  
    17    9   34 1   
    18   10   35 1   
    19   11   12 1   
    20   11   36 1   
    21   12   13 1   
    22   12   15 1   
    23   12   37 1   
    24   13   14 2   
    25   13   22 1   
    26   15   16 1   
    27   15   38 1   
    28   15   39 1   
    29   16   17 ar  
    30   16   18 ar  
    31   17   19 ar  
    32   17   40 1   
    33   18   20 ar  
    34   18   41 1   
    35   19   21 ar  
    36   19   42 1   
    37   20   21 ar  
    38   20   43 1   
    39   21   44 1   
    40   22   23 1   
    41   22   45 1   
    42   23   24 1   
    43   23   26 1   
    44   23   46 1   
    45   24   25 2   
    46   24   27 1   
    47   26   47 1   
    48   26   48 1   
    49   26   49 1   
    50   27   28 1   
    51   27   50 1   
    52   27   51 1   
@<TRIPOS>SUBSTRUCTURE
     1 0PC         1 TEMP              0 ****  ****    0 ROOT
