@<TRIPOS>MOLECULE
0PF
   47    50     1     0     0
SMALL
bcc


@<TRIPOS>ATOM
      1 C1         -0.0620   -0.1030   -0.0310 c3        1 0PF     -0.090100
      2 C2          1.4250    0.1610   -0.0050 c3        1 0PF     -0.040100
      3 C3          1.9740    0.1240    1.3780 ca        1 0PF     -0.069300
      4 C4          1.6870    1.1570    2.2790 ca        1 0PF     -0.126500
      5 C5          2.2040    1.1340    3.5710 ca        1 0PF     -0.117000
      6 C6          3.0210    0.0740    3.9890 cp        1 0PF     -0.042000
      7 C7          3.3090   -0.9590    3.0870 ca        1 0PF     -0.117000
      8 C8          2.7920   -0.9330    1.7940 ca        1 0PF     -0.126500
      9 C9          3.5650    0.0490    5.3440 cp        1 0PF     -0.070000
     10 C10         4.0560    1.2210    5.9400 ca        1 0PF     -0.063000
     11 C11         4.5390    1.2110    7.2380 ca        1 0PF     -0.179000
     12 C12         4.5660    0.0190    8.0040 ca        1 0PF      0.235600
     13 N13         4.9920    0.0270    9.3350 nh        1 0PF     -0.644900
     14 C14         5.8220    1.1180    9.7650 c3        1 0PF      0.185100
     15 S15         4.5170   -1.1050   10.4860 sy        1 0PF      1.572200
     16 O16         5.5420   -1.2450   11.4380 o         1 0PF     -0.652300
     17 O17         3.2830   -0.7250   11.0230 o         1 0PF     -0.652300
     18 C18         4.3940   -2.4210    9.5430 cc        1 0PF     -0.621800
     19 C19         4.4660   -3.8270    9.8850 cc        1 0PF      0.436200
     20 N20         4.3720   -4.5850    8.7770 nd        1 0PF     -0.514800
     21 N21         4.2480   -3.7480    7.7160 na        1 0PF      0.115400
     22 C22         4.1980   -4.2630    6.3540 c3        1 0PF      0.045300
     23 C23         2.8130   -4.6910    5.9000 c3        1 0PF     -0.120100
     24 C24         4.2320   -2.4190    8.1250 cd        1 0PF      0.121700
     25 C25         4.1340   -1.1880    7.3680 ca        1 0PF     -0.120000
     26 C26         3.6050   -1.1390    6.0740 ca        1 0PF     -0.066000
     27 H1         -0.2900   -1.1210    0.3670 hc        1 0PF      0.037700
     28 H2         -0.4430   -0.0380   -1.0790 hc        1 0PF      0.037700
     29 H3         -0.6060    0.6470    0.5930 hc        1 0PF      0.037700
     30 H4          1.9490   -0.5990   -0.6450 hc        1 0PF      0.048700
     31 H5          1.6310    1.1700   -0.4530 hc        1 0PF      0.048700
     32 H6          1.0430    1.9910    1.9610 ha        1 0PF      0.134500
     33 H7          1.9650    1.9480    4.2710 ha        1 0PF      0.132000
     34 H8          3.9570   -1.7920    3.4000 ha        1 0PF      0.132000
     35 H9          3.0300   -1.7480    1.0950 ha        1 0PF      0.134500
     36 H10         4.0470    2.1650    5.3710 ha        1 0PF      0.144000
     37 H11         4.8910    2.1580    7.6780 ha        1 0PF      0.147000
     38 H12         5.2110    2.0500    9.9190 h1        1 0PF      0.056700
     39 H13         6.6230    1.3360    9.0090 h1        1 0PF      0.056700
     40 H14         6.3190    0.8430   10.7360 h1        1 0PF      0.056700
     41 H15         4.5860   -4.2560   10.8840 h4        1 0PF      0.062100
     42 H16         4.8910   -5.1530    6.2910 h1        1 0PF      0.073200
     43 H17         4.6090   -3.4620    5.6760 h1        1 0PF      0.073200
     44 H18         2.4370   -5.5400    6.5210 hc        1 0PF      0.055700
     45 H19         2.8800   -5.0260    4.8360 hc        1 0PF      0.055700
     46 H20         2.0750   -3.8560    5.9660 hc        1 0PF      0.055700
     47 H21         3.1760   -2.0480    5.6200 ha        1 0PF      0.142000
@<TRIPOS>BOND
     1    1    2 1   
     2    1   27 1   
     3    1   28 1   
     4    1   29 1   
     5    2    3 1   
     6    2   30 1   
     7    2   31 1   
     8    3    4 ar  
     9    3    8 ar  
    10    4    5 ar  
    11    4   32 1   
    12    5    6 ar  
    13    5   33 1   
    14    6    7 ar  
    15    6    9 1   
    16    7    8 ar  
    17    7   34 1   
    18    8   35 1   
    19    9   10 ar  
    20    9   26 ar  
    21   10   11 ar  
    22   10   36 1   
    23   11   12 ar  
    24   11   37 1   
    25   12   13 1   
    26   12   25 ar  
    27   13   14 1   
    28   13   15 1   
    29   14   38 1   
    30   14   39 1   
    31   14   40 1   
    32   15   16 2   
    33   15   17 2   
    34   15   18 1   
    35   18   19 1   
    36   18   24 2   
    37   19   20 2   
    38   19   41 1   
    39   20   21 1   
    40   21   22 1   
    41   21   24 1   
    42   22   23 1   
    43   22   42 1   
    44   22   43 1   
    45   23   44 1   
    46   23   45 1   
    47   23   46 1   
    48   24   25 1   
    49   25   26 ar  
    50   26   47 1   
@<TRIPOS>SUBSTRUCTURE
     1 0PF         1 TEMP              0 ****  ****    0 ROOT
