@<TRIPOS>MOLECULE
0PF
   47    50     1     0     0
SMALL
bcc


@<TRIPOS>ATOM
      1 C1          7.5340   -0.3930   -1.3140 c3        1 0PF     -0.090100
      2 C2          7.0720   -0.0320    0.0780 c3        1 0PF     -0.040100
      3 C3          5.6040    0.2040    0.1370 ca        1 0PF     -0.069300
      4 C4          5.0510    1.3550   -0.4380 ca        1 0PF     -0.126500
      5 C5          3.6800    1.5870   -0.3800 ca        1 0PF     -0.117000
      6 C6          2.8310    0.6680    0.2550 cp        1 0PF     -0.042000
      7 C7          3.3850   -0.4830    0.8300 ca        1 0PF     -0.117000
      8 C8          4.7580   -0.7120    0.7720 ca        1 0PF     -0.126500
      9 C9          1.3920    0.9100    0.3170 cp        1 0PF     -0.070000
     10 C10         0.8930    2.1960    0.5780 ca        1 0PF     -0.063000
     11 C11        -0.4700    2.4380    0.6020 ca        1 0PF     -0.179000
     12 C12        -1.4060    1.3990    0.3760 ca        1 0PF      0.235600
     13 N13        -2.7780    1.6610    0.3340 nh        1 0PF     -0.644900
     14 C14        -3.2490    2.8610    0.9700 c3        1 0PF      0.185100
     15 S15        -3.8970    0.7160   -0.4930 sy        1 0PF      1.572200
     16 O16        -5.1400    0.8060    0.1560 o         1 0PF     -0.652300
     17 O17        -3.9220    1.1030   -1.8370 o         1 0PF     -0.652300
     18 C18        -3.2230   -0.7480   -0.2920 cc        1 0PF     -0.621800
     19 C19        -3.8200   -2.0660   -0.3340 cc        1 0PF      0.436200
     20 N20        -2.9000   -3.0070   -0.0520 nd        1 0PF     -0.514800
     21 N21        -1.7230   -2.3740    0.1820 na        1 0PF      0.115400
     22 C22        -0.5380   -3.1160    0.5900 c3        1 0PF      0.045300
     23 C23         0.2580   -3.7030   -0.5630 c3        1 0PF     -0.120100
     24 C24        -1.8540   -0.9980    0.0280 cd        1 0PF      0.121700
     25 C25        -0.8960    0.0760    0.1830 ca        1 0PF     -0.120000
     26 C26         0.4860   -0.1310    0.1150 ca        1 0PF     -0.066000
     27 H1          8.6420   -0.5320   -1.3250 hc        1 0PF      0.037700
     28 H2          7.0540   -1.3400   -1.6560 hc        1 0PF      0.037700
     29 H3          7.2700    0.4160   -2.0370 hc        1 0PF      0.037700
     30 H4          7.3570   -0.8540    0.7890 hc        1 0PF      0.048700
     31 H5          7.6060    0.8980    0.4180 hc        1 0PF      0.048700
     32 H6          5.7080    2.0800   -0.9420 ha        1 0PF      0.134500
     33 H7          3.2570    2.4920   -0.8420 ha        1 0PF      0.132000
     34 H8          2.7320   -1.2070    1.3390 ha        1 0PF      0.132000
     35 H9          5.1790   -1.6180    1.2320 ha        1 0PF      0.134500
     36 H10         1.5970    3.0250    0.7560 ha        1 0PF      0.144000
     37 H11        -0.8200    3.4670    0.7830 ha        1 0PF      0.147000
     38 H12        -3.0230    3.7650    0.3410 h1        1 0PF      0.056700
     39 H13        -4.3630    2.7880    1.1170 h1        1 0PF      0.056700
     40 H14        -2.7700    2.9970    1.9770 h1        1 0PF      0.056700
     41 H15        -4.8640   -2.3090   -0.5520 h4        1 0PF      0.062100
     42 H16         0.1030   -2.4180    1.2010 h1        1 0PF      0.073200
     43 H17        -0.8690   -3.9580    1.2670 h1        1 0PF      0.073200
     44 H18         1.1610   -4.2100   -0.1450 hc        1 0PF      0.055700
     45 H19        -0.3500   -4.4550   -1.1220 hc        1 0PF      0.055700
     46 H20         0.5900   -2.9170   -1.2840 hc        1 0PF      0.055700
     47 H21         0.8810   -1.1290   -0.1350 ha        1 0PF      0.142000
@<TRIPOS>BOND
     1    1    2 1   
     2    1   27 1   
     3    1   28 1   
     4    1   29 1   
     5    2    3 1   
     6    2   30 1   
     7    2   31 1   
     8    3    4 ar  
     9    3    8 ar  
    10    4    5 ar  
    11    4   32 1   
    12    5    6 ar  
    13    5   33 1   
    14    6    7 ar  
    15    6    9 1   
    16    7    8 ar  
    17    7   34 1   
    18    8   35 1   
    19    9   10 ar  
    20    9   26 ar  
    21   10   11 ar  
    22   10   36 1   
    23   11   12 ar  
    24   11   37 1   
    25   12   13 1   
    26   12   25 ar  
    27   13   14 1   
    28   13   15 1   
    29   14   38 1   
    30   14   39 1   
    31   14   40 1   
    32   15   16 2   
    33   15   17 2   
    34   15   18 1   
    35   18   19 1   
    36   18   24 2   
    37   19   20 2   
    38   19   41 1   
    39   20   21 1   
    40   21   22 1   
    41   21   24 1   
    42   22   23 1   
    43   22   42 1   
    44   22   43 1   
    45   23   44 1   
    46   23   45 1   
    47   23   46 1   
    48   24   25 1   
    49   25   26 ar  
    50   26   47 1   
@<TRIPOS>SUBSTRUCTURE
     1 0PF         1 TEMP              0 ****  ****    0 ROOT
