@<TRIPOS>MOLECULE
0PF
   47    50     1     0     0
SMALL
bcc


@<TRIPOS>ATOM
      1 C1         -0.0550   -0.1040   -0.0350 c3        1 0PF     -0.090100
      2 C2          1.4310    0.1620   -0.0070 c3        1 0PF     -0.040100
      3 C3          1.9800    0.1250    1.3770 ca        1 0PF     -0.069300
      4 C4          1.6900    1.1570    2.2780 ca        1 0PF     -0.126500
      5 C5          2.2060    1.1350    3.5700 ca        1 0PF     -0.117000
      6 C6          3.0230    0.0750    3.9890 cp        1 0PF     -0.042000
      7 C7          3.3120   -0.9580    3.0870 ca        1 0PF     -0.117000
      8 C8          2.7970   -0.9310    1.7940 ca        1 0PF     -0.126500
      9 C9          3.5650    0.0500    5.3450 cp        1 0PF     -0.070000
     10 C10         4.0540    1.2220    5.9420 ca        1 0PF     -0.063000
     11 C11         4.5370    1.2110    7.2400 ca        1 0PF     -0.179000
     12 C12         4.5630    0.0180    8.0060 ca        1 0PF      0.235600
     13 N13         4.9870    0.0260    9.3370 nh        1 0PF     -0.644900
     14 C14         5.8160    1.1180    9.7690 c3        1 0PF      0.185100
     15 S15         4.5110   -1.1070   10.4870 sy        1 0PF      1.572200
     16 O16         5.5340   -1.2470   11.4400 o         1 0PF     -0.652300
     17 O17         3.2760   -0.7270   11.0230 o         1 0PF     -0.652300
     18 C18         4.3890   -2.4230    9.5440 cc        1 0PF     -0.621800
     19 C19         4.4610   -3.8280    9.8860 cc        1 0PF      0.436200
     20 N20         4.3680   -4.5860    8.7770 nd        1 0PF     -0.514800
     21 N21         4.2460   -3.7490    7.7160 na        1 0PF      0.115400
     22 C22         4.1980   -4.2620    6.3540 c3        1 0PF      0.045300
     23 C23         2.8140   -4.6910    5.8980 c3        1 0PF     -0.120100
     24 C24         4.2290   -2.4190    8.1250 cd        1 0PF      0.121700
     25 C25         4.1320   -1.1890    7.3690 ca        1 0PF     -0.120000
     26 C26         3.6040   -1.1390    6.0740 ca        1 0PF     -0.066000
     27 H1         -0.2820   -1.1220    0.3620 hc        1 0PF      0.037700
     28 H2         -0.6000    0.6460    0.5880 hc        1 0PF      0.037700
     29 H3         -0.4350   -0.0390   -1.0830 hc        1 0PF      0.037700
     30 H4          1.6370    1.1730   -0.4550 hc        1 0PF      0.048700
     31 H5          1.9570   -0.5960   -0.6470 hc        1 0PF      0.048700
     32 H6          1.0460    1.9920    1.9590 ha        1 0PF      0.134500
     33 H7          1.9650    1.9480    4.2710 ha        1 0PF      0.132000
     34 H8          3.9600   -1.7900    3.4000 ha        1 0PF      0.132000
     35 H9          3.0360   -1.7470    1.0950 ha        1 0PF      0.134500
     36 H10         4.0460    2.1650    5.3730 ha        1 0PF      0.144000
     37 H11         4.8870    2.1570    7.6820 ha        1 0PF      0.147000
     38 H12         6.6180    1.3360    9.0140 h1        1 0PF      0.056700
     39 H13         6.3130    0.8420   10.7410 h1        1 0PF      0.056700
     40 H14         5.2050    2.0490    9.9230 h1        1 0PF      0.056700
     41 H15         4.5800   -4.2570   10.8840 h4        1 0PF      0.062100
     42 H16         4.8910   -5.1520    6.2920 h1        1 0PF      0.073200
     43 H17         4.6090   -3.4610    5.6770 h1        1 0PF      0.073200
     44 H18         2.4370   -5.5400    6.5180 hc        1 0PF      0.055700
     45 H19         2.0750   -3.8560    5.9630 hc        1 0PF      0.055700
     46 H20         2.8820   -5.0260    4.8340 hc        1 0PF      0.055700
     47 H21         3.1770   -2.0480    5.6200 ha        1 0PF      0.142000
@<TRIPOS>BOND
     1    1    2 1   
     2    1   27 1   
     3    1   28 1   
     4    1   29 1   
     5    2    3 1   
     6    2   30 1   
     7    2   31 1   
     8    3    4 ar  
     9    3    8 ar  
    10    4    5 ar  
    11    4   32 1   
    12    5    6 ar  
    13    5   33 1   
    14    6    7 ar  
    15    6    9 1   
    16    7    8 ar  
    17    7   34 1   
    18    8   35 1   
    19    9   10 ar  
    20    9   26 ar  
    21   10   11 ar  
    22   10   36 1   
    23   11   12 ar  
    24   11   37 1   
    25   12   13 1   
    26   12   25 ar  
    27   13   14 1   
    28   13   15 1   
    29   14   38 1   
    30   14   39 1   
    31   14   40 1   
    32   15   16 2   
    33   15   17 2   
    34   15   18 1   
    35   18   19 1   
    36   18   24 2   
    37   19   20 2   
    38   19   41 1   
    39   20   21 1   
    40   21   22 1   
    41   21   24 1   
    42   22   23 1   
    43   22   42 1   
    44   22   43 1   
    45   23   44 1   
    46   23   45 1   
    47   23   46 1   
    48   24   25 1   
    49   25   26 ar  
    50   26   47 1   
@<TRIPOS>SUBSTRUCTURE
     1 0PF         1 TEMP              0 ****  ****    0 ROOT
