@<TRIPOS>MOLECULE
0PF
   47    41     1     0     0
SMALL
bcc


@<TRIPOS>ATOM
      1 C1         -2.4380    3.3320   -5.0520 c3        1 0PF     -0.208000
      2 C2         -1.6740    2.0250   -4.7150 c3        1 0PF     -0.126000
      3 C3         -1.2280    2.0520   -3.2050 c1        1 0PF     -0.062000
      4 C4         -2.0980    1.6030   -2.2120 c1        1 0PF     -0.120000
      5 C5         -1.6930    1.6020   -0.8740 c1        1 0PF     -0.120000
      6 C6         -0.4320    2.0450   -0.5350 c1        1 0PF     -0.042000
      7 C7          0.4440    2.4960   -1.5330 c1        1 0PF     -0.120000
      8 C8          0.0400    2.4970   -2.8630 c1        1 0PF     -0.127000
      9 C9          0.0890    1.8530    0.9220 c2        1 0PF     -0.070000
     10 C10        -0.7790    2.0520    2.0250 c1        1 0PF     -0.063000
     11 C11        -1.0080    1.0060    2.9430 c1        1 0PF     -0.179000
     12 C12        -0.3890   -0.2110    2.7690 c1        1 0PF      0.155000
     13 N13        -0.3880   -1.1550    3.8930 n2        1 0PF     -0.741000
     14 C14        -0.9380   -0.7640    5.1530 c3        1 0PF     -0.092000
     15 S15         0.0280   -2.5970    3.6680 s4        1 0PF      2.127800
     16 O16        -1.1280   -3.4270    3.8340 o         1 0PF     -0.539900
     17 O17         1.0020   -2.9480    4.6600 o         1 0PF     -0.539900
     18 C18         0.7190   -2.8770    2.1500 c1        1 0PF     -0.998000
     19 C19         1.3430   -3.9860    1.6740 c1        1 0PF      0.054500
     20 N20         2.0630   -3.6270    0.5890 n2        1 0PF     -0.088500
     21 N21         1.8840   -2.2740    0.3860 n2        1 0PF     -0.088500
     22 C22         2.2580   -2.1050   -0.9740 c2        1 0PF     -0.009000
     23 C23         3.7130   -2.6870   -1.1960 c3        1 0PF     -0.220000
     24 C24         1.0600   -1.8170    1.3440 c1        1 0PF      0.054500
     25 C25         0.5030   -0.4200    1.6380 c1        1 0PF     -0.119000
     26 C26         0.7260    0.6040    0.7410 c2        1 0PF     -0.066000
     27 H1         -2.3890    3.5010   -6.0190 hc        1 0PF      0.076667
     28 H2         -3.3730    3.2400   -4.7850 hc        1 0PF      0.076667
     29 H3         -2.0330    4.0820   -4.5680 hc        1 0PF      0.076667
     30 H4         -2.2620    1.2500   -4.8700 hc        1 0PF      0.088000
     31 H5         -0.8900    1.9540   -5.2810 hc        1 0PF      0.088000
     32 H6         -2.9930    1.2880   -2.4520 ha        1 0PF      0.136000
     33 H7         -2.3100    1.2850   -0.1710 ha        1 0PF      0.136000
     34 H8          1.3550    2.8160   -1.2880 ha        1 0PF      0.128000
     35 H9          0.6630    2.8180   -3.5720 ha        1 0PF      0.133000
     36 H10        -1.2180    2.9280    2.1560 ha        1 0PF      0.144000
     37 H11        -1.6050    1.1450    3.7030 ha        1 0PF      0.147000
     38 H12        -0.9330   -1.5610    5.7880 h1        1 0PF      0.095667
     39 H13        -0.3880   -0.0240    5.5430 h1        1 0PF      0.095667
     40 H14        -1.8650   -0.4530    5.0240 h1        1 0PF      0.095667
     41 H15         1.2830   -4.8610    2.0400 DU        1 0PF      0.199000
     42 H16         1.6190   -2.5840   -1.5530 ha        1 0PF      0.100500
     43 H17         2.2490   -1.1540   -1.1980 ha        1 0PF      0.100500
     44 H18         4.2580   -2.5270   -0.3900 hc        1 0PF      0.096333
     45 H19         3.6570   -3.6640   -1.3680 hc        1 0PF      0.096333
     46 H20         4.1400   -2.2340   -1.9820 hc        1 0PF      0.096333
     47 H21         1.3570    0.4830    0.0130 ha        1 0PF      0.139000
@<TRIPOS>BOND
     1    1    2 1   
     2    1   27 1   
     3    1   28 1   
     4    1   29 1   
     5    2    3 1   
     6    2   30 1   
     7    2   31 1   
     8    3    8 1   
     9    4    5 1   
    10    4   32 1   
    11    5   33 1   
    12    6    7 1   
    13    6    9 1   
    14    7   34 1   
    15    8   35 1   
    16    9   10 1   
    17    9   26 1   
    18   10   36 1   
    19   11   12 1   
    20   11   37 1   
    21   12   25 1   
    22   13   14 1   
    23   13   15 1   
    24   14   38 1   
    25   14   39 1   
    26   14   40 1   
    27   15   16 1   
    28   15   17 1   
    29   18   19 1   
    30   18   24 1   
    31   19   20 1   
    32   20   21 1   
    33   21   24 1   
    34   22   23 1   
    35   22   42 1   
    36   22   43 1   
    37   23   44 1   
    38   23   45 1   
    39   23   46 1   
    40   25   26 1   
    41   26   47 1   
@<TRIPOS>SUBSTRUCTURE
     1 0PF         1 TEMP              0 ****  ****    0 ROOT
