@<TRIPOS>MOLECULE
0PF
   47    50     1     0     0
SMALL
bcc


@<TRIPOS>ATOM
      1 C1         -0.0630   -0.1030   -0.0310 c3        1 0PF     -0.090100
      2 C2          1.4240    0.1600   -0.0040 c3        1 0PF     -0.040100
      3 C3          1.9730    0.1230    1.3790 ca        1 0PF     -0.069300
      4 C4          1.6840    1.1550    2.2800 ca        1 0PF     -0.126500
      5 C5          2.2010    1.1330    3.5710 ca        1 0PF     -0.117000
      6 C6          3.0190    0.0740    3.9900 cp        1 0PF     -0.042000
      7 C7          3.3080   -0.9590    3.0870 ca        1 0PF     -0.117000
      8 C8          2.7910   -0.9320    1.7950 ca        1 0PF     -0.126500
      9 C9          3.5630    0.0500    5.3450 cp        1 0PF     -0.070000
     10 C10         4.0520    1.2220    5.9410 ca        1 0PF     -0.063000
     11 C11         4.5360    1.2120    7.2390 ca        1 0PF     -0.179000
     12 C12         4.5650    0.0190    8.0040 ca        1 0PF      0.235600
     13 N13         4.9900    0.0270    9.3350 nh        1 0PF     -0.644900
     14 C14         5.8190    1.1200    9.7660 c3        1 0PF      0.185100
     15 S15         4.5170   -1.1060   10.4860 sy        1 0PF      1.572200
     16 O16         5.5410   -1.2440   11.4380 o         1 0PF     -0.652300
     17 O17         3.2820   -0.7270   11.0230 o         1 0PF     -0.652300
     18 C18         4.3950   -2.4220    9.5430 cc        1 0PF     -0.621800
     19 C19         4.4690   -3.8270    9.8840 cc        1 0PF      0.436200
     20 N20         4.3770   -4.5850    8.7750 nd        1 0PF     -0.514800
     21 N21         4.2520   -3.7480    7.7150 na        1 0PF      0.115400
     22 C22         4.2030   -4.2620    6.3530 c3        1 0PF      0.045300
     23 C23         2.8190   -4.6920    5.8980 c3        1 0PF     -0.120100
     24 C24         4.2340   -2.4190    8.1240 cd        1 0PF      0.121700
     25 C25         4.1340   -1.1880    7.3680 ca        1 0PF     -0.120000
     26 C26         3.6050   -1.1390    6.0740 ca        1 0PF     -0.066000
     27 H1         -0.6060    0.6480    0.5920 hc        1 0PF      0.037700
     28 H2         -0.4440   -0.0380   -1.0790 hc        1 0PF      0.037700
     29 H3         -0.2920   -1.1210    0.3670 hc        1 0PF      0.037700
     30 H4          1.9470   -0.6000   -0.6440 hc        1 0PF      0.048700
     31 H5          1.6310    1.1690   -0.4540 hc        1 0PF      0.048700
     32 H6          1.0400    1.9890    1.9620 ha        1 0PF      0.134500
     33 H7          1.9610    1.9470    4.2720 ha        1 0PF      0.132000
     34 H8          3.9570   -1.7900    3.4000 ha        1 0PF      0.132000
     35 H9          3.0310   -1.7480    1.0960 ha        1 0PF      0.134500
     36 H10         4.0420    2.1660    5.3720 ha        1 0PF      0.144000
     37 H11         4.8850    2.1590    7.6800 ha        1 0PF      0.147000
     38 H12         6.3170    0.8450   10.7370 h1        1 0PF      0.056700
     39 H13         5.2080    2.0500    9.9210 h1        1 0PF      0.056700
     40 H14         6.6200    1.3390    9.0100 h1        1 0PF      0.056700
     41 H15         4.5900   -4.2560   10.8830 h4        1 0PF      0.062100
     42 H16         4.6120   -3.4600    5.6750 h1        1 0PF      0.073200
     43 H17         4.8980   -5.1510    6.2900 h1        1 0PF      0.073200
     44 H18         2.8870   -5.0270    4.8350 hc        1 0PF      0.055700
     45 H19         2.4440   -5.5420    6.5190 hc        1 0PF      0.055700
     46 H20         2.0800   -3.8580    5.9650 hc        1 0PF      0.055700
     47 H21         3.1780   -2.0480    5.6200 ha        1 0PF      0.142000
@<TRIPOS>BOND
     1    1    2 1   
     2    1   27 1   
     3    1   28 1   
     4    1   29 1   
     5    2    3 1   
     6    2   30 1   
     7    2   31 1   
     8    3    4 ar  
     9    3    8 ar  
    10    4    5 ar  
    11    4   32 1   
    12    5    6 ar  
    13    5   33 1   
    14    6    7 ar  
    15    6    9 1   
    16    7    8 ar  
    17    7   34 1   
    18    8   35 1   
    19    9   10 ar  
    20    9   26 ar  
    21   10   11 ar  
    22   10   36 1   
    23   11   12 ar  
    24   11   37 1   
    25   12   13 1   
    26   12   25 ar  
    27   13   14 1   
    28   13   15 1   
    29   14   38 1   
    30   14   39 1   
    31   14   40 1   
    32   15   16 2   
    33   15   17 2   
    34   15   18 1   
    35   18   19 1   
    36   18   24 2   
    37   19   20 2   
    38   19   41 1   
    39   20   21 1   
    40   21   22 1   
    41   21   24 1   
    42   22   23 1   
    43   22   42 1   
    44   22   43 1   
    45   23   44 1   
    46   23   45 1   
    47   23   46 1   
    48   24   25 1   
    49   25   26 ar  
    50   26   47 1   
@<TRIPOS>SUBSTRUCTURE
     1 0PF         1 TEMP              0 ****  ****    0 ROOT
