@<TRIPOS>MOLECULE
0PI
   63    60     1     0     0
SMALL
bcc


@<TRIPOS>ATOM
      1 C1         -0.2060    2.7320    4.2150 c1        1 0PI      0.381000
      2 O1          0.7970    3.3810    4.2580 o         1 0PI     -0.430000
      3 O2         -1.1940    2.9070    5.1890 o         1 0PI     -0.310000
      4 C2         -1.2030    4.2230    5.7820 c3        1 0PI      0.037000
      5 C3         -2.6620    4.6200    6.1350 c2        1 0PI     -0.063000
      6 C4         -3.0570    4.7070    7.4700 c1        1 0PI     -0.138000
      7 C5         -4.3860    5.0670    7.7940 c1        1 0PI     -0.145000
      8 C6         -5.3090    5.3370    6.7710 c1        1 0PI     -0.145000
      9 C7         -4.9090    5.2480    5.4170 c1        1 0PI     -0.136000
     10 C8         -3.5940    4.8930    5.1000 c2        1 0PI     -0.099000
     11 N          -0.3800    1.7590    3.1910 n3        1 0PI     -0.277000
     12 C           0.4280    1.8110    2.0090 c3        1 0PI     -0.696000
     13 P           0.1720    0.2410    1.0040 p5        1 0PI      1.970000
     14 O11        -1.1910   -0.3140    1.2890 o         1 0PI     -0.848500
     15 O21         1.2340   -0.7930    1.3820 o         1 0PI     -0.848500
     16 OS          0.2940    0.5830   -0.5510 os        1 0PI     -0.729000
     17 CA          0.1950   -0.4870   -1.5040 c3        1 0PI      0.063000
     18 C9          1.5130   -1.1230   -1.6720 c2        1 0PI      0.265000
     19 O           2.4680   -0.6840   -1.0980 o         1 0PI     -0.405000
     20 CB         -0.2860    0.0800   -2.8770 c3        1 0PI     -0.171000
     21 CG         -1.8380    0.0470   -2.9370 c3        1 0PI     -0.110000
     22 CD1        -2.3710    1.4670   -3.2290 c3        1 0PI     -0.212500
     23 CD2        -2.2850   -0.9000   -4.0510 c3        1 0PI     -0.212500
     24 N1          1.6420   -2.2980   -2.4910 n         1 0PI     -0.345000
     25 CA1         2.9330   -2.9010   -2.6810 c3        1 0PI     -0.061000
     26 CC          3.9220   -1.8540   -3.0830 c2        1 0PI      0.324000
     27 O3          3.7030   -1.1340   -4.0960 o         1 0PI     -0.582000
     28 CB1         2.8420   -3.9480   -3.7650 c3        1 0PI     -0.143000
     29 CG1         3.4970   -5.3140   -3.2470 c3        1 0PI     -0.121000
     30 CD11        2.8220   -6.5240   -3.9620 c3        1 0PI     -0.196500
     31 CD21        5.0450   -5.3120   -3.5630 c3        1 0PI     -0.196500
     32 OXT         4.9690   -1.6890   -2.4100 o         1 0PI     -0.582000
     33 H21        -0.8250    4.8850    5.1330 h1        1 0PI      0.096000
     34 H22        -0.6470    4.2180    6.6140 h1        1 0PI      0.096000
     35 H41        -2.4400    4.4260    8.1810 ha        1 0PI      0.127000
     36 H51        -4.6390    5.2090    8.7310 ha        1 0PI      0.115000
     37 H61        -6.2200    5.6720    7.0000 ha        1 0PI      0.115000
     38 H71        -5.5460    5.4760    4.6960 ha        1 0PI      0.125000
     39 H81        -3.5130    5.0350    4.1490 ha        1 0PI      0.169000
     40 HN2        -1.0020    1.1020    3.2890 hn        1 0PI      0.265000
     41 H1          1.3880    1.8900    2.2670 h1        1 0PI      0.129000
     42 H2          0.1650    2.6010    1.4610 h1        1 0PI      0.129000
     43 HA         -0.4570   -1.1620   -1.1790 h1        1 0PI      0.129000
     44 HB1         0.0280    1.0150   -2.9760 hc        1 0PI      0.094000
     45 HB2         0.0880   -0.4800   -3.6210 hc        1 0PI      0.094000
     46 HG         -2.1950   -0.2690   -2.0740 hc        1 0PI      0.100000
     47 HD11       -2.8510    1.8050   -2.4450 hc        1 0PI      0.069333
     48 HD12       -1.6180    2.0620   -3.4350 hc        1 0PI      0.069333
     49 HD13       -2.9860    1.4350   -4.0020 hc        1 0PI      0.069333
     50 HD21       -2.0360   -1.8100   -3.8240 hc        1 0PI      0.069333
     51 HD22       -3.2710   -0.8440   -4.1580 hc        1 0PI      0.069333
     52 HD23       -1.8480   -0.6390   -4.8980 hc        1 0PI      0.069333
     53 H           0.8590   -2.7470   -2.8020 hn        1 0PI      0.231000
     54 HA1         3.2150   -3.3080   -1.8680 h1        1 0PI      0.096000
     55 HB21        3.3240   -3.6340   -4.5670 hc        1 0PI      0.081000
     56 HB3         1.9150   -4.1000   -3.9870 hc        1 0PI      0.081000
     57 HG1         3.3620   -5.3940   -2.2700 hc        1 0PI      0.127000
     58 HD14        2.9690   -6.4590   -4.9240 hc        1 0PI      0.057667
     59 HD15        1.8540   -6.5170   -3.7750 hc        1 0PI      0.057667
     60 HD16        3.2150   -7.3610   -3.6260 hc        1 0PI      0.057667
     61 HD24        5.2310   -4.6820   -4.2980 hc        1 0PI      0.057667
     62 HD25        5.5470   -5.0310   -2.7520 hc        1 0PI      0.057667
     63 HD26        5.3310   -6.2230   -3.8280 hc        1 0PI      0.057667
@<TRIPOS>BOND
     1    1    2 1   
     2    1   11 1   
     3    3    4 1   
     4    4    5 1   
     5    4   33 1   
     6    4   34 1   
     7    5    6 1   
     8    5   10 1   
     9    6   35 1   
    10    7    8 1   
    11    7   36 1   
    12    8   37 1   
    13    9   10 1   
    14    9   38 1   
    15   10   39 1   
    16   11   12 1   
    17   11   40 1   
    18   12   13 1   
    19   12   41 1   
    20   12   42 1   
    21   13   14 1   
    22   13   15 1   
    23   13   16 1   
    24   16   17 1   
    25   17   18 1   
    26   17   20 1   
    27   17   43 1   
    28   18   19 1   
    29   18   24 1   
    30   20   21 1   
    31   20   44 1   
    32   20   45 1   
    33   21   22 1   
    34   21   23 1   
    35   21   46 1   
    36   22   47 1   
    37   22   48 1   
    38   22   49 1   
    39   23   50 1   
    40   23   51 1   
    41   23   52 1   
    42   24   25 1   
    43   24   53 1   
    44   25   26 1   
    45   25   28 1   
    46   25   54 1   
    47   26   27 1   
    48   26   32 1   
    49   28   29 1   
    50   28   55 1   
    51   28   56 1   
    52   29   30 1   
    53   29   31 1   
    54   29   57 1   
    55   30   58 1   
    56   30   59 1   
    57   30   60 1   
    58   31   61 1   
    59   31   62 1   
    60   31   63 1   
@<TRIPOS>SUBSTRUCTURE
     1 0PI         1 TEMP              0 ****  ****    0 ROOT
