@<TRIPOS>MOLECULE
0PI
   63    63     1     0     0
SMALL
bcc


@<TRIPOS>ATOM
      1 C1          2.8870   -0.6500   -0.8090 c         1 0PI      0.721100
      2 O1          3.1500   -1.0890   -1.9430 o         1 0PI     -0.613000
      3 O2          3.3990   -1.3670    0.2830 os        1 0PI     -0.461900
      4 C2          4.3530   -2.3820    0.0060 c3        1 0PI      0.184700
      5 C3          5.7480   -1.9410    0.3190 ca        1 0PI     -0.087300
      6 C4          6.0410   -0.6280    0.7010 ca        1 0PI     -0.119500
      7 C5          7.3550   -0.2580    0.9850 ca        1 0PI     -0.136500
      8 C6          8.3840   -1.1950    0.8920 ca        1 0PI     -0.149000
      9 C7          8.0960   -2.5060    0.5110 ca        1 0PI     -0.136500
     10 C8          6.7840   -2.8780    0.2260 ca        1 0PI     -0.119500
     11 N           2.2440    0.4930   -0.4170 n         1 0PI     -0.457900
     12 C           1.3010    1.1360   -1.2810 c3        1 0PI     -0.180200
     13 P           0.6940    2.5640   -0.5080 p5        1 0PI      1.333600
     14 O11         1.2310    3.7620   -1.1840 o         1 0PI     -0.850500
     15 O21         0.7620    2.3740    0.9650 o         1 0PI     -0.850500
     16 OS         -0.9020    2.4680   -0.9440 os        1 0PI     -0.568200
     17 CA         -1.8400    2.0760    0.0090 c3        1 0PI      0.126100
     18 C9         -2.4430    0.7100   -0.3990 c         1 0PI      0.624100
     19 O          -1.8620   -0.0280   -1.2260 o         1 0PI     -0.652100
     20 CB         -2.9240    3.1590    0.0980 c3        1 0PI     -0.093400
     21 CG         -3.4360    3.3580    1.5200 c3        1 0PI     -0.069700
     22 CD1        -2.6980    4.4940    2.1990 c3        1 0PI     -0.098600
     23 CD2        -4.9310    3.6050    1.5180 c3        1 0PI     -0.098600
     24 N1         -3.5770    0.3000    0.2690 n         1 0PI     -0.533900
     25 CA1        -4.4030   -0.8030   -0.1750 c3        1 0PI     -0.037300
     26 CC         -5.9340   -0.4510   -0.1390 c         1 0PI      0.906600
     27 O3         -6.3150    0.6020    0.4500 o         1 0PI     -0.847800
     28 CB1        -4.2240   -2.0750    0.6650 c3        1 0PI     -0.062400
     29 CG1        -2.8460   -2.7090    0.5620 c3        1 0PI     -0.069700
     30 CD11       -2.7190   -3.8330    1.5710 c3        1 0PI     -0.085600
     31 CD21       -2.5700   -3.2230   -0.8360 c3        1 0PI     -0.085600
     32 OXT        -6.7150   -1.2620   -0.7100 o         1 0PI     -0.847800
     33 H21         4.0600   -3.2260    0.6920 h1        1 0PI      0.069700
     34 H22         4.2890   -2.7240   -1.0640 h1        1 0PI      0.069700
     35 H41         5.2220    0.1090    0.7720 ha        1 0PI      0.144500
     36 H51         7.5770    0.7770    1.2810 ha        1 0PI      0.120500
     37 H61         9.4180   -0.9010    1.1150 ha        1 0PI      0.114000
     38 H71         8.9050   -3.2460    0.4350 ha        1 0PI      0.120500
     39 H81         6.5580   -3.9100   -0.0780 ha        1 0PI      0.144500
     40 HN2         2.0280    0.5870    0.5630 hn        1 0PI      0.344500
     41 H1          1.8100    1.4030   -2.2450 h1        1 0PI      0.092200
     42 H2          0.4410    0.4570   -1.5510 h1        1 0PI      0.092200
     43 HA         -1.3340    1.9390    1.0140 h1        1 0PI      0.087700
     44 HB1        -2.4920    4.1220   -0.2860 hc        1 0PI      0.054700
     45 HB2        -3.7730    2.9010   -0.5870 hc        1 0PI      0.054700
     46 HG         -3.2420    2.4240    2.1220 hc        1 0PI      0.051700
     47 HD11       -3.0260    4.5910    3.2610 hc        1 0PI      0.032700
     48 HD12       -1.5970    4.2990    2.1760 hc        1 0PI      0.032700
     49 HD13       -2.8990    5.4610    1.6790 hc        1 0PI      0.032700
     50 HD21       -5.4760    2.7080    1.1210 hc        1 0PI      0.032700
     51 HD22       -5.2900    3.8080    2.5560 hc        1 0PI      0.032700
     52 HD23       -5.1810    4.4870    0.8820 hc        1 0PI      0.032700
     53 H          -4.0980    0.9960    0.7660 hn        1 0PI      0.317500
     54 HA1        -4.1420   -1.0490   -1.2450 h1        1 0PI      0.060700
     55 HB21       -4.4390   -1.8430    1.7410 hc        1 0PI      0.039700
     56 HB3        -5.0020   -2.8050    0.3120 hc        1 0PI      0.039700
     57 HG1        -2.0710   -1.9250    0.8000 hc        1 0PI      0.064700
     58 HD14       -1.7010   -4.2890    1.5220 hc        1 0PI      0.022533
     59 HD15       -2.8840   -3.4470    2.6060 hc        1 0PI      0.022533
     60 HD16       -3.4740   -4.6290    1.3670 hc        1 0PI      0.022533
     61 HD24       -2.4450   -2.3570   -1.5340 hc        1 0PI      0.022533
     62 HD25       -1.6320   -3.8280   -0.8510 hc        1 0PI      0.022533
     63 HD26       -3.4110   -3.8620   -1.1970 hc        1 0PI      0.022533
@<TRIPOS>BOND
     1    1    2 2   
     2    1    3 1   
     3    1   11 1   
     4    3    4 1   
     5    4    5 1   
     6    4   33 1   
     7    4   34 1   
     8    5    6 ar  
     9    5   10 ar  
    10    6    7 ar  
    11    6   35 1   
    12    7    8 ar  
    13    7   36 1   
    14    8    9 ar  
    15    8   37 1   
    16    9   10 ar  
    17    9   38 1   
    18   10   39 1   
    19   11   12 1   
    20   11   40 1   
    21   12   13 1   
    22   12   41 1   
    23   12   42 1   
    24   13   14 1   
    25   13   15 1   
    26   13   16 1   
    27   16   17 1   
    28   17   18 1   
    29   17   20 1   
    30   17   43 1   
    31   18   19 2   
    32   18   24 1   
    33   20   21 1   
    34   20   44 1   
    35   20   45 1   
    36   21   22 1   
    37   21   23 1   
    38   21   46 1   
    39   22   47 1   
    40   22   48 1   
    41   22   49 1   
    42   23   50 1   
    43   23   51 1   
    44   23   52 1   
    45   24   25 1   
    46   24   53 1   
    47   25   26 1   
    48   25   28 1   
    49   25   54 1   
    50   26   27 1   
    51   26   32 1   
    52   28   29 1   
    53   28   55 1   
    54   28   56 1   
    55   29   30 1   
    56   29   31 1   
    57   29   57 1   
    58   30   58 1   
    59   30   59 1   
    60   30   60 1   
    61   31   61 1   
    62   31   62 1   
    63   31   63 1   
@<TRIPOS>SUBSTRUCTURE
     1 0PI         1 TEMP              0 ****  ****    0 ROOT
