@<TRIPOS>MOLECULE
0PJ
   65    62     1     0     0
SMALL
bcc


@<TRIPOS>ATOM
      1 C1         -0.3840   -1.6370    4.4750 c1        1 0PJ      0.384000
      2 O1          0.2420   -2.6390    4.7650 o         1 0PJ     -0.390000
      3 O2         -1.7720   -1.7070    4.2880 o         1 0PJ     -0.277000
      4 C2         -2.2610   -3.0120    4.1570 c3        1 0PJ      0.038000
      5 C3         -3.5230   -2.9990    3.2910 c2        1 0PJ     -0.124000
      6 C4         -4.6710   -3.6420    3.7270 c1        1 0PJ     -0.132000
      7 C5         -5.8320   -3.5980    2.9540 c1        1 0PJ     -0.135500
      8 C6         -5.8370   -2.9110    1.7480 c1        1 0PJ     -0.135500
      9 C7         -4.6860   -2.2660    1.3110 c1        1 0PJ     -0.108000
     10 C8         -3.5290   -2.3100    2.0820 c2        1 0PJ     -0.100000
     11 N           0.3000   -0.4030    4.2730 n3        1 0PJ     -0.312000
     12 C           1.6110   -0.3940    3.6640 c3        1 0PJ     -0.730000
     13 P           1.6960    0.9540    2.4000 p5        1 0PJ      2.784000
     14 O11         0.3300    1.2710    1.9250 o         1 0PJ     -1.145000
     15 O21         2.3450    2.2530    3.0520 oh        1 0PJ     -0.834000
     16 N1          2.6300    0.4530    1.1120 n3        1 0PJ     -0.926000
     17 CA          2.5660    1.1460   -0.1230 c3        1 0PJ     -0.004000
     18 C9          1.9430    0.2400   -1.1840 c2        1 0PJ      0.275000
     19 O           2.2750   -0.9310   -1.2570 o         1 0PJ     -0.400000
     20 CB          3.9630    1.5440   -0.5540 c3        1 0PJ     -0.194000
     21 CG          4.1450    3.0620   -0.3700 c3        1 0PJ     -0.104000
     22 CD1         5.3420    3.3250    0.5430 c3        1 0PJ     -0.214500
     23 CD2         4.3870    3.7070   -1.7150 c3        1 0PJ     -0.214500
     24 N2          0.9740    0.7790   -2.1180 n         1 0PJ     -0.293000
     25 CA1         0.1470   -0.1050   -2.8840 c3        1 0PJ     -0.097000
     26 CC          0.9920   -0.8480   -3.8700 c2        1 0PJ      0.321000
     27 O3          1.5340   -0.2320   -4.8230 o         1 0PJ     -0.567000
     28 CB1        -0.9100    0.7060   -3.6270 c3        1 0PJ     -0.130000
     29 CG1        -2.0710   -0.2010   -4.0110 c3        1 0PJ     -0.127000
     30 CD11       -3.2680    0.1340   -3.1660 c3        1 0PJ     -0.199500
     31 CD21       -2.4140    0.0060   -5.4870 c3        1 0PJ     -0.199500
     32 OXT         1.1090   -2.0990   -3.7810 o         1 0PJ     -0.567000
     33 H21        -1.5800   -3.5750    3.7340 h1        1 0PJ      0.109000
     34 H22        -2.4760   -3.3690    5.0420 h1        1 0PJ      0.109000
     35 H41        -4.6670   -4.1280    4.5800 ha        1 0PJ      0.117000
     36 H51        -6.6490   -4.0560    3.2640 ha        1 0PJ      0.128000
     37 H61        -6.6560   -2.8800    1.2020 ha        1 0PJ      0.128000
     38 H71        -4.6890   -1.7780    0.4550 ha        1 0PJ      0.177000
     39 H81        -2.7100   -1.8510    1.7700 ha        1 0PJ      0.152000
     40 HN2        -0.0900    0.3840    4.5350 hn        1 0PJ      0.245000
     41 H1          1.7770   -1.2590    3.2310 h1        1 0PJ      0.142000
     42 H2          2.2930   -0.2380    4.3550 h1        1 0PJ      0.142000
     43 HO2         1.7000    2.8110    3.3110 ho        1 0PJ      0.267000
     44 H           3.2150   -0.2400    1.2160 hn        1 0PJ      0.255000
     45 HA          2.0200    1.9440   -0.0190 h1        1 0PJ      0.126000
     46 HB2         4.0930    1.3110   -1.4980 hc        1 0PJ      0.125500
     47 HB3         4.6210    1.0670   -0.0070 hc        1 0PJ      0.125500
     48 HG          3.3420    3.4390    0.0320 hc        1 0PJ      0.079000
     49 HD11        5.4800    4.2940    0.6300 hc        1 0PJ      0.075000
     50 HD12        5.1680    2.9370    1.4310 hc        1 0PJ      0.075000
     51 HD13        6.1430    2.9150    0.1580 hc        1 0PJ      0.075000
     52 HD21        5.0580    3.1910   -2.2080 hc        1 0PJ      0.075000
     53 HD22        4.7100    4.6230   -1.5840 hc        1 0PJ      0.075000
     54 HD23        3.5490    3.7250   -2.2240 hc        1 0PJ      0.075000
     55 H3          0.8830    1.6770   -2.2090 hn        1 0PJ      0.213000
     56 HA1        -0.2930   -0.7440   -2.2840 h1        1 0PJ      0.110000
     57 HB21       -1.2350    1.4220   -3.0500 hc        1 0PJ      0.071500
     58 HB31       -0.5170    1.0900   -4.4340 hc        1 0PJ      0.071500
     59 HG1        -1.8190   -1.1350   -3.8630 hc        1 0PJ      0.153000
     60 HD14       -3.5890    1.0340   -3.3960 hc        1 0PJ      0.060500
     61 HD15       -3.9770   -0.5170   -3.3340 hc        1 0PJ      0.060500
     62 HD16       -3.0180    0.1090   -2.2200 hc        1 0PJ      0.060500
     63 HD24       -2.6410    0.9490   -5.6420 hc        1 0PJ      0.060500
     64 HD25       -3.1800   -0.5600   -5.7270 hc        1 0PJ      0.060500
     65 HD26       -1.6400   -0.2400   -6.0400 hc        1 0PJ      0.060500
@<TRIPOS>BOND
     1    1    2 1   
     2    1   11 1   
     3    3    4 1   
     4    4    5 1   
     5    4   33 1   
     6    4   34 1   
     7    5    6 1   
     8    5   10 1   
     9    6   35 1   
    10    7    8 1   
    11    7   36 1   
    12    8   37 1   
    13    9   10 1   
    14    9   38 1   
    15   10   39 1   
    16   11   12 1   
    17   11   40 1   
    18   12   13 1   
    19   12   41 1   
    20   12   42 1   
    21   13   14 1   
    22   13   15 1   
    23   13   16 1   
    24   15   43 1   
    25   16   17 1   
    26   16   44 1   
    27   17   18 1   
    28   17   20 1   
    29   17   45 1   
    30   18   19 1   
    31   18   24 1   
    32   20   21 1   
    33   20   46 1   
    34   20   47 1   
    35   21   22 1   
    36   21   23 1   
    37   21   48 1   
    38   22   49 1   
    39   22   50 1   
    40   22   51 1   
    41   23   52 1   
    42   23   53 1   
    43   23   54 1   
    44   24   25 1   
    45   24   55 1   
    46   25   26 1   
    47   25   28 1   
    48   25   56 1   
    49   26   27 1   
    50   26   32 1   
    51   28   29 1   
    52   28   57 1   
    53   28   58 1   
    54   29   30 1   
    55   29   31 1   
    56   29   59 1   
    57   30   60 1   
    58   30   61 1   
    59   30   62 1   
    60   31   63 1   
    61   31   64 1   
    62   31   65 1   
@<TRIPOS>SUBSTRUCTURE
     1 0PJ         1 TEMP              0 ****  ****    0 ROOT
