@<TRIPOS>MOLECULE
0PJ
   65    65     1     0     0
SMALL
bcc


@<TRIPOS>ATOM
      1 C1          3.9550    1.2440   -0.9970 c         1 0PJ      0.739100
      2 O1          4.0950    0.9800   -2.2020 o         1 0PJ     -0.587000
      3 O2          4.9440    1.9650   -0.3430 os        1 0PJ     -0.444900
      4 C2          6.1940    2.1040   -1.0250 c3        1 0PJ      0.189700
      5 C3          7.1850    1.0830   -0.5710 ca        1 0PJ     -0.113300
      6 C4          7.1610    0.5890    0.7380 ca        1 0PJ     -0.110500
      7 C5          8.1170   -0.3370    1.1540 ca        1 0PJ     -0.134000
      8 C6          9.1040   -0.7690    0.2680 ca        1 0PJ     -0.129000
      9 C7          9.1300   -0.2790   -1.0380 ca        1 0PJ     -0.134000
     10 C8          8.1720    0.6410   -1.4590 ca        1 0PJ     -0.110500
     11 N           2.9150    0.9090   -0.1610 n         1 0PJ     -0.510900
     12 C           1.6980    0.3950   -0.7090 c3        1 0PJ     -0.188200
     13 P           0.5600    0.1580    0.5210 p5        1 0PJ      1.564200
     14 O11         0.8750    0.8960    1.7520 o         1 0PJ     -0.860300
     15 O21         0.6800   -1.4280    0.7780 oh        1 0PJ     -0.797400
     16 N1         -0.8600    0.4350   -0.1130 n3        1 0PJ     -1.004300
     17 CA         -2.0040    0.4800    0.7550 c3        1 0PJ      0.141500
     18 C9         -2.7830   -0.8750    0.6800 c         1 0PJ      0.616100
     19 O          -2.3640   -1.7970    1.4240 o         1 0PJ     -0.680100
     20 CB         -2.9370    1.6740    0.5320 c3        1 0PJ     -0.087400
     21 CG         -2.3290    3.0090    0.9370 c3        1 0PJ     -0.063700
     22 CD1        -3.2930    4.1240    0.5750 c3        1 0PJ     -0.097100
     23 CD2        -1.9980    3.0640    2.4140 c3        1 0PJ     -0.097100
     24 N2         -3.8380   -0.9800   -0.1620 n         1 0PJ     -0.492900
     25 CA1        -4.4480   -2.2360   -0.5600 c3        1 0PJ     -0.055300
     26 CC         -4.7490   -2.2430   -2.1100 c         1 0PJ      0.912600
     27 O3         -4.6030   -1.1650   -2.7530 o         1 0PJ     -0.825800
     28 CB1        -5.7550   -2.5380    0.1790 c3        1 0PJ     -0.069400
     29 CG1        -5.5370   -3.0300    1.6040 c3        1 0PJ     -0.078700
     30 CD11       -6.7450   -2.7200    2.4640 c3        1 0PJ     -0.082100
     31 CD21       -5.2520   -4.5190    1.6240 c3        1 0PJ     -0.082100
     32 OXT        -5.1110   -3.3430   -2.5980 o         1 0PJ     -0.825800
     33 H21         6.0490    2.0630   -2.1380 h1        1 0PJ      0.074200
     34 H22         6.5350    3.1330   -0.7180 h1        1 0PJ      0.074200
     35 H41         6.3740    0.9290    1.4290 ha        1 0PJ      0.140500
     36 H51         8.0880   -0.7280    2.1810 ha        1 0PJ      0.129000
     37 H61         9.8560   -1.5000    0.5970 ha        1 0PJ      0.126000
     38 H71         9.9020   -0.6250   -1.7400 ha        1 0PJ      0.129000
     39 H81         8.1850    1.0150   -2.4940 ha        1 0PJ      0.140500
     40 HN2         2.8680    1.3260    0.7500 hn        1 0PJ      0.356500
     41 H1          1.3330    1.0670   -1.5390 h1        1 0PJ      0.100200
     42 H2          1.9360   -0.5830   -1.2280 h1        1 0PJ      0.100200
     43 HO2        -0.0480   -1.8740    1.2160 ho        1 0PJ      0.497000
     44 H          -1.0820    0.4690   -1.0760 hn        1 0PJ      0.450800
     45 HA         -1.6130    0.5420    1.8210 h1        1 0PJ      0.090700
     46 HB2        -3.2360    1.7360   -0.5490 hc        1 0PJ      0.059200
     47 HB3        -3.8670    1.4980    1.1350 hc        1 0PJ      0.059200
     48 HG         -1.3790    3.1680    0.3540 hc        1 0PJ      0.044700
     49 HD11       -4.2460    4.0170    1.1460 hc        1 0PJ      0.036367
     50 HD12       -2.8440    5.1170    0.8180 hc        1 0PJ      0.036367
     51 HD13       -3.5290    4.0990   -0.5160 hc        1 0PJ      0.036367
     52 HD21       -1.1010    2.4370    2.6450 hc        1 0PJ      0.036367
     53 HD22       -1.7710    4.1150    2.7180 hc        1 0PJ      0.036367
     54 HD23       -2.8590    2.6990    3.0250 hc        1 0PJ      0.036367
     55 H3         -4.0020   -0.2430   -0.8230 hn        1 0PJ      0.332500
     56 HA1        -3.7190   -3.0730   -0.3540 h1        1 0PJ      0.064700
     57 HB21       -6.4070   -1.6270    0.1900 hc        1 0PJ      0.052200
     58 HB31       -6.2890   -3.3270   -0.4170 hc        1 0PJ      0.052200
     59 HG1        -4.6410   -2.4980    2.0380 hc        1 0PJ      0.064700
     60 HD14       -6.9100   -1.6180    2.5220 hc        1 0PJ      0.023700
     61 HD15       -7.6620   -3.1920    2.0350 hc        1 0PJ      0.023700
     62 HD16       -6.5970   -3.1120    3.4990 hc        1 0PJ      0.023700
     63 HD24       -4.3740   -4.7500    0.9740 hc        1 0PJ      0.023700
     64 HD25       -5.0270   -4.8570    2.6640 hc        1 0PJ      0.023700
     65 HD26       -6.1320   -5.0930    1.2460 hc        1 0PJ      0.023700
@<TRIPOS>BOND
     1    1    2 2   
     2    1    3 1   
     3    1   11 1   
     4    3    4 1   
     5    4    5 1   
     6    4   33 1   
     7    4   34 1   
     8    5    6 ar  
     9    5   10 ar  
    10    6    7 ar  
    11    6   35 1   
    12    7    8 ar  
    13    7   36 1   
    14    8    9 ar  
    15    8   37 1   
    16    9   10 ar  
    17    9   38 1   
    18   10   39 1   
    19   11   12 1   
    20   11   40 1   
    21   12   13 1   
    22   12   41 1   
    23   12   42 1   
    24   13   14 2   
    25   13   15 1   
    26   13   16 1   
    27   15   43 1   
    28   16   17 1   
    29   16   44 1   
    30   17   18 1   
    31   17   20 1   
    32   17   45 1   
    33   18   19 2   
    34   18   24 1   
    35   20   21 1   
    36   20   46 1   
    37   20   47 1   
    38   21   22 1   
    39   21   23 1   
    40   21   48 1   
    41   22   49 1   
    42   22   50 1   
    43   22   51 1   
    44   23   52 1   
    45   23   53 1   
    46   23   54 1   
    47   24   25 1   
    48   24   55 1   
    49   25   26 1   
    50   25   28 1   
    51   25   56 1   
    52   26   27 1   
    53   26   32 1   
    54   28   29 1   
    55   28   57 1   
    56   28   58 1   
    57   29   30 1   
    58   29   31 1   
    59   29   59 1   
    60   30   60 1   
    61   30   61 1   
    62   30   62 1   
    63   31   63 1   
    64   31   64 1   
    65   31   65 1   
@<TRIPOS>SUBSTRUCTURE
     1 0PJ         1 TEMP              0 ****  ****    0 ROOT
