@<TRIPOS>MOLECULE
0PK
   69    65     1     0     0
SMALL
bcc


@<TRIPOS>ATOM
      1 C1         -0.1160   -1.3310    2.7520 c1        1 0PK      0.381000
      2 O1          1.0680   -1.0510    2.7540 o         1 0PK     -0.388000
      3 O2         -0.8290   -1.4290    3.9820 o         1 0PK     -0.279000
      4 C2         -0.1020   -0.9410    5.1190 c3        1 0PK      0.037000
      5 C3         -1.0180   -1.0040    6.3940 c2        1 0PK     -0.082000
      6 C4         -0.9070   -2.0640    7.2720 c1        1 0PK     -0.123000
      7 C5         -1.7150   -2.1130    8.4130 c1        1 0PK     -0.131000
      8 C6         -2.6160   -1.1100    8.6580 c1        1 0PK     -0.131000
      9 C7         -2.7270   -0.0390    7.7690 c1        1 0PK     -0.133000
     10 C8         -1.9300    0.0100    6.6440 c2        1 0PK     -0.100000
     11 N          -0.8100   -1.5280    1.5060 n3        1 0PK     -0.271000
     12 CA         -0.1120   -1.4060    0.2670 c3        1 0PK     -0.653000
     13 P          -0.3670    0.2870   -0.4200 p5        1 0PK      2.771000
     14 O1P        -0.0350    1.2690    0.5840 o         1 0PK     -1.120000
     15 O2P        -1.8990    0.4610   -0.8500 oh        1 0PK     -0.835000
     16 CB         -0.6390   -2.4230   -0.7040 c3        1 0PK     -0.152000
     17 CG         -0.0130   -3.7500   -0.4270 c2        1 0PK     -0.077000
     18 CD1        -0.7870   -4.7790    0.0710 c2        1 0PK     -0.128000
     19 CD2         1.3360   -3.9820   -0.7620 c1        1 0PK     -0.114000
     20 CE1        -0.2350   -6.0500    0.2440 c1        1 0PK     -0.128000
     21 CE2         1.8830   -5.2450   -0.5890 c1        1 0PK     -0.131000
     22 CZ          1.0960   -6.2830   -0.0850 c1        1 0PK     -0.131000
     23 N1          0.6400    0.5050   -1.7920 n3        1 0PK     -0.936000
     24 CA1         0.8090    1.8050   -2.3580 c3        1 0PK     -0.007000
     25 C           0.3780    1.7820   -3.7940 c2        1 0PK      0.269000
     26 O           1.0790    1.2820   -4.6170 o         1 0PK     -0.410000
     27 CB1         2.2940    2.2060   -2.2700 c3        1 0PK     -0.159000
     28 CG1         2.4270    3.7260   -2.3860 c3        1 0PK     -0.134000
     29 CD11        2.6130    4.3350   -0.9990 c3        1 0PK     -0.201000
     30 CD21        3.6490    4.0690   -3.2580 c3        1 0PK     -0.201000
     31 N2         -0.8680    2.4390   -4.1950 n         1 0PK     -0.295000
     32 CA2        -1.2860    2.4160   -5.5780 c3        1 0PK     -0.097000
     33 C9         -1.1380    3.8190   -6.1810 c2        1 0PK      0.326000
     34 O3         -1.7730    4.7980   -5.6720 o         1 0PK     -0.566500
     35 CB2        -2.7340    1.9800   -5.6630 c3        1 0PK     -0.191000
     36 OXT        -0.4440    3.9880   -7.2580 o         1 0PK     -0.566500
     37 H21         0.6890   -1.4930    5.2610 h1        1 0PK      0.104000
     38 H22         0.1700   -0.0120    4.9590 h1        1 0PK      0.104000
     39 H41        -0.3040   -2.8100    7.0650 ha        1 0PK      0.131000
     40 H51        -1.6360   -2.8820    9.0520 ha        1 0PK      0.127750
     41 H61        -3.1990   -1.1450    9.4820 ha        1 0PK      0.127750
     42 H71        -3.3280    0.7080    7.9750 ha        1 0PK      0.131000
     43 H81        -2.0100    0.7670    6.0170 ha        1 0PK      0.151000
     44 HN2        -1.6890   -1.7750    1.5100 hn        1 0PK      0.229000
     45 HA          0.8260   -1.5560    0.4110 h1        1 0PK      0.169000
     46 HOP2       -2.1850    1.2840   -0.6150 ho        1 0PK      0.272000
     47 HB1        -0.4310   -2.1500   -1.6010 hc        1 0PK      0.111500
     48 HB2        -1.6340   -2.4980   -0.6010 hc        1 0PK      0.111500
     49 HD1        -1.7660   -4.6410    0.2090 ha        1 0PK      0.138000
     50 HD2         1.9010   -3.2340   -1.1240 ha        1 0PK      0.138000
     51 HE1        -0.7900   -6.7840    0.6010 ha        1 0PK      0.130000
     52 HE2         2.8120   -5.4260   -0.8830 ha        1 0PK      0.127750
     53 HZ          1.4890   -7.1920    0.0390 ha        1 0PK      0.127750
     54 H           1.1230   -0.1990   -2.1190 hn        1 0PK      0.251000
     55 HA1         0.2520    2.4670   -1.8510 h1        1 0PK      0.134000
     56 HB21        2.8060    1.7660   -3.0250 hc        1 0PK      0.082000
     57 HB3         2.6660    1.9050   -1.3950 hc        1 0PK      0.082000
     58 HG          1.6130    4.0960   -2.8020 hc        1 0PK      0.162000
     59 HD11        3.4880    4.0340   -0.6170 hc        1 0PK      0.068667
     60 HD12        1.8690    4.0390   -0.4010 hc        1 0PK      0.068667
     61 HD13        2.6060    5.3290   -1.0710 hc        1 0PK      0.068667
     62 HD21        3.7070    5.0370   -3.3690 hc        1 0PK      0.068667
     63 HD22        3.5520    3.6410   -4.1440 hc        1 0PK      0.068667
     64 HD23        4.4640    3.7410   -2.8250 hc        1 0PK      0.068667
     65 H1         -1.3600    2.9060   -3.5770 hn        1 0PK      0.227000
     66 HA2        -0.7140    1.7740   -6.0880 h1        1 0PK      0.109000
     67 HB11       -3.0000    1.9000   -6.6180 hc        1 0PK      0.067333
     68 HB22       -3.3140    2.6590   -5.2100 hc        1 0PK      0.067333
     69 HB31       -2.8420    1.0930   -5.2130 hc        1 0PK      0.067333
@<TRIPOS>BOND
     1    1    2 1   
     2    1   11 1   
     3    3    4 1   
     4    4    5 1   
     5    4   37 1   
     6    4   38 1   
     7    5    6 1   
     8    5   10 1   
     9    6   39 1   
    10    7    8 1   
    11    7   40 1   
    12    8   41 1   
    13    9   10 1   
    14    9   42 1   
    15   10   43 1   
    16   11   12 1   
    17   11   44 1   
    18   12   13 1   
    19   12   16 1   
    20   12   45 1   
    21   13   14 1   
    22   13   15 1   
    23   13   23 1   
    24   15   46 1   
    25   16   17 1   
    26   16   47 1   
    27   16   48 1   
    28   17   18 1   
    29   17   19 1   
    30   18   20 1   
    31   18   49 1   
    32   19   50 1   
    33   20   51 1   
    34   21   22 1   
    35   21   52 1   
    36   22   53 1   
    37   23   24 1   
    38   23   54 1   
    39   24   25 1   
    40   24   27 1   
    41   24   55 1   
    42   25   26 1   
    43   25   31 1   
    44   27   28 1   
    45   27   56 1   
    46   27   57 1   
    47   28   29 1   
    48   28   30 1   
    49   28   58 1   
    50   29   59 1   
    51   29   60 1   
    52   29   61 1   
    53   30   62 1   
    54   30   63 1   
    55   30   64 1   
    56   31   32 1   
    57   31   65 1   
    58   32   33 1   
    59   32   35 1   
    60   32   66 1   
    61   33   34 1   
    62   33   36 1   
    63   35   67 1   
    64   35   68 1   
    65   35   69 1   
@<TRIPOS>SUBSTRUCTURE
     1 0PK         1 TEMP              0 ****  ****    0 ROOT
