@<TRIPOS>MOLECULE
0PK
   69    70     1     0     0
SMALL
bcc


@<TRIPOS>ATOM
      1 C1          2.9330   -0.5590    0.5090 c         1 0PK      0.727100
      2 O1          2.8360   -0.9700    1.6760 o         1 0PK     -0.577000
      3 O2          4.1550   -0.6670   -0.1300 os        1 0PK     -0.440900
      4 C2          5.1590   -1.3840    0.6140 c3        1 0PK      0.194700
      5 C3          6.3560   -1.5250   -0.2650 ca        1 0PK     -0.089300
      6 C4          7.6300   -1.5060    0.3140 ca        1 0PK     -0.111500
      7 C5          8.7610   -1.6800   -0.4820 ca        1 0PK     -0.134000
      8 C6          8.6270   -1.8640   -1.8590 ca        1 0PK     -0.130000
      9 C7          7.3590   -1.8760   -2.4390 ca        1 0PK     -0.134000
     10 C8          6.2250   -1.7090   -1.6450 ca        1 0PK     -0.111500
     11 N           1.9350   -0.0610   -0.3280 n         1 0PK     -0.461900
     12 CA          0.7340    0.4680    0.2750 c3        1 0PK     -0.168500
     13 P          -0.5770   -0.1250   -0.6550 p5        1 0PK      1.564200
     14 O1P        -0.5960   -1.5550   -0.9700 o         1 0PK     -0.849300
     15 O2P        -0.2840    0.6010   -2.0820 oh        1 0PK     -0.802400
     16 CB          0.6370    1.9940    0.3380 c3        1 0PK     -0.066100
     17 CG          1.9280    2.6790    0.6120 ca        1 0PK     -0.084300
     18 CD1         2.7160    3.1480   -0.4470 ca        1 0PK     -0.121000
     19 CD2         2.3570    2.8850    1.9290 ca        1 0PK     -0.121000
     20 CE1         3.9150    3.8100   -0.1910 ca        1 0PK     -0.128500
     21 CE2         3.5570    3.5470    2.1810 ca        1 0PK     -0.128500
     22 CZ          4.3380    4.0100    1.1230 ca        1 0PK     -0.130000
     23 N1         -1.8610    0.4980   -0.0110 n3        1 0PK     -1.004300
     24 CA1        -3.0670   -0.2740    0.1440 c3        1 0PK      0.140500
     25 C          -4.2600    0.4390   -0.5630 c         1 0PK      0.625100
     26 O          -4.3650    1.6830   -0.4580 o         1 0PK     -0.649100
     27 CB1        -3.4830   -0.4700    1.6150 c3        1 0PK     -0.080400
     28 CG1        -4.4080   -1.6620    1.8170 c3        1 0PK     -0.094700
     29 CD11       -3.6570   -2.9720    1.7040 c3        1 0PK     -0.083100
     30 CD21       -5.0630   -1.5600    3.1820 c3        1 0PK     -0.083100
     31 N2         -5.0840   -0.3400   -1.3360 n         1 0PK     -0.485900
     32 CA2        -6.4520    0.0710   -1.6240 c3        1 0PK     -0.070300
     33 C9         -7.5040   -0.8620   -0.9180 c         1 0PK      0.906600
     34 O3         -7.0790   -1.8670   -0.2790 o         1 0PK     -0.831800
     35 CB2        -6.7450    0.0840   -3.1190 c3        1 0PK     -0.073100
     36 OXT        -8.7130   -0.5330   -1.0340 o         1 0PK     -0.831800
     37 H21         5.3900   -0.8030    1.5460 h1        1 0PK      0.064700
     38 H22         4.7500   -2.3920    0.8980 h1        1 0PK      0.064700
     39 H41         7.7380   -1.3550    1.3980 ha        1 0PK      0.141000
     40 H51         9.7600   -1.6690   -0.0230 ha        1 0PK      0.129000
     41 H61         9.5210   -1.9990   -2.4850 ha        1 0PK      0.127000
     42 H71         7.2510   -2.0190   -3.5240 ha        1 0PK      0.129000
     43 H81         5.2200   -1.7140   -2.0970 ha        1 0PK      0.141000
     44 HN2         2.2690    0.4740   -1.1070 hn        1 0PK      0.315500
     45 HA          0.6810    0.0770    1.3370 h1        1 0PK      0.129700
     46 HOP2       -0.3920    0.0330   -2.8400 ho        1 0PK      0.473000
     47 HB1         0.2270    2.3670   -0.6430 hc        1 0PK      0.072200
     48 HB2        -0.0900    2.2780    1.1490 hc        1 0PK      0.072200
     49 HD1         2.3810    2.9970   -1.4850 ha        1 0PK      0.138000
     50 HD2         1.7450    2.5170    2.7660 ha        1 0PK      0.138000
     51 HE1         4.5290    4.1730   -1.0280 ha        1 0PK      0.130000
     52 HE2         3.8880    3.7020    3.2190 ha        1 0PK      0.130000
     53 HZ          5.2850    4.5320    1.3230 ha        1 0PK      0.127000
     54 H          -2.0090    1.4650    0.1600 hn        1 0PK      0.455800
     55 HA1        -2.8720   -1.2900   -0.3200 h1        1 0PK      0.094700
     56 HB21       -2.5730   -0.6120    2.2560 hc        1 0PK      0.042700
     57 HB3        -3.9960    0.4640    1.9660 hc        1 0PK      0.042700
     58 HG         -5.2340   -1.6500    1.0420 hc        1 0PK      0.122700
     59 HD11       -4.3620   -3.8260    1.8530 hc        1 0PK      0.029367
     60 HD12       -3.1880   -3.0800    0.6970 hc        1 0PK      0.029367
     61 HD13       -2.8530   -3.0370    2.4770 hc        1 0PK      0.029367
     62 HD21       -5.6700   -0.6250    3.2520 hc        1 0PK      0.029367
     63 HD22       -5.7420   -2.4320    3.3420 hc        1 0PK      0.029367
     64 HD23       -4.2940   -1.5500    3.9920 hc        1 0PK      0.029367
     65 H1         -5.0280   -1.3300   -1.1680 hn        1 0PK      0.313500
     66 HA2        -6.6110    1.1130   -1.2200 h1        1 0PK      0.069700
     67 HB11       -6.1270    0.8480   -3.6480 hc        1 0PK      0.028033
     68 HB22       -6.5480   -0.9140   -3.5770 hc        1 0PK      0.028033
     69 HB31       -7.8270    0.3290   -3.2490 hc        1 0PK      0.028033
@<TRIPOS>BOND
     1    1    2 2   
     2    1    3 1   
     3    1   11 1   
     4    3    4 1   
     5    4    5 1   
     6    4   37 1   
     7    4   38 1   
     8    5    6 ar  
     9    5   10 ar  
    10    6    7 ar  
    11    6   39 1   
    12    7    8 ar  
    13    7   40 1   
    14    8    9 ar  
    15    8   41 1   
    16    9   10 ar  
    17    9   42 1   
    18   10   43 1   
    19   11   12 1   
    20   11   44 1   
    21   12   13 1   
    22   12   16 1   
    23   12   45 1   
    24   13   14 2   
    25   13   15 1   
    26   13   23 1   
    27   15   46 1   
    28   16   17 1   
    29   16   47 1   
    30   16   48 1   
    31   17   18 ar  
    32   17   19 ar  
    33   18   20 ar  
    34   18   49 1   
    35   19   21 ar  
    36   19   50 1   
    37   20   22 ar  
    38   20   51 1   
    39   21   22 ar  
    40   21   52 1   
    41   22   53 1   
    42   23   24 1   
    43   23   54 1   
    44   24   25 1   
    45   24   27 1   
    46   24   55 1   
    47   25   26 2   
    48   25   31 1   
    49   27   28 1   
    50   27   56 1   
    51   27   57 1   
    52   28   29 1   
    53   28   30 1   
    54   28   58 1   
    55   29   59 1   
    56   29   60 1   
    57   29   61 1   
    58   30   62 1   
    59   30   63 1   
    60   30   64 1   
    61   31   32 1   
    62   31   65 1   
    63   32   33 1   
    64   32   35 1   
    65   32   66 1   
    66   33   34 1   
    67   33   36 1   
    68   35   67 1   
    69   35   68 1   
    70   35   69 1   
@<TRIPOS>SUBSTRUCTURE
     1 0PK         1 TEMP              0 ****  ****    0 ROOT
