@<TRIPOS>MOLECULE
0PN
   79    79     1     0     0
SMALL
bcc


@<TRIPOS>ATOM
      1 C1          5.9320   -0.7510    0.5860 c         1 0PN      0.728100
      2 O1          5.9700   -1.9740    0.8010 o         1 0PN     -0.585000
      3 O2          6.9370   -0.1700   -0.1580 os        1 0PN     -0.435900
      4 C2          7.9870   -1.0760   -0.5610 c3        1 0PN      0.196700
      5 C3          8.9820   -0.2900   -1.3450 ca        1 0PN     -0.096300
      6 C4          9.2630    1.0440   -1.0350 ca        1 0PN     -0.111500
      7 C5         10.2270    1.7420   -1.7620 ca        1 0PN     -0.131500
      8 C6         10.9160    1.1110   -2.7970 ca        1 0PN     -0.124000
      9 C7         10.6360   -0.2200   -3.1090 ca        1 0PN     -0.131500
     10 C8          9.6690   -0.9190   -2.3900 ca        1 0PN     -0.111500
     11 N           5.0220    0.1780    1.0740 n         1 0PN     -0.497900
     12 CA          3.7390   -0.2920    1.5430 c3        1 0PN      0.032700
     13 C           2.6510   -0.1980    0.4400 c         1 0PN      0.628100
     14 O           2.6930    0.6830   -0.4420 o         1 0PN     -0.612100
     15 CB          3.2220    0.5030    2.7670 c3        1 0PN     -0.063700
     16 CG1         4.0340    0.1610    3.9970 c3        1 0PN     -0.097600
     17 CG2         3.2160    1.9960    2.5240 c3        1 0PN     -0.097600
     18 N1          1.6590   -1.1590    0.4650 n         1 0PN     -0.539900
     19 CA1         0.5040   -1.0810   -0.3950 c3        1 0PN      0.035700
     20 C9         -0.7550   -0.6270    0.3900 c         1 0PN      0.638100
     21 O3         -0.8860   -0.8570    1.6090 o         1 0PN     -0.616100
     22 CB1         0.1620   -2.4220   -1.0470 c3        1 0PN     -0.106100
     23 N2         -1.7240    0.0350   -0.3310 n         1 0PN     -0.559900
     24 CA2        -2.9830    0.4340    0.2410 c3        1 0PN      0.035700
     25 CC         -4.1560   -0.1510   -0.5980 c         1 0PN      0.630100
     26 O4         -4.3000    0.2390   -1.7800 o         1 0PN     -0.650100
     27 CB2        -3.1810    1.9650    0.2520 c3        1 0PN     -0.092400
     28 CG         -4.4360    2.3370    1.0140 c3        1 0PN     -0.144400
     29 CD         -5.0720    3.6290    0.4920 c3        1 0PN      0.009300
     30 NE         -6.4960    3.5740    0.2390 nh        1 0PN     -0.377100
     31 CZ         -7.0260    2.8300   -0.8310 cz        1 0PN      0.521300
     32 NH1        -6.2210    2.4060   -1.8710 nh        1 0PN     -0.445700
     33 NH2        -8.4120    2.7940   -0.9990 nh        1 0PN     -0.445700
     34 N3         -4.9560   -1.1030   -0.0160 n         1 0PN     -0.496900
     35 CA3        -6.2860   -1.3770   -0.5320 c3        1 0PN     -0.050300
     36 CE         -7.1660   -0.1110   -0.6220 c         1 0PN      0.884600
     37 O5         -7.8780    0.0880   -1.6460 o         1 0PN     -0.859300
     38 CB3        -7.0350   -2.3940    0.3520 c3        1 0PN      0.133400
     39 OG         -7.1000   -1.9770    1.7010 oh        1 0PN     -0.617800
     40 OXT        -7.1400    0.7380    0.3340 o         1 0PN     -0.859300
     41 H21         8.4540   -1.5120    0.3630 h1        1 0PN      0.064700
     42 H22         7.5300   -1.9010   -1.1700 h1        1 0PN      0.064700
     43 H41         8.7130    1.5390   -0.2200 ha        1 0PN      0.139000
     44 H51        10.4420    2.7930   -1.5180 ha        1 0PN      0.133000
     45 H61        11.6770    1.6610   -3.3690 ha        1 0PN      0.132000
     46 H71        11.1770   -0.7190   -3.9270 ha        1 0PN      0.133000
     47 H81         9.4460   -1.9670   -2.6420 ha        1 0PN      0.139000
     48 H           5.0170    1.0730    0.6300 hn        1 0PN      0.330500
     49 HA          3.8660   -1.3750    1.8560 h1        1 0PN      0.105700
     50 HB          2.1600    0.1620    2.9360 hc        1 0PN      0.060700
     51 HG11        5.0990    0.4720    3.8720 hc        1 0PN      0.043867
     52 HG12        3.6130    0.6930    4.8850 hc        1 0PN      0.043867
     53 HG13        4.0060   -0.9380    4.1940 hc        1 0PN      0.043867
     54 HG21        2.7800    2.2280    1.5210 hc        1 0PN      0.043867
     55 HG22        2.6030    2.5040    3.3070 hc        1 0PN      0.043867
     56 HG23        4.2500    2.4140    2.5680 hc        1 0PN      0.043867
     57 H1          1.5580   -1.7240    1.2780 hn        1 0PN      0.325500
     58 HA1         0.7350   -0.3270   -1.2090 h1        1 0PN      0.103700
     59 HB1         1.0320   -2.8000   -1.6360 hc        1 0PN      0.055700
     60 HB2        -0.1090   -3.1850   -0.2780 hc        1 0PN      0.055700
     61 HB3        -0.7050   -2.2830   -1.7360 hc        1 0PN      0.055700
     62 H2         -1.6130    0.1740   -1.3090 hn        1 0PN      0.328500
     63 HA2        -3.0200    0.0620    1.3090 h1        1 0PN      0.102700
     64 HB21       -2.2900    2.4510    0.7290 hc        1 0PN      0.058200
     65 HB31       -3.2310    2.3270   -0.8100 hc        1 0PN      0.058200
     66 HG2        -5.1840    1.4940    0.9680 hc        1 0PN      0.081700
     67 HG3        -4.1810    2.4720    2.0990 hc        1 0PN      0.081700
     68 HD2        -4.9380    4.4430    1.2640 h1        1 0PN      0.069700
     69 HD3        -4.5520    3.9830   -0.4440 h1        1 0PN      0.069700
     70 HE         -7.0480    3.5220    1.0740 hn        1 0PN      0.287700
     71 HH11       -5.2490    2.2620   -1.6800 hn        1 0PN      0.307450
     72 HH12       -6.6200    1.7220   -2.4950 hn        1 0PN      0.307450
     73 HH21       -8.9540    2.9630   -0.1780 hn        1 0PN      0.307450
     74 HH22       -8.7430    2.0070   -1.5430 hn        1 0PN      0.307450
     75 H3         -4.8670   -1.2330    0.9710 hn        1 0PN      0.316500
     76 HA3        -6.1770   -1.7980   -1.5730 h1        1 0PN      0.095700
     77 HB22       -8.0670   -2.5260   -0.0690 h1        1 0PN      0.057700
     78 HB32       -6.5030   -3.3820    0.3810 h1        1 0PN      0.057700
     79 HG         -7.4570   -1.0750    1.7060 ho        1 0PN      0.426000
@<TRIPOS>BOND
     1    1    2 2   
     2    1    3 1   
     3    1   11 1   
     4    3    4 1   
     5    4    5 1   
     6    4   41 1   
     7    4   42 1   
     8    5    6 ar  
     9    5   10 ar  
    10    6    7 ar  
    11    6   43 1   
    12    7    8 ar  
    13    7   44 1   
    14    8    9 ar  
    15    8   45 1   
    16    9   10 ar  
    17    9   46 1   
    18   10   47 1   
    19   11   12 1   
    20   11   48 1   
    21   12   13 1   
    22   12   15 1   
    23   12   49 1   
    24   13   14 2   
    25   13   18 1   
    26   15   16 1   
    27   15   17 1   
    28   15   50 1   
    29   16   51 1   
    30   16   52 1   
    31   16   53 1   
    32   17   54 1   
    33   17   55 1   
    34   17   56 1   
    35   18   19 1   
    36   18   57 1   
    37   19   20 1   
    38   19   22 1   
    39   19   58 1   
    40   20   21 2   
    41   20   23 1   
    42   22   59 1   
    43   22   60 1   
    44   22   61 1   
    45   23   24 1   
    46   23   62 1   
    47   24   25 1   
    48   24   27 1   
    49   24   63 1   
    50   25   26 2   
    51   25   34 1   
    52   27   28 1   
    53   27   64 1   
    54   27   65 1   
    55   28   29 1   
    56   28   66 1   
    57   28   67 1   
    58   29   30 1   
    59   29   68 1   
    60   29   69 1   
    61   30   31 2   
    62   30   70 1   
    63   31   32 1   
    64   31   33 1   
    65   32   71 1   
    66   32   72 1   
    67   33   73 1   
    68   33   74 1   
    69   34   35 1   
    70   34   75 1   
    71   35   36 1   
    72   35   38 1   
    73   35   76 1   
    74   36   37 1   
    75   36   40 1   
    76   38   39 1   
    77   38   77 1   
    78   38   78 1   
    79   39   79 1   
@<TRIPOS>SUBSTRUCTURE
     1 0PN         1 TEMP              0 ****  ****    0 ROOT
