@<TRIPOS>MOLECULE
0PN
   79    71     1     0     0
SMALL
bcc


@<TRIPOS>ATOM
      1 C1          1.3060   -1.0450    5.2390 c1        1 0PN      0.388000
      2 O1          2.4640   -1.4300    5.1140 o         1 0PN     -0.411000
      3 O2          1.0300    0.3430    5.4350 o         1 0PN     -0.269000
      4 C2          2.1690    1.1770    5.3260 c3        1 0PN      0.038000
      5 C3          1.7110    2.6400    4.9700 c2        1 0PN     -0.121000
      6 C4          2.5530    3.7070    5.1940 c1        1 0PN     -0.105000
      7 C5          2.1430    5.0020    4.8460 c1        1 0PN     -0.128500
      8 C6          0.8860    5.2070    4.2770 c1        1 0PN     -0.128500
      9 C7          0.0390    4.1290    4.0520 c1        1 0PN     -0.137000
     10 C8          0.4360    2.8550    4.3910 c2        1 0PN     -0.104000
     11 N           0.2420   -1.9700    5.1580 n3        1 0PN     -0.320000
     12 CA          0.2210   -2.9280    4.1320 c3        1 0PN      0.015000
     13 C          -0.6960   -2.4730    3.0490 c2        1 0PN      0.280000
     14 O          -1.9130   -2.5070    3.2240 o         1 0PN     -0.356000
     15 CB         -0.2940   -4.3290    4.7080 c3        1 0PN     -0.100000
     16 CG1        -1.7980   -4.4480    4.4690 c3        1 0PN     -0.222000
     17 CG2         0.4530   -5.5200    3.9630 c3        1 0PN     -0.222000
     18 N1         -0.1490   -1.8280    1.8560 n         1 0PN     -0.376000
     19 CA1        -0.9990   -1.0140    1.0160 c3        1 0PN      0.007000
     20 C9         -0.3250   -0.8090   -0.3250 c2        1 0PN      0.293000
     21 O3          0.6340   -1.4780   -0.6230 o         1 0PN     -0.355000
     22 CB1        -1.2250    0.3030    1.6680 c3        1 0PN     -0.234000
     23 N2         -0.7920    0.2150   -1.2200 n         1 0PN     -0.375000
     24 CA2        -0.1880    0.3630   -2.4970 c3        1 0PN      0.011000
     25 CC          0.8870    1.4120   -2.4210 c2        1 0PN      0.274000
     26 O4          0.7340    2.3700   -1.7260 o         1 0PN     -0.418000
     27 CB2        -1.2420    0.7960   -3.5200 c3        1 0PN     -0.168000
     28 CG         -1.5410   -0.3780   -4.4880 c3        1 0PN     -0.223000
     29 CD         -2.6760    0.0550   -5.5200 c3        1 0PN     -0.047000
     30 NE         -3.1850   -1.1240   -6.2020 n3        1 0PN     -0.292000
     31 CZ         -4.1040   -0.9620   -7.2940 c2        1 0PN      0.391000
     32 NH1        -3.7200   -0.1810   -8.4420 n3        1 0PN     -0.316000
     33 NH2        -5.2790   -1.5200   -7.2460 n2        1 0PN     -0.306000
     34 N3          2.0010    1.3450   -3.2890 n         1 0PN     -0.295000
     35 CA3         3.1090    2.2350   -3.1040 c3        1 0PN     -0.093000
     36 CE          2.9140    3.4530   -3.9460 c2        1 0PN      0.301000
     37 O5          2.9910    4.6000   -3.4240 o         1 0PN     -0.594000
     38 CB3         4.4120    1.5300   -3.5230 c3        1 0PN     -0.004000
     39 OG          5.4950    2.4580   -3.4560 oh        1 0PN     -0.334000
     40 OXT         2.7850    3.3390   -5.1830 o         1 0PN     -0.594000
     41 H21         2.6640    1.1830    6.1950 h1        1 0PN      0.114000
     42 H22         2.7560    0.8350    4.6150 h1        1 0PN      0.114000
     43 H41         3.4270    3.5600    5.5330 DU        1 0PN      0.154400
     44 H51         2.7260    5.7500    5.0000 DU        1 0PN      0.154400
     45 H61         0.6150    6.0670    4.0470 DU        1 0PN      0.154400
     46 H71        -0.8570    4.2800    3.6490 DU        1 0PN      0.154400
     47 H81        -0.1570    2.1050    4.2310 ha        1 0PN      0.134000
     48 H          -0.4350   -1.9620    5.8050 hn        1 0PN      0.250000
     49 HA          1.1100   -3.0360    3.7770 h1        1 0PN      0.132000
     50 HB         -0.1130   -4.3770    5.6510 hc        1 0PN      0.105000
     51 HG11       -2.1590   -5.2390    4.9830 hc        1 0PN      0.086000
     52 HG12       -2.2420   -3.6280    4.7740 hc        1 0PN      0.086000
     53 HG13       -1.9710   -4.5760    3.5000 hc        1 0PN      0.086000
     54 HG21        0.4330   -5.3660    2.9970 hc        1 0PN      0.086000
     55 HG22        1.3820   -5.5640    4.2670 hc        1 0PN      0.086000
     56 HG23        0.0230   -6.3300    4.1590 hc        1 0PN      0.086000
     57 H1          0.7250   -1.9050    1.6660 hn        1 0PN      0.227000
     58 HA1        -1.8690   -1.4710    0.8820 h1        1 0PN      0.169000
     59 HB1        -0.4930    0.9260    1.4200 hc        1 0PN      0.091667
     60 HB2        -2.0620    0.6620    1.3760 hc        1 0PN      0.091667
     61 HB3        -1.2390    0.1870    2.6520 hc        1 0PN      0.091667
     62 H2         -1.5590    0.6940   -1.0140 hn        1 0PN      0.233000
     63 HA2         0.1960   -0.4760   -2.7690 h1        1 0PN      0.143000
     64 HB21       -2.0470    1.0470   -3.0640 hc        1 0PN      0.097500
     65 HB31       -0.9050    1.5570   -4.0260 hc        1 0PN      0.097500
     66 HG2        -0.7220   -0.6150   -4.9800 hc        1 0PN      0.121500
     67 HG3        -1.8530   -1.1640   -3.9650 hc        1 0PN      0.121500
     68 HD2        -3.3940    0.4840   -5.0440 h1        1 0PN      0.108500
     69 HD3        -2.2880    0.7020   -6.2050 h1        1 0PN      0.108500
     70 HE         -2.9740   -1.9700   -5.8850 hn        1 0PN      0.237000
     71 HH11       -2.8560    0.1960   -8.4490 hn        1 0PN      0.263500
     72 HH12       -4.3280    0.0390   -9.1070 hn        1 0PN      0.263500
     73 HH21       -5.5320   -2.0240   -6.5100 DU        1 0PN      0.154400
     74 HH22       -5.8480   -1.4130   -7.9340 hn        1 0PN      0.280000
     75 H3          2.0060    0.7770   -3.9410 hn        1 0PN      0.222000
     76 HA3         3.1660    2.4980   -2.1440 h1        1 0PN      0.140000
     77 HB22        4.5890    0.7700   -2.9130 h1        1 0PN      0.086000
     78 HB32        4.3210    1.1980   -4.4430 h1        1 0PN      0.086000
     79 HG          6.2760    2.0100   -3.4210 ho        1 0PN      0.232000
@<TRIPOS>BOND
     1    1    2 1   
     2    1   11 1   
     3    3    4 1   
     4    4    5 1   
     5    4   41 1   
     6    4   42 1   
     7    5    6 1   
     8    5   10 1   
     9    7    8 1   
    10    9   10 1   
    11   10   47 1   
    12   11   12 1   
    13   11   48 1   
    14   12   13 1   
    15   12   15 1   
    16   12   49 1   
    17   13   14 1   
    18   13   18 1   
    19   15   16 1   
    20   15   17 1   
    21   15   50 1   
    22   16   51 1   
    23   16   52 1   
    24   16   53 1   
    25   17   54 1   
    26   17   55 1   
    27   17   56 1   
    28   18   19 1   
    29   18   57 1   
    30   19   20 1   
    31   19   22 1   
    32   19   58 1   
    33   20   21 1   
    34   20   23 1   
    35   22   59 1   
    36   22   60 1   
    37   22   61 1   
    38   23   24 1   
    39   23   62 1   
    40   24   25 1   
    41   24   27 1   
    42   24   63 1   
    43   25   26 1   
    44   25   34 1   
    45   27   28 1   
    46   27   64 1   
    47   27   65 1   
    48   28   29 1   
    49   28   66 1   
    50   28   67 1   
    51   29   30 1   
    52   29   68 1   
    53   29   69 1   
    54   30   31 1   
    55   30   70 1   
    56   31   32 1   
    57   31   33 1   
    58   32   71 1   
    59   32   72 1   
    60   33   74 1   
    61   34   35 1   
    62   34   75 1   
    63   35   36 1   
    64   35   38 1   
    65   35   76 1   
    66   36   37 1   
    67   36   40 1   
    68   38   39 1   
    69   38   77 1   
    70   38   78 1   
    71   39   79 1   
@<TRIPOS>SUBSTRUCTURE
     1 0PN         1 TEMP              0 ****  ****    0 ROOT
