@<TRIPOS>MOLECULE
0PQ
   65    67     1     0     0
SMALL
bcc


@<TRIPOS>ATOM
      1 N          -2.6650    0.9300   -2.0720 n3        1 0PQ     -0.899800
      2 C20        -2.6490   -0.0850   -1.0370 c3        1 0PQ     -0.123700
      3 P          -2.2490   -1.5660   -1.7020 p5        1 0PQ      1.507100
      4 O1P        -2.3860   -2.6790   -0.7540 o         1 0PQ     -0.903300
      5 O2P        -3.3360   -1.9530   -2.8360 oh        1 0PQ     -0.791400
      6 CB         -4.0010   -0.3020   -0.3530 c3        1 0PQ     -0.050100
      7 CG         -4.4950    0.9040    0.3560 ca        1 0PQ     -0.070300
      8 CD1        -5.3870    1.7820   -0.2740 ca        1 0PQ     -0.123000
      9 CD2        -4.0740    1.1760    1.6630 ca        1 0PQ     -0.123000
     10 CE1        -5.8510    2.9120    0.3970 ca        1 0PQ     -0.131000
     11 CE2        -4.5390    2.3080    2.3300 ca        1 0PQ     -0.131000
     12 CZ         -5.4290    3.1770    1.6990 ca        1 0PQ     -0.135000
     13 CM         -0.8130   -1.4380   -2.4790 c3        1 0PQ     -0.424600
     14 CA1         0.3390   -1.4310   -1.4900 c3        1 0PQ     -0.117700
     15 CB1         1.4110   -2.4610   -1.8560 c3        1 0PQ     -0.039100
     16 CG1         1.9090   -3.2130   -0.6690 ca        1 0PQ     -0.100300
     17 CD11        1.0350   -4.0180    0.0740 ca        1 0PQ     -0.126000
     18 CD21        3.2610   -3.1450   -0.3120 ca        1 0PQ     -0.126000
     19 CE11        1.5130   -4.7570    1.1540 ca        1 0PQ     -0.141500
     20 CE21        3.7320   -3.8900    0.7700 ca        1 0PQ     -0.141500
     21 CZ1         2.8630   -4.6970    1.5010 ca        1 0PQ     -0.143000
     22 C21         0.9660   -0.0260   -1.3710 c         1 0PQ      0.643100
     23 O7          0.4040    0.9570   -1.9110 o         1 0PQ     -0.664100
     24 N1          2.0710    0.1000   -0.5620 n         1 0PQ     -0.482900
     25 CA          3.0130    1.1910   -0.7500 c3        1 0PQ     -0.061300
     26 C           4.3490    0.7130   -1.4360 c         1 0PQ      0.908600
     27 O           4.5000   -0.5210   -1.6650 o         1 0PQ     -0.830800
     28 CB2         3.3970    1.8650    0.5740 c3        1 0PQ     -0.039100
     29 CG2         2.2880    2.6330    1.1980 ca        1 0PQ     -0.043300
     30 CD12        1.7410    2.2350    2.4240 ca        1 0PQ     -0.128000
     31 CD22        1.7880    3.7850    0.5740 ca        1 0PQ     -0.128000
     32 CE12        0.7180    2.9740    3.0160 ca        1 0PQ     -0.137500
     33 CE22        0.7650    4.5220    1.1670 ca        1 0PQ     -0.137500
     34 CZ2         0.2280    4.1190    2.3900 ca        1 0PQ     -0.154000
     35 OXT         5.1830    1.6120   -1.7150 o         1 0PQ     -0.830800
     36 HN1        -3.2940    1.6740   -1.8270 hn        1 0PQ      0.371300
     37 HN2        -1.7400    1.3190   -2.1720 hn        1 0PQ      0.371300
     38 HA         -1.9170    0.1880   -0.2150 h1        1 0PQ      0.086700
     39 HOP2       -3.8300   -2.7450   -2.6360 ho        1 0PQ      0.462000
     40 HB1        -4.7410   -0.6300   -1.1340 hc        1 0PQ      0.074700
     41 HB2        -3.8700   -1.1560    0.3700 hc        1 0PQ      0.074700
     42 HD1        -5.7190    1.5760   -1.3030 ha        1 0PQ      0.137500
     43 HD2        -3.3660    0.4950    2.1600 ha        1 0PQ      0.137500
     44 HE1        -6.5490    3.5980   -0.1050 ha        1 0PQ      0.127000
     45 HE2        -4.1980    2.5180    3.3550 ha        1 0PQ      0.127000
     46 HZ         -5.7930    4.0710    2.2250 ha        1 0PQ      0.124000
     47 HM1        -0.6890   -2.2910   -3.2010 hc        1 0PQ      0.127200
     48 HM2        -0.7280   -0.5270   -3.1380 hc        1 0PQ      0.127200
     49 HA1        -0.0690   -1.6960   -0.4680 hc        1 0PQ      0.074700
     50 HB11        0.9900   -3.2110   -2.5800 hc        1 0PQ      0.071200
     51 HB21        2.2720   -1.9540   -2.3780 hc        1 0PQ      0.071200
     52 HD11       -0.0360   -4.0560   -0.1900 ha        1 0PQ      0.178000
     53 HD21        3.9510   -2.4860   -0.8790 ha        1 0PQ      0.178000
     54 HE11        0.8220   -5.3850    1.7340 ha        1 0PQ      0.124000
     55 HE21        4.7950   -3.8300    1.0460 ha        1 0PQ      0.124000
     56 HZ1         3.2370   -5.2820    2.3530 ha        1 0PQ      0.114000
     57 H           2.5390   -0.7590   -0.3330 hn        1 0PQ      0.313500
     58 HA2         2.5470    1.9640   -1.4260 h1        1 0PQ      0.077700
     59 HB22        3.7880    1.0960    1.2920 hc        1 0PQ      0.065200
     60 HB3         4.2470    2.5640    0.3310 hc        1 0PQ      0.065200
     61 HD12        2.1190    1.3270    2.9180 ha        1 0PQ      0.135000
     62 HD22        2.2070    4.0970   -0.3950 ha        1 0PQ      0.135000
     63 HE12        0.2950    2.6500    3.9770 ha        1 0PQ      0.115000
     64 HE22        0.3770    5.4200    0.6670 ha        1 0PQ      0.115000
     65 HZ2        -0.5790    4.7000    2.8560 ha        1 0PQ      0.113000
@<TRIPOS>BOND
     1    1    2 1   
     2    1   36 1   
     3    1   37 1   
     4    2    3 1   
     5    2    6 1   
     6    2   38 1   
     7    3    4 2   
     8    3    5 1   
     9    3   13 1   
    10    5   39 1   
    11    6    7 1   
    12    6   40 1   
    13    6   41 1   
    14    7    8 ar  
    15    7    9 ar  
    16    8   10 ar  
    17    8   42 1   
    18    9   11 ar  
    19    9   43 1   
    20   10   12 ar  
    21   10   44 1   
    22   11   12 ar  
    23   11   45 1   
    24   12   46 1   
    25   13   14 1   
    26   13   47 1   
    27   13   48 1   
    28   14   15 1   
    29   14   22 1   
    30   14   49 1   
    31   15   16 1   
    32   15   50 1   
    33   15   51 1   
    34   16   17 ar  
    35   16   18 ar  
    36   17   19 ar  
    37   17   52 1   
    38   18   20 ar  
    39   18   53 1   
    40   19   21 ar  
    41   19   54 1   
    42   20   21 ar  
    43   20   55 1   
    44   21   56 1   
    45   22   23 2   
    46   22   24 1   
    47   24   25 1   
    48   24   57 1   
    49   25   26 1   
    50   25   28 1   
    51   25   58 1   
    52   26   27 1   
    53   26   35 1   
    54   28   29 1   
    55   28   59 1   
    56   28   60 1   
    57   29   30 ar  
    58   29   31 ar  
    59   30   32 ar  
    60   30   61 1   
    61   31   33 ar  
    62   31   62 1   
    63   32   34 ar  
    64   32   63 1   
    65   33   34 ar  
    66   33   64 1   
    67   34   65 1   
@<TRIPOS>SUBSTRUCTURE
     1 0PQ         1 TEMP              0 ****  ****    0 ROOT
