@<TRIPOS>MOLECULE
0PQ
   65    61     1     0     0
SMALL
bcc


@<TRIPOS>ATOM
      1 N          -2.7500    1.4530   -3.1760 n3        1 0PQ     -0.304000
      2 C20        -1.5750    2.2150   -3.2400 c3        1 0PQ     -0.755000
      3 P          -0.6950    2.1140   -1.6400 p5        1 0PQ      2.828000
      4 O1P         0.7300    2.4540   -1.8410 o         1 0PQ     -1.165000
      5 O2P        -1.3380    3.1260   -0.6220 oh        1 0PQ     -0.837000
      6 CB         -1.9240    3.6710   -3.5400 c3        1 0PQ     -0.155000
      7 CG         -2.1470    3.8470   -5.0720 c2        1 0PQ     -0.066000
      8 CD1        -3.2170    3.2160   -5.6950 c2        1 0PQ     -0.135000
      9 CD2        -1.3190    4.6970   -5.8020 c1        1 0PQ     -0.118000
     10 CE1        -3.4610    3.4330   -7.0500 c1        1 0PQ     -0.136000
     11 CE2        -1.5640    4.9130   -7.1580 c1        1 0PQ     -0.138667
     12 CZ         -2.6330    4.2820   -7.7800 c1        1 0PQ     -0.138667
     13 CM         -0.8300    0.3990   -0.9690 c3        1 0PQ     -0.918000
     14 CA1        -0.1170    0.3220    0.3740 c3        1 0PQ     -0.113000
     15 CB1        -0.7410    1.3060    1.3340 c3        1 0PQ     -0.122000
     16 CG1         0.0910    1.3540    2.6360 c2        1 0PQ     -0.093000
     17 CD11        1.3830    1.8730    2.6120 c2        1 0PQ     -0.129000
     18 CD21       -0.5010    1.0220    3.8470 c1        1 0PQ     -0.118000
     19 CE11        2.0800    2.0590    3.8030 c1        1 0PQ     -0.144000
     20 CE21        0.1980    1.2090    5.0400 c1        1 0PQ     -0.138667
     21 CZ1         1.4860    1.7260    5.0160 c1        1 0PQ     -0.138667
     22 C21        -0.2480   -1.0940    0.9410 c2        1 0PQ      0.286000
     23 O7         -1.2600   -1.4220    1.5250 o         1 0PQ     -0.427000
     24 N1          0.8510   -2.0480    0.7900 n         1 0PQ     -0.302000
     25 CA          1.1790   -2.9410    1.8610 c3        1 0PQ     -0.083000
     26 C           1.7720   -2.1650    2.9960 c2        1 0PQ      0.329000
     27 O           2.7630   -1.4070    2.7920 o         1 0PQ     -0.568000
     28 CB2         2.1910   -3.9820    1.3690 c3        1 0PQ     -0.113000
     29 CG2         2.3810   -5.0790    2.4610 c2        1 0PQ     -0.050000
     30 CD12        2.0550   -6.4010    2.1830 c2        1 0PQ     -0.139000
     31 CD22        2.8510   -4.7290    3.7260 c1        1 0PQ     -0.119000
     32 CE12        2.1990   -7.3780    3.1710 c1        1 0PQ     -0.149000
     33 CE22        2.9930   -5.7020    4.7080 c1        1 0PQ     -0.138667
     34 CZ2         2.6660   -7.0290    4.4280 c1        1 0PQ     -0.138667
     35 OXT         1.3320   -2.3230    4.1600 o         1 0PQ     -0.568000
     36 HN1        -2.6790    0.7360   -3.7420 hn        1 0PQ      0.148500
     37 HN2        -3.4640    1.9700   -3.4260 hn        1 0PQ      0.148500
     38 HA         -1.0000    1.8660   -3.9510 h1        1 0PQ      0.187000
     39 HOP2       -2.2220    3.0320   -0.6290 ho        1 0PQ      0.264000
     40 HB1        -1.1840    4.2530   -3.2460 hc        1 0PQ      0.111500
     41 HB2        -2.7430    3.9170   -3.0600 hc        1 0PQ      0.111500
     42 HD1        -3.8470    2.6930   -5.1670 ha        1 0PQ      0.126000
     43 HD2        -0.6230    5.2020   -5.3490 ha        1 0PQ      0.153000
     44 HE1        -4.2550    3.0380   -7.4740 ha        1 0PQ      0.123000
     45 HE2        -1.0210    5.5640   -7.6570 ha        1 0PQ      0.122333
     46 HZ         -2.6730    4.4320   -8.7510 ha        1 0PQ      0.122333
     47 HM1        -1.7700    0.1700   -0.8510 hc        1 0PQ      0.169500
     48 HM2        -0.4170   -0.2290   -1.5940 hc        1 0PQ      0.169500
     49 HA1         0.8250    0.5370    0.2550 hc        1 0PQ      0.137000
     50 HB11       -0.7590    2.1960    0.9250 hc        1 0PQ      0.103000
     51 HB21       -1.6570    1.0230    1.5410 hc        1 0PQ      0.103000
     52 HD11        1.8240    2.0440    1.7600 ha        1 0PQ      0.140000
     53 HD21       -1.4030    0.6600    3.8640 ha        1 0PQ      0.202000
     54 HE11        2.9920    2.4250    3.7870 ha        1 0PQ      0.119000
     55 HE21       -0.2200    0.9740    5.8950 ha        1 0PQ      0.122333
     56 HZ1         1.9780    1.8580    5.8560 ha        1 0PQ      0.122333
     57 H           1.3220   -2.0840    0.0050 hn        1 0PQ      0.234000
     58 HA2         0.3700   -3.3950    2.1660 h1        1 0PQ      0.121000
     59 HB22        3.0480   -3.5460    1.1930 hc        1 0PQ      0.090500
     60 HB3         1.8600   -4.3950    0.5460 hc        1 0PQ      0.090500
     61 HD12        1.7260   -6.6480    1.2970 ha        1 0PQ      0.120000
     62 HD22        3.0800   -3.8000    3.9210 ha        1 0PQ      0.199000
     63 HE12        2.0220   -8.3210    2.9590 ha        1 0PQ      0.109000
     64 HE22        3.2450   -5.4430    5.6190 ha        1 0PQ      0.122333
     65 HZ2         2.7660   -7.7150    5.1210 ha        1 0PQ      0.122333
@<TRIPOS>BOND
     1    1    2 1   
     2    1   36 1   
     3    1   37 1   
     4    2    3 1   
     5    2    6 1   
     6    2   38 1   
     7    3    4 1   
     8    3    5 1   
     9    3   13 1   
    10    5   39 1   
    11    6    7 1   
    12    6   40 1   
    13    6   41 1   
    14    7    8 1   
    15    7    9 1   
    16    8   10 1   
    17    8   42 1   
    18    9   43 1   
    19   10   44 1   
    20   11   12 1   
    21   11   45 1   
    22   12   46 1   
    23   13   14 1   
    24   13   47 1   
    25   13   48 1   
    26   14   15 1   
    27   14   22 1   
    28   14   49 1   
    29   15   16 1   
    30   15   50 1   
    31   15   51 1   
    32   16   17 1   
    33   16   18 1   
    34   17   19 1   
    35   17   52 1   
    36   18   53 1   
    37   19   54 1   
    38   20   21 1   
    39   20   55 1   
    40   21   56 1   
    41   22   23 1   
    42   22   24 1   
    43   24   25 1   
    44   24   57 1   
    45   25   26 1   
    46   25   28 1   
    47   25   58 1   
    48   26   27 1   
    49   26   35 1   
    50   28   29 1   
    51   28   59 1   
    52   28   60 1   
    53   29   30 1   
    54   29   31 1   
    55   30   32 1   
    56   30   61 1   
    57   31   62 1   
    58   32   63 1   
    59   33   34 1   
    60   33   64 1   
    61   34   65 1   
@<TRIPOS>SUBSTRUCTURE
     1 0PQ         1 TEMP              0 ****  ****    0 ROOT
