@<TRIPOS>MOLECULE
0PX
   95    97     1     0     0
SMALL
bcc


@<TRIPOS>ATOM
      1 O          -4.1010   -0.1420   -2.1570 o         1 0PX     -0.595100
      2 C          -4.0270    0.5040   -1.0930 c         1 0PX      0.563600
      3 N1         -5.1350    1.0160    1.0530 nb        1 0PX     -0.642000
      4 C2         -5.2520    0.6550   -0.2200 ca        1 0PX      0.376800
      5 C3         -6.5060    0.3670   -0.8540 ca        1 0PX     -0.205300
      6 C4         -7.6560    0.4720   -0.1130 ca        1 0PX     -0.088000
      7 C4A        -7.5770    0.8560    1.2550 ca        1 0PX     -0.130300
      8 C5         -8.7290    0.9810    2.0740 ca        1 0PX     -0.117000
      9 C6         -8.6080    1.3490    3.3900 ca        1 0PX     -0.115000
     10 C7         -7.3320    1.6090    3.9460 ca        1 0PX     -0.124000
     11 C8         -6.1960    1.5000    3.1870 ca        1 0PX     -0.159300
     12 C8A        -6.2850    1.1190    1.8070 ca        1 0PX      0.389600
     13 N          -2.8680    1.1710   -0.7240 n         1 0PX     -0.534900
     14 CA         -1.6370    0.9560   -1.4480 c3        1 0PX      0.027700
     15 C1         -0.6910   -0.0100   -0.6850 c         1 0PX      0.633100
     16 O1         -0.5710    0.0640    0.5540 o         1 0PX     -0.607100
     17 CB         -0.8370    2.2530   -1.6510 c3        1 0PX     -0.161400
     18 CG         -1.5380    3.1700   -2.6340 c         1 0PX      0.661100
     19 OD1        -1.1730    3.2330   -3.8270 o         1 0PX     -0.617100
     20 ND2        -2.5640    3.9570   -2.1790 n         1 0PX     -0.662000
     21 N2          0.0390   -0.8940   -1.4450 n         1 0PX     -0.560900
     22 CA1         0.9430   -1.8590   -0.8580 c3        1 0PX      0.066700
     23 CB1         0.6200   -3.3030   -1.2860 c3        1 0PX     -0.097400
     24 CG1         1.0430   -4.3140   -0.2310 c3        1 0PX     -0.059700
     25 CD1         1.1990   -5.6900   -0.8680 c3        1 0PX     -0.076400
     26 CD2         0.0350   -4.3790    0.9090 c3        1 0PX     -0.076400
     27 CE1         1.6000   -6.7290    0.1590 c3        1 0PX     -0.075900
     28 CE2         0.4410   -5.4130    1.9400 c3        1 0PX     -0.075900
     29 CZ          0.6170   -6.7790    1.3100 c3        1 0PX     -0.077400
     30 CH          2.4290   -1.5480   -1.2060 c3        1 0PX      0.127100
     31 OH          2.6590   -1.6630   -2.6000 oh        1 0PX     -0.599800
     32 CB11        2.8430   -0.1870   -0.6580 c3        1 0PX     -0.107400
     33 CA'         4.3190   -0.1190   -0.2880 c3        1 0PX     -0.121700
     34 CB'         5.2330   -0.2000   -1.5130 c3        1 0PX     -0.074700
     35 CG11        5.2420    1.0810   -2.3190 c3        1 0PX     -0.095100
     36 CG2         6.6460   -0.5850   -1.1270 c3        1 0PX     -0.095100
     37 C9          4.5580    1.1750    0.4960 c         1 0PX      0.657100
     38 O2          3.8420    2.1830    0.3310 o         1 0PX     -0.611100
     39 N3          5.5640    1.1540    1.4470 n         1 0PX     -0.559900
     40 C11         5.9620    2.3240    2.1760 c3        1 0PX      0.088000
     41 C21         7.3640    2.8840    1.8420 c3        1 0PX     -0.082000
     42 C31         7.4070    3.3890    0.4100 c3        1 0PX     -0.088100
     43 C41         7.6230    4.0450    2.7930 c3        1 0PX     -0.088100
     44 C51         8.4300    1.8210    2.0470 c3        1 0PX     -0.088100
     45 H3         -6.5080    0.0610   -1.9120 ha        1 0PX      0.173000
     46 H4         -8.6420    0.2620   -0.5550 ha        1 0PX      0.146000
     47 H5         -9.7160    0.7750    1.6310 ha        1 0PX      0.139000
     48 H6         -9.4990    1.4470    4.0300 ha        1 0PX      0.139000
     49 H7         -7.2640    1.9010    5.0060 ha        1 0PX      0.140000
     50 H8         -5.2030    1.7000    3.6220 ha        1 0PX      0.154000
     51 H          -2.7540    1.4340    0.2330 hn        1 0PX      0.338500
     52 HA         -1.9000    0.5310   -2.4650 h1        1 0PX      0.109700
     53 HB2        -0.6570    2.7670   -0.6720 hc        1 0PX      0.088700
     54 HB3         0.1630    1.9870   -2.0880 hc        1 0PX      0.088700
     55 HD21       -2.9260    3.8420   -1.2680 hn        1 0PX      0.313000
     56 HD22       -3.0650    4.5190   -2.8220 hn        1 0PX      0.313000
     57 H1         -0.1720   -1.0030   -2.4080 hn        1 0PX      0.317500
     58 HA1         0.8450   -1.7810    0.2680 h1        1 0PX      0.094700
     59 HB21       -0.4790   -3.4210   -1.4780 hc        1 0PX      0.057700
     60 HB31        1.1540   -3.5160   -2.2500 hc        1 0PX      0.057700
     61 HG          2.0410   -4.0100    0.1950 hc        1 0PX      0.045700
     62 HD12        0.2300   -5.9880   -1.3470 hc        1 0PX      0.043450
     63 HD13        1.9760   -5.6430   -1.6750 hc        1 0PX      0.043450
     64 HD23       -0.0490   -3.3750    1.4000 hc        1 0PX      0.043450
     65 HD24       -0.9760   -4.6390    0.4980 hc        1 0PX      0.043450
     66 HE12        1.6570   -7.7350   -0.3320 hc        1 0PX      0.038950
     67 HE13        2.6230   -6.4890    0.5530 hc        1 0PX      0.038950
     68 HE23        1.4020   -5.0990    2.4270 hc        1 0PX      0.038950
     69 HE22       -0.3410   -5.4660    2.7410 hc        1 0PX      0.038950
     70 HZ2        -0.3750   -7.1490    0.9370 hc        1 0PX      0.039200
     71 HZ3         0.9780   -7.5070    2.0820 hc        1 0PX      0.039200
     72 HH          3.0600   -2.3700   -0.7610 h1        1 0PX      0.079700
     73 HO          2.3000   -0.8760   -3.0270 ho        1 0PX      0.402000
     74 HB11        2.6120    0.6180   -1.4050 hc        1 0PX      0.072700
     75 HB12        2.2360    0.0420    0.2610 hc        1 0PX      0.072700
     76 HA'         4.5480   -1.0020    0.3760 hc        1 0PX      0.059700
     77 HB'         4.8160   -1.0230   -2.1680 hc        1 0PX      0.077700
     78 HG11        5.9190    0.9720   -3.2010 hc        1 0PX      0.038033
     79 HG12        4.2150    1.3210   -2.6870 hc        1 0PX      0.038033
     80 HG13        5.5990    1.9410   -1.7000 hc        1 0PX      0.038033
     81 HG21        6.6460   -1.4500   -0.4210 hc        1 0PX      0.038033
     82 HG22        7.2180   -0.8780   -2.0410 hc        1 0PX      0.038033
     83 HG23        7.1830    0.2700   -0.6480 hc        1 0PX      0.038033
     84 HN2         6.2140    0.4030    1.4200 hn        1 0PX      0.303500
     85 H11         5.2020    3.1390    2.0010 h1        1 0PX      0.063200
     86 H12         5.9510    2.0580    3.2740 h1        1 0PX      0.063200
     87 H31         6.6000    4.1420    0.2400 hc        1 0PX      0.036922
     88 H32         8.3940    3.8670    0.2010 hc        1 0PX      0.036922
     89 H33         7.2630    2.5470   -0.3100 hc        1 0PX      0.036922
     90 H41         7.6240    3.6900    3.8510 hc        1 0PX      0.036922
     91 H42         8.6140    4.5080    2.5720 hc        1 0PX      0.036922
     92 H43         6.8320    4.8250    2.6770 hc        1 0PX      0.036922
     93 H51         8.3730    1.0390    1.2510 hc        1 0PX      0.036922
     94 H52         9.4460    2.2840    2.0020 hc        1 0PX      0.036922
     95 H53         8.3060    1.3310    3.0420 hc        1 0PX      0.036922
@<TRIPOS>BOND
     1    1    2 2   
     2    2    4 1   
     3    2   13 1   
     4    3    4 ar  
     5    3   12 ar  
     6    4    5 ar  
     7    5    6 ar  
     8    5   45 1   
     9    6    7 ar  
    10    6   46 1   
    11    7    8 ar  
    12    7   12 ar  
    13    8    9 ar  
    14    8   47 1   
    15    9   10 ar  
    16    9   48 1   
    17   10   11 ar  
    18   10   49 1   
    19   11   12 ar  
    20   11   50 1   
    21   13   14 1   
    22   13   51 1   
    23   14   15 1   
    24   14   17 1   
    25   14   52 1   
    26   15   16 2   
    27   15   21 1   
    28   17   18 1   
    29   17   53 1   
    30   17   54 1   
    31   18   19 2   
    32   18   20 1   
    33   20   55 1   
    34   20   56 1   
    35   21   22 1   
    36   21   57 1   
    37   22   23 1   
    38   22   30 1   
    39   22   58 1   
    40   23   24 1   
    41   23   59 1   
    42   23   60 1   
    43   24   25 1   
    44   24   26 1   
    45   24   61 1   
    46   25   27 1   
    47   25   62 1   
    48   25   63 1   
    49   26   28 1   
    50   26   64 1   
    51   26   65 1   
    52   27   29 1   
    53   27   66 1   
    54   27   67 1   
    55   28   29 1   
    56   28   68 1   
    57   28   69 1   
    58   29   70 1   
    59   29   71 1   
    60   30   31 1   
    61   30   32 1   
    62   30   72 1   
    63   31   73 1   
    64   32   33 1   
    65   32   74 1   
    66   32   75 1   
    67   33   34 1   
    68   33   37 1   
    69   33   76 1   
    70   34   35 1   
    71   34   36 1   
    72   34   77 1   
    73   35   78 1   
    74   35   79 1   
    75   35   80 1   
    76   36   81 1   
    77   36   82 1   
    78   36   83 1   
    79   37   38 2   
    80   37   39 1   
    81   39   40 1   
    82   39   84 1   
    83   40   41 1   
    84   40   85 1   
    85   40   86 1   
    86   41   42 1   
    87   41   43 1   
    88   41   44 1   
    89   42   87 1   
    90   42   88 1   
    91   42   89 1   
    92   43   90 1   
    93   43   91 1   
    94   43   92 1   
    95   44   93 1   
    96   44   94 1   
    97   44   95 1   
@<TRIPOS>SUBSTRUCTURE
     1 0PX         1 TEMP              0 ****  ****    0 ROOT
