@<TRIPOS>MOLECULE
0PX
   95    92     1     0     0
SMALL
bcc


@<TRIPOS>ATOM
      1 O          -3.7800    1.4830    3.1810 o         1 0PX     -0.377000
      2 C          -3.0610    1.1290    4.0970 c1        1 0PX      0.364000
      3 N1         -4.9660    0.0250    5.1200 n1        1 0PX     -0.122000
      4 C2         -3.6380    0.2930    5.2430 c1        1 0PX     -0.034000
      5 C3         -2.9230   -0.2030    6.3330 c2        1 0PX     -0.138000
      6 C4         -3.5580   -0.9610    7.2780 c1        1 0PX     -0.087000
      7 C4A        -4.9140   -1.2350    7.1520 c1        1 0PX     -0.034500
      8 C5         -5.5670   -2.0370    8.1120 c1        1 0PX     -0.105500
      9 C6         -6.9170   -2.3300    7.9710 c1        1 0PX     -0.121000
     10 C7         -7.6280   -1.8320    6.8810 c1        1 0PX     -0.121000
     11 C8         -6.9880   -1.0440    5.9370 c1        1 0PX     -0.105500
     12 C8A        -5.6140   -0.7450    6.0790 c1        1 0PX     -0.034500
     13 N          -1.6700    1.4870    4.0980 n3        1 0PX     -0.353000
     14 CA         -1.1540    2.3490    3.0820 c3        1 0PX      0.022000
     15 C1         -0.1360    1.5910    2.2420 c2        1 0PX      0.283000
     16 O1          0.7920    1.0200    2.7810 o         1 0PX     -0.387000
     17 CB         -0.4890    3.5420    3.7240 c3        1 0PX     -0.187000
     18 CG         -1.5480    4.4520    4.3180 c2        1 0PX      0.298000
     19 OD1        -2.6280    4.5570    3.7790 o         1 0PX     -0.371000
     20 ND2        -1.2470    5.2360    5.4600 n         1 0PX     -0.437000
     21 N2         -0.2330    1.6090    0.7890 n         1 0PX     -0.362000
     22 CA1         0.2470    0.4930    0.0240 c3        1 0PX     -0.011000
     23 CB1        -0.5190   -0.7480    0.4120 c3        1 0PX     -0.172000
     24 CG1         0.2300   -1.9910   -0.0890 c3        1 0PX     -0.106000
     25 CD1        -0.7720   -3.1020   -0.3360 c3        1 0PX     -0.153000
     26 CD2         1.2790   -2.3760    0.9360 c3        1 0PX     -0.153000
     27 CE1        -0.1040   -4.4230   -0.6590 c3        1 0PX     -0.156000
     28 CE2         1.9460   -3.6970    0.6130 c3        1 0PX     -0.156000
     29 CZ          0.9440   -4.8060    0.3650 c3        1 0PX     -0.155000
     30 CH          0.0500    0.7670   -1.4520 c3        1 0PX      0.012000
     31 OH         -1.1880    1.3870   -1.6500 oh        1 0PX     -0.330000
     32 CB11        1.1690    1.6850   -1.9560 c3        1 0PX     -0.150000
     33 CA'         1.2340    1.6200   -3.4700 c3        1 0PX     -0.115000
     34 CB'         0.6120    2.8720   -4.0560 c3        1 0PX     -0.094000
     35 CG11        1.7100    3.8380   -4.4720 c3        1 0PX     -0.216500
     36 CG2        -0.2190    2.5040   -5.2640 c3        1 0PX     -0.216500
     37 C9          2.6850    1.5200   -3.9120 c2        1 0PX      0.302000
     38 O2          3.5140    2.2860   -3.4570 o         1 0PX     -0.378000
     39 N3          3.0950    0.4630   -4.8230 n         1 0PX     -0.376000
     40 C11         4.5000    0.1540   -4.9880 c3        1 0PX     -0.024000
     41 C21         4.6500   -1.1180   -5.8350 c3        1 0PX     -0.080000
     42 C31         4.4990   -0.7710   -7.2920 c3        1 0PX     -0.205667
     43 C41         6.0250   -1.7260   -5.5980 c3        1 0PX     -0.205667
     44 C51         3.5840   -2.1120   -5.4430 c3        1 0PX     -0.205667
     45 H3         -1.9560   -0.0410    6.4010 ha        1 0PX      0.173000
     46 H4         -3.0570   -1.3100    8.0440 ha        1 0PX      0.146000
     47 H5         -5.0700   -2.3850    8.8740 ha        1 0PX      0.144500
     48 H6         -7.3700   -2.8860    8.6360 ha        1 0PX      0.138500
     49 H7         -8.5760   -2.0380    6.7830 ha        1 0PX      0.138500
     50 H8         -7.4860   -0.6960    5.1730 ha        1 0PX      0.144500
     51 H          -1.1230    1.1940    4.7700 hn        1 0PX      0.249000
     52 HA         -1.8880    2.6540    2.5090 h1        1 0PX      0.154000
     53 HB2         0.0200    4.0320    3.0510 hc        1 0PX      0.129500
     54 HB3         0.1150    3.2380    4.4320 hc        1 0PX      0.129500
     55 HD21       -1.8680    5.8280    5.7860 hn        1 0PX      0.226500
     56 HD22       -0.4270    5.1660    5.8610 hn        1 0PX      0.226500
     57 H1         -0.5820    2.3370    0.3640 hn        1 0PX      0.260000
     58 HA1         1.2000    0.3580    0.2070 h1        1 0PX      0.138000
     59 HB21       -1.4070   -0.7210    0.0090 hc        1 0PX      0.085000
     60 HB31       -0.6040   -0.7880    1.3830 hc        1 0PX      0.085000
     61 HG          0.6750   -1.7750   -0.9290 hc        1 0PX      0.092000
     62 HD12       -1.3460   -2.8480   -1.0840 hc        1 0PX      0.082000
     63 HD13       -1.3250   -3.2130    0.4630 hc        1 0PX      0.082000
     64 HD23        0.8540   -2.4440    1.8140 hc        1 0PX      0.082000
     65 HD24        1.9610   -1.6780    0.9680 hc        1 0PX      0.082000
     66 HE12        0.3210   -4.3560   -1.5360 hc        1 0PX      0.079500
     67 HE13       -0.7860   -5.1220   -0.6890 hc        1 0PX      0.079500
     68 HE23        2.5010   -3.5850   -0.1920 hc        1 0PX      0.079500
     69 HE22        2.5220   -3.9530    1.3620 hc        1 0PX      0.079500
     70 HZ2         1.4220   -5.5980    0.0460 hc        1 0PX      0.077000
     71 HZ3         0.4990   -5.0240    1.2070 hc        1 0PX      0.077000
     72 HH          0.0750   -0.0730   -1.9430 h1        1 0PX      0.085000
     73 HO         -1.7800    0.7850   -1.9190 ho        1 0PX      0.203000
     74 HB11        0.9870    2.6070   -1.6760 hc        1 0PX      0.113000
     75 HB12        2.0230    1.3940   -1.5810 hc        1 0PX      0.113000
     76 HA'         0.7430    0.8370   -3.7830 hc        1 0PX      0.110000
     77 HB'         0.0440    3.2950   -3.3890 hc        1 0PX      0.092000
     78 HG11        1.4520    4.7520   -4.2260 hc        1 0PX      0.079500
     79 HG12        1.8410    3.7860   -5.4470 hc        1 0PX      0.079500
     80 HG13        2.5400    3.6010   -4.0200 hc        1 0PX      0.079500
     81 HG21       -0.8970    3.1930   -5.4150 hc        1 0PX      0.079500
     82 HG22       -0.6580    1.6430   -5.1080 hc        1 0PX      0.079500
     83 HG23        0.3610    2.4370   -6.0530 hc        1 0PX      0.079500
     84 HN2         2.4670    0.0170   -5.3170 hn        1 0PX      0.221000
     85 H11         4.9070    0.0110   -4.1090 h1        1 0PX      0.100000
     86 H12         4.9490    0.9020   -5.4380 h1        1 0PX      0.100000
     87 H31         4.9440    0.0800   -7.4730 hc        1 0PX      0.075667
     88 H32         3.5470   -0.6960   -7.5140 hc        1 0PX      0.075667
     89 H33         4.9060   -1.4740   -7.8390 hc        1 0PX      0.075667
     90 H41         6.7180   -1.0620   -5.8100 hc        1 0PX      0.075667
     91 H42         6.1390   -2.5140   -6.1740 hc        1 0PX      0.075667
     92 H43         6.1060   -1.9930   -4.6610 hc        1 0PX      0.075667
     93 H51         2.7430   -1.8850   -5.8940 hc        1 0PX      0.075667
     94 H52         3.8640   -3.0140   -5.7080 hc        1 0PX      0.075667
     95 H53         3.4530   -2.0830   -4.4740 hc        1 0PX      0.075667
@<TRIPOS>BOND
     1    1    2 1   
     2    2   13 1   
     3    3    4 1   
     4    4    5 1   
     5    5    6 1   
     6    5   45 1   
     7    6   46 1   
     8    7    8 1   
     9    7   12 1   
    10    8   47 1   
    11    9   10 1   
    12    9   48 1   
    13   10   49 1   
    14   11   12 1   
    15   11   50 1   
    16   13   14 1   
    17   13   51 1   
    18   14   15 1   
    19   14   17 1   
    20   14   52 1   
    21   15   16 1   
    22   15   21 1   
    23   17   18 1   
    24   17   53 1   
    25   17   54 1   
    26   18   19 1   
    27   18   20 1   
    28   20   55 1   
    29   20   56 1   
    30   21   22 1   
    31   21   57 1   
    32   22   23 1   
    33   22   30 1   
    34   22   58 1   
    35   23   24 1   
    36   23   59 1   
    37   23   60 1   
    38   24   25 1   
    39   24   26 1   
    40   24   61 1   
    41   25   27 1   
    42   25   62 1   
    43   25   63 1   
    44   26   28 1   
    45   26   64 1   
    46   26   65 1   
    47   27   29 1   
    48   27   66 1   
    49   27   67 1   
    50   28   29 1   
    51   28   68 1   
    52   28   69 1   
    53   29   70 1   
    54   29   71 1   
    55   30   31 1   
    56   30   32 1   
    57   30   72 1   
    58   31   73 1   
    59   32   33 1   
    60   32   74 1   
    61   32   75 1   
    62   33   34 1   
    63   33   37 1   
    64   33   76 1   
    65   34   35 1   
    66   34   36 1   
    67   34   77 1   
    68   35   78 1   
    69   35   79 1   
    70   35   80 1   
    71   36   81 1   
    72   36   82 1   
    73   36   83 1   
    74   37   38 1   
    75   37   39 1   
    76   39   40 1   
    77   39   84 1   
    78   40   41 1   
    79   40   85 1   
    80   40   86 1   
    81   41   42 1   
    82   41   43 1   
    83   41   44 1   
    84   42   87 1   
    85   42   88 1   
    86   42   89 1   
    87   43   90 1   
    88   43   91 1   
    89   43   92 1   
    90   44   93 1   
    91   44   94 1   
    92   44   95 1   
@<TRIPOS>SUBSTRUCTURE
     1 0PX         1 TEMP              0 ****  ****    0 ROOT
