@<TRIPOS>MOLECULE
0PY
   11     8     1     0     0
SMALL
bcc


@<TRIPOS>ATOM
      1 C5         -0.5690    0.0000   -1.3750 c1        1 0PY     -0.074250
      2 N1          0.7930    0.0000   -1.3750 n1        1 0PY     -0.464800
      3 C4         -1.2630    0.0000   -0.1750 c1        1 0PY     -0.074250
      4 C3         -0.5810    0.0000    1.0070 c1        1 0PY     -0.074250
      5 C2          0.7840    0.0000    1.0050 c1        1 0PY     -0.074250
      6 C1          1.4750    0.0000   -0.1960 c1        1 0PY      0.311300
      7 H5         -1.0570    0.0000   -2.2210 ha        1 0PY      0.087750
      8 H4         -2.2390   -0.0000   -0.1750 ha        1 0PY      0.087750
      9 H3         -1.0680   -0.0000    1.8520 ha        1 0PY      0.087750
     10 H2          1.2730   -0.0000    1.8500 ha        1 0PY      0.087750
     11 H1          2.4520   -0.0000   -0.1970 ha        1 0PY      0.100500
@<TRIPOS>BOND
     1    1    3 3   
     2    1    7 1   
     3    2    6 3   
     4    3    8 1   
     5    4    5 3   
     6    4    9 1   
     7    5   10 1   
     8    6   11 1   
@<TRIPOS>SUBSTRUCTURE
     1 0PY         1 TEMP              0 ****  ****    0 ROOT
