@<TRIPOS>MOLECULE
0PY
   11    11     1     0     0
SMALL
bcc


@<TRIPOS>ATOM
      1 C5         -1.1510    0.7000   -0.0000 ca        1 0PY      0.393200
      2 N1         -0.0010    1.4020   -0.0010 nb        1 0PY     -0.665000
      3 C4         -1.2020   -0.7060    0.0010 ca        1 0PY     -0.246300
      4 C3          0.0010   -1.4150    0.0010 ca        1 0PY     -0.093000
      5 C2          1.2030   -0.7050   -0.0000 ca        1 0PY     -0.246300
      6 C1          1.1500    0.7010   -0.0010 ca        1 0PY      0.393200
      7 H5         -2.0780    1.3000   -0.0000 h4        1 0PY      0.021100
      8 H4         -2.1680   -1.2270    0.0020 ha        1 0PY      0.143000
      9 H3          0.0010   -2.5150    0.0020 ha        1 0PY      0.137000
     10 H2          2.1690   -1.2250   -0.0000 ha        1 0PY      0.143000
     11 H1          2.0770    1.3010   -0.0020 h4        1 0PY      0.021100
@<TRIPOS>BOND
     1    1    2 ar  
     2    1    3 ar  
     3    1    7 1   
     4    2    6 ar  
     5    3    4 ar  
     6    3    8 1   
     7    4    5 ar  
     8    4    9 1   
     9    5    6 ar  
    10    5   10 1   
    11    6   11 1   
@<TRIPOS>SUBSTRUCTURE
     1 0PY         1 TEMP              0 ****  ****    0 ROOT
