@<TRIPOS>MOLECULE
0PY
   11    11     1     0     0
SMALL
bcc


@<TRIPOS>ATOM
      1 C5          0.0020    0.0020   -0.0010 ca        1 0PY      0.393200
      2 N1          1.3490   -0.0010   -0.0540 nb        1 0PY     -0.665000
      3 C4         -0.7280    0.0050    1.2010 ca        1 0PY     -0.246300
      4 C3         -0.0240    0.0050    2.4070 ca        1 0PY     -0.093000
      5 C2          1.3720    0.0020    2.3730 ca        1 0PY     -0.246300
      6 C1          2.0110   -0.0010    1.1190 ca        1 0PY      0.393200
      7 H5         -0.5150    0.0020   -0.9770 h4        1 0PY      0.021100
      8 H4         -1.8250    0.0080    1.1850 ha        1 0PY      0.143000
      9 H3         -0.5590    0.0080    3.3670 ha        1 0PY      0.137000
     10 H2          1.9620    0.0020    3.2980 ha        1 0PY      0.143000
     11 H1          3.1140   -0.0040    1.0470 h4        1 0PY      0.021100
@<TRIPOS>BOND
     1    1    2 ar  
     2    1    3 ar  
     3    1    7 1   
     4    2    6 ar  
     5    3    4 ar  
     6    3    8 1   
     7    4    5 ar  
     8    4    9 1   
     9    5    6 ar  
    10    5   10 1   
    11    6   11 1   
@<TRIPOS>SUBSTRUCTURE
     1 0PY         1 TEMP              0 ****  ****    0 ROOT
