@<TRIPOS>MOLECULE
0PZ
   19    19     1     0     0
SMALL
bcc


@<TRIPOS>ATOM
      1 C1          3.4980   -0.3860    0.0120 c3        1 0PZ     -0.093100
      2 C2          2.2710    0.4500    0.2730 c3        1 0PZ     -0.079400
      3 C3          1.0260   -0.2070   -0.2850 c3        1 0PZ     -0.077400
      4 C4         -0.2020    0.6410   -0.0260 c3        1 0PZ     -0.075400
      5 C5         -1.4380   -0.0070   -0.5690 cx        1 0PZ      0.063100
      6 O          -2.1810   -0.8350    0.3470 os        1 0PZ     -0.407600
      7 C6         -2.7860    0.3930   -0.0820 cx        1 0PZ      0.049400
      8 H1          3.3980   -1.3920    0.4860 hc        1 0PZ      0.033700
      9 H2          3.6520   -0.5300   -1.0850 hc        1 0PZ      0.033700
     10 H3          4.4040    0.1140    0.4330 hc        1 0PZ      0.033700
     11 H4          2.1490    0.6050    1.3770 hc        1 0PZ      0.038700
     12 H5          2.3990    1.4630   -0.1920 hc        1 0PZ      0.038700
     13 H6          1.1480   -0.3690   -1.3880 hc        1 0PZ      0.046200
     14 H7          0.8870   -1.2160    0.1860 hc        1 0PZ      0.046200
     15 H8         -0.3150    0.8140    1.0770 hc        1 0PZ      0.053700
     16 H9         -0.0820    1.6430   -0.5180 hc        1 0PZ      0.053700
     17 H10        -1.3260   -0.4540   -1.5780 h1        1 0PZ      0.089700
     18 H11        -2.8950    1.1520    0.7130 h1        1 0PZ      0.076200
     19 H12        -3.6780    0.2660   -0.7220 h1        1 0PZ      0.076200
@<TRIPOS>BOND
     1    1    2 1   
     2    1    8 1   
     3    1    9 1   
     4    1   10 1   
     5    2    3 1   
     6    2   11 1   
     7    2   12 1   
     8    3    4 1   
     9    3   13 1   
    10    3   14 1   
    11    4    5 1   
    12    4   15 1   
    13    4   16 1   
    14    5    6 1   
    15    5    7 1   
    16    5   17 1   
    17    6    7 1   
    18    7   18 1   
    19    7   19 1   
@<TRIPOS>SUBSTRUCTURE
     1 0PZ         1 TEMP              0 ****  ****    0 ROOT
