@<TRIPOS>MOLECULE
0PZ
   19    19     1     0     0
SMALL
bcc


@<TRIPOS>ATOM
      1 C1          0.0250   -0.1310    0.0070 c3        1 0PZ     -0.093100
      2 C2          1.5220    0.0320    0.0240 c3        1 0PZ     -0.079400
      3 C3          2.0640    0.0280    1.4380 c3        1 0PZ     -0.077400
      4 C4          3.5680    0.2000    1.4480 c3        1 0PZ     -0.075400
      5 C5          4.1110    0.1890    2.8440 cx        1 0PZ      0.063100
      6 O           4.5540   -1.0870    3.3470 os        1 0PZ     -0.407600
      7 C6          5.5510   -0.0860    3.1010 cx        1 0PZ      0.049400
      8 H1         -0.2730   -1.0940    0.4870 hc        1 0PZ      0.033700
      9 H2         -0.4690    0.7030    0.5630 hc        1 0PZ      0.033700
     10 H3         -0.3540   -0.1280   -1.0430 hc        1 0PZ      0.033700
     11 H4          1.8030    0.9940   -0.4810 hc        1 0PZ      0.038700
     12 H5          1.9980   -0.7990   -0.5610 hc        1 0PZ      0.038700
     13 H6          1.7970   -0.9380    1.9420 hc        1 0PZ      0.046200
     14 H7          1.5850    0.8540    2.0260 hc        1 0PZ      0.046200
     15 H8          4.0450   -0.6190    0.8470 hc        1 0PZ      0.053700
     16 H9          3.8420    1.1780    0.9690 hc        1 0PZ      0.053700
     17 H10         3.5210    0.7740    3.5780 h1        1 0PZ      0.089700
     18 H11         6.2370   -0.3180    2.2670 h1        1 0PZ      0.076200
     19 H12         6.0460    0.3030    4.0090 h1        1 0PZ      0.076200
@<TRIPOS>BOND
     1    1    2 1   
     2    1    8 1   
     3    1    9 1   
     4    1   10 1   
     5    2    3 1   
     6    2   11 1   
     7    2   12 1   
     8    3    4 1   
     9    3   13 1   
    10    3   14 1   
    11    4    5 1   
    12    4   15 1   
    13    4   16 1   
    14    5    6 1   
    15    5    7 1   
    16    5   17 1   
    17    6    7 1   
    18    7   18 1   
    19    7   19 1   
@<TRIPOS>SUBSTRUCTURE
     1 0PZ         1 TEMP              0 ****  ****    0 ROOT
