@<TRIPOS>MOLECULE
0PZ
   19    19     1     0     0
SMALL
bcc


@<TRIPOS>ATOM
      1 C1          0.0200   -0.1100    0.0150 c3        1 0PZ     -0.093100
      2 C2          1.5220    0.0140    0.0250 c3        1 0PZ     -0.079400
      3 C3          2.0650    0.0450    1.4370 c3        1 0PZ     -0.077400
      4 C4          3.5740    0.1790    1.4400 c3        1 0PZ     -0.075400
      5 C5          4.1180    0.2030    2.8350 cx        1 0PZ      0.063100
      6 O           4.5260   -1.0650    3.3840 os        1 0PZ     -0.407600
      7 C6          5.5500   -0.1020    3.1010 cx        1 0PZ      0.049400
      8 H1         -0.3010   -1.0490    0.5280 hc        1 0PZ      0.033700
      9 H2         -0.4520    0.7550    0.5410 hc        1 0PZ      0.033700
     10 H3         -0.3600   -0.1340   -1.0350 hc        1 0PZ      0.033700
     11 H4          1.8260    0.9500   -0.5140 hc        1 0PZ      0.038700
     12 H5          1.9750   -0.8490   -0.5310 hc        1 0PZ      0.038700
     13 H6          1.6080    0.9040    1.9970 hc        1 0PZ      0.046200
     14 H7          1.7740   -0.8950    1.9760 hc        1 0PZ      0.046200
     15 H8          4.0280   -0.6730    0.8680 hc        1 0PZ      0.053700
     16 H9          3.8720    1.1320    0.9260 hc        1 0PZ      0.053700
     17 H10         3.5460    0.8300    3.5480 h1        1 0PZ      0.089700
     18 H11         6.0580    0.3050    3.9940 h1        1 0PZ      0.076200
     19 H12         6.2280   -0.3840    2.2750 h1        1 0PZ      0.076200
@<TRIPOS>BOND
     1    1    2 1   
     2    1    8 1   
     3    1    9 1   
     4    1   10 1   
     5    2    3 1   
     6    2   11 1   
     7    2   12 1   
     8    3    4 1   
     9    3   13 1   
    10    3   14 1   
    11    4    5 1   
    12    4   15 1   
    13    4   16 1   
    14    5    6 1   
    15    5    7 1   
    16    5   17 1   
    17    6    7 1   
    18    7   18 1   
    19    7   19 1   
@<TRIPOS>SUBSTRUCTURE
     1 0PZ         1 TEMP              0 ****  ****    0 ROOT
