@<TRIPOS>MOLECULE
0PZ
   19    19     1     0     0
SMALL
bcc


@<TRIPOS>ATOM
      1 C1          0.0260   -0.1440    0.0060 c3        1 0PZ     -0.093100
      2 C2          1.5240    0.0160    0.0230 c3        1 0PZ     -0.079400
      3 C3          2.0640    0.0290    1.4370 c3        1 0PZ     -0.077400
      4 C4          3.5690    0.1990    1.4460 c3        1 0PZ     -0.075400
      5 C5          4.1100    0.2050    2.8430 cx        1 0PZ      0.063100
      6 O           4.5500   -1.0650    3.3630 os        1 0PZ     -0.407600
      7 C6          5.5490   -0.0690    3.1050 cx        1 0PZ      0.049400
      8 H1         -0.3520   -0.1540   -1.0440 hc        1 0PZ      0.033700
      9 H2         -0.2740   -1.1000    0.4990 hc        1 0PZ      0.033700
     10 H3         -0.4670    0.6990    0.5500 hc        1 0PZ      0.033700
     11 H4          1.9980   -0.8250   -0.5500 hc        1 0PZ      0.038700
     12 H5          1.8070    0.9700   -0.4950 hc        1 0PZ      0.038700
     13 H6          1.5860    0.8640    2.0140 hc        1 0PZ      0.046200
     14 H7          1.7940   -0.9290    1.9540 hc        1 0PZ      0.046200
     15 H8          4.0440   -0.6300    0.8560 hc        1 0PZ      0.053700
     16 H9          3.8450    1.1690    0.9540 hc        1 0PZ      0.053700
     17 H10         3.5200    0.8000    3.5690 h1        1 0PZ      0.089700
     18 H11         6.2360   -0.3140    2.2740 h1        1 0PZ      0.076200
     19 H12         6.0440    0.3310    4.0080 h1        1 0PZ      0.076200
@<TRIPOS>BOND
     1    1    2 1   
     2    1    8 1   
     3    1    9 1   
     4    1   10 1   
     5    2    3 1   
     6    2   11 1   
     7    2   12 1   
     8    3    4 1   
     9    3   13 1   
    10    3   14 1   
    11    4    5 1   
    12    4   15 1   
    13    4   16 1   
    14    5    6 1   
    15    5    7 1   
    16    5   17 1   
    17    6    7 1   
    18    7   18 1   
    19    7   19 1   
@<TRIPOS>SUBSTRUCTURE
     1 0PZ         1 TEMP              0 ****  ****    0 ROOT
