@<TRIPOS>MOLECULE
0Q1
   42    45     1     0     0
SMALL
bcc


@<TRIPOS>ATOM
      1 CAU         0.1860    0.5720    0.2590 c3        1 0Q1     -0.141400
      2 CAT         1.5490    0.1300   -0.0260 cc        1 0Q1      0.275000
      3 OAV         2.4020   -0.0530    1.0860 os        1 0Q1     -0.120100
      4 NAW         3.5940   -0.4480    0.6850 nc        1 0Q1     -0.367300
      5 CAB         3.6040   -0.5520   -0.6590 cd        1 0Q1      0.337600
      6 CAA         4.7580   -0.9610   -1.4820 c3        1 0Q1     -0.136400
      7 CAC         2.2730   -0.1810   -1.1690 cd        1 0Q1     -0.269600
      8 CAD         1.8360   -0.1450   -2.5420 ca        1 0Q1     -0.013000
      9 CAR         2.2630   -1.1330   -3.4520 ca        1 0Q1     -0.074000
     10 CAQ         1.8230   -1.0710   -4.7620 ca        1 0Q1     -0.075300
     11 CAE         0.9700    0.8690   -2.9740 ca        1 0Q1     -0.116000
     12 CAF         0.5200    0.9210   -4.2970 ca        1 0Q1     -0.123000
     13 CAG         0.9450   -0.0510   -5.1900 ca        1 0Q1     -0.075300
     14 CAH         0.5890   -0.2050   -6.6290 c3        1 0Q1     -0.034100
     15 CAI         1.2500   -1.5130   -7.0770 c3        1 0Q1     -0.107400
     16 CAJ         2.1520   -2.0070   -5.9060 c3        1 0Q1      0.246400
     17 OAS         1.7650   -3.3200   -5.5110 oh        1 0Q1     -0.582800
     18 CAK         3.6160   -1.9510   -6.2620 ca        1 0Q1     -0.112300
     19 CAL         4.4670   -3.0190   -5.9560 ca        1 0Q1     -0.118500
     20 CAM         5.8200   -2.9580   -6.2860 ca        1 0Q1     -0.131000
     21 CAN         6.3370   -1.8280   -6.9180 ca        1 0Q1     -0.125000
     22 CAO         5.4970   -0.7550   -7.2150 ca        1 0Q1     -0.131000
     23 CAP         4.1430   -0.8150   -6.8890 ca        1 0Q1     -0.118500
     24 H1         -0.4980    0.2440   -0.5630 hc        1 0Q1      0.066700
     25 H2         -0.1710    0.1470    1.2300 hc        1 0Q1      0.066700
     26 H3          0.1540    1.6900    0.3300 hc        1 0Q1      0.066700
     27 H4          5.7260   -0.6680   -1.0030 hc        1 0Q1      0.060367
     28 H5          4.7530   -2.0730   -1.6150 hc        1 0Q1      0.060367
     29 H6          4.6920   -0.4790   -2.4890 hc        1 0Q1      0.060367
     30 H7          2.9250   -1.9470   -3.1210 ha        1 0Q1      0.149000
     31 H8          0.6390    1.6370   -2.2580 ha        1 0Q1      0.133000
     32 H9         -0.1620    1.7210   -4.6180 ha        1 0Q1      0.136000
     33 H10         0.9740    0.6610   -7.2250 hc        1 0Q1      0.057200
     34 H11        -0.5210   -0.2480   -6.7660 hc        1 0Q1      0.057200
     35 H12         1.8500   -1.3610   -8.0060 hc        1 0Q1      0.057700
     36 H13         0.4710   -2.2880   -7.2860 hc        1 0Q1      0.057700
     37 H14         1.9130   -3.8910   -6.2760 ho        1 0Q1      0.404000
     38 H15         4.0670   -3.9070   -5.4410 ha        1 0Q1      0.139500
     39 H16         6.4800   -3.8040   -6.0440 ha        1 0Q1      0.133000
     40 H17         7.4040   -1.7810   -7.1790 ha        1 0Q1      0.133000
     41 H18         5.9020    0.1420   -7.7070 ha        1 0Q1      0.133000
     42 H19         3.4840    0.0380   -7.1150 ha        1 0Q1      0.139500
@<TRIPOS>BOND
     1    1    2 1   
     2    1   24 1   
     3    1   25 1   
     4    1   26 1   
     5    2    3 1   
     6    2    7 2   
     7    3    4 1   
     8    4    5 2   
     9    5    6 1   
    10    5    7 1   
    11    6   27 1   
    12    6   28 1   
    13    6   29 1   
    14    7    8 1   
    15    8    9 ar  
    16    8   11 ar  
    17    9   10 ar  
    18    9   30 1   
    19   10   13 ar  
    20   10   16 1   
    21   11   12 ar  
    22   11   31 1   
    23   12   13 ar  
    24   12   32 1   
    25   13   14 1   
    26   14   15 1   
    27   14   33 1   
    28   14   34 1   
    29   15   16 1   
    30   15   35 1   
    31   15   36 1   
    32   16   17 1   
    33   16   18 1   
    34   17   37 1   
    35   18   19 ar  
    36   18   23 ar  
    37   19   20 ar  
    38   19   38 1   
    39   20   21 ar  
    40   20   39 1   
    41   21   22 ar  
    42   21   40 1   
    43   22   23 ar  
    44   22   41 1   
    45   23   42 1   
@<TRIPOS>SUBSTRUCTURE
     1 0Q1         1 TEMP              0 ****  ****    0 ROOT
