@<TRIPOS>MOLECULE
0Q1
   42    45     1     0     0
SMALL
bcc


@<TRIPOS>ATOM
      1 CAU         0.1670    0.5440    0.2370 c3        1 0Q1     -0.141400
      2 CAT         1.5440    0.1510   -0.0550 cc        1 0Q1      0.276000
      3 OAV         2.4100    0.0070    1.0530 os        1 0Q1     -0.119100
      4 NAW         3.6140   -0.3440    0.6460 nc        1 0Q1     -0.365300
      5 CAB         3.6190   -0.4570   -0.6980 cd        1 0Q1      0.338600
      6 CAA         4.7840   -0.8250   -1.5240 c3        1 0Q1     -0.137400
      7 CAC         2.2720   -0.1400   -1.2000 cd        1 0Q1     -0.272600
      8 CAD         1.8240   -0.1310   -2.5700 ca        1 0Q1     -0.013000
      9 CAR         2.2900   -1.1010   -3.4800 ca        1 0Q1     -0.077000
     10 CAQ         1.8390   -1.0670   -4.7880 ca        1 0Q1     -0.132300
     11 CAE         0.9110    0.8420   -3.0020 ca        1 0Q1     -0.114000
     12 CAF         0.4550    0.8700   -4.3230 ca        1 0Q1     -0.124000
     13 CAG         0.9190   -0.0850   -5.2140 ca        1 0Q1     -0.075300
     14 CAH         0.5700   -0.2530   -6.6540 c3        1 0Q1     -0.042100
     15 CAI         1.3510   -1.4830   -7.1270 c3        1 0Q1     -0.108400
     16 CAJ         2.1940   -2.0060   -5.9240 c3        1 0Q1      0.253400
     17 OAS         1.8230   -3.3480   -5.6180 oh        1 0Q1     -0.590800
     18 CAK         3.6660   -1.9930   -6.2350 ca        1 0Q1     -0.077300
     19 CAL         4.4320   -3.1620   -6.1740 ca        1 0Q1     -0.110500
     20 CAM         5.7940   -3.1230   -6.4730 ca        1 0Q1     -0.136000
     21 CAN         6.4000   -1.9200   -6.8330 ca        1 0Q1     -0.126000
     22 CAO         5.6390   -0.7520   -6.8950 ca        1 0Q1     -0.136000
     23 CAP         4.2790   -0.7870   -6.5990 ca        1 0Q1     -0.110500
     24 H1         -0.1650    0.1190    1.2180 hc        1 0Q1      0.066700
     25 H2          0.0940    1.6610    0.2940 hc        1 0Q1      0.066700
     26 H3         -0.5120    0.1800   -0.5740 hc        1 0Q1      0.066700
     27 H4          4.8190   -1.9360   -1.6550 hc        1 0Q1      0.062033
     28 H5          5.7430   -0.4960   -1.0500 hc        1 0Q1      0.062033
     29 H6          4.6970   -0.3470   -2.5320 hc        1 0Q1      0.062033
     30 H7          2.9960   -1.8780   -3.1510 ha        1 0Q1      0.151000
     31 H8          0.5500    1.5980   -2.2870 ha        1 0Q1      0.134000
     32 H9         -0.2610    1.6410   -4.6450 ha        1 0Q1      0.137000
     33 H10         0.8630    0.6560   -7.2390 hc        1 0Q1      0.057700
     34 H11        -0.5320   -0.3990   -6.7830 hc        1 0Q1      0.057700
     35 H12         2.0210   -1.2190   -7.9800 hc        1 0Q1      0.062700
     36 H13         0.6570   -2.2890   -7.4700 hc        1 0Q1      0.062700
     37 H14         0.9120   -3.3180   -5.3030 ho        1 0Q1      0.409000
     38 H15         3.9550   -4.1140   -5.8910 ha        1 0Q1      0.144500
     39 H16         6.3890   -4.0460   -6.4230 ha        1 0Q1      0.131500
     40 H17         7.4730   -1.8910   -7.0680 ha        1 0Q1      0.131000
     41 H18         6.1130    0.1990   -7.1780 ha        1 0Q1      0.131500
     42 H19         3.6790    0.1350   -6.6460 ha        1 0Q1      0.144500
@<TRIPOS>BOND
     1    1    2 1   
     2    1   24 1   
     3    1   25 1   
     4    1   26 1   
     5    2    3 1   
     6    2    7 2   
     7    3    4 1   
     8    4    5 2   
     9    5    6 1   
    10    5    7 1   
    11    6   27 1   
    12    6   28 1   
    13    6   29 1   
    14    7    8 1   
    15    8    9 ar  
    16    8   11 ar  
    17    9   10 ar  
    18    9   30 1   
    19   10   13 ar  
    20   10   16 1   
    21   11   12 ar  
    22   11   31 1   
    23   12   13 ar  
    24   12   32 1   
    25   13   14 1   
    26   14   15 1   
    27   14   33 1   
    28   14   34 1   
    29   15   16 1   
    30   15   35 1   
    31   15   36 1   
    32   16   17 1   
    33   16   18 1   
    34   17   37 1   
    35   18   19 ar  
    36   18   23 ar  
    37   19   20 ar  
    38   19   38 1   
    39   20   21 ar  
    40   20   39 1   
    41   21   22 ar  
    42   21   40 1   
    43   22   23 ar  
    44   22   41 1   
    45   23   42 1   
@<TRIPOS>SUBSTRUCTURE
     1 0Q1         1 TEMP              0 ****  ****    0 ROOT
