@<TRIPOS>MOLECULE
0Q1
   42    45     1     0     0
SMALL
bcc


@<TRIPOS>ATOM
      1 CAU         4.7930    1.4120    0.2700 c3        1 0Q1     -0.141400
      2 CAT         4.0760    0.1390    0.3080 cc        1 0Q1      0.275000
      3 OAV         4.8450   -1.0140    0.5910 os        1 0Q1     -0.120100
      4 NAW         4.0760   -2.0840    0.5910 nc        1 0Q1     -0.367300
      5 CAB         2.8030   -1.7230    0.3270 cd        1 0Q1      0.337600
      6 CAA         1.6510   -2.6390    0.2360 c3        1 0Q1     -0.136400
      7 CAC         2.7600   -0.2640    0.1350 cd        1 0Q1     -0.269600
      8 CAD         1.6090    0.5490   -0.1700 ca        1 0Q1     -0.013000
      9 CAR         0.3590    0.2650    0.4180 ca        1 0Q1     -0.074000
     10 CAQ        -0.7250    1.0660    0.1070 ca        1 0Q1     -0.075300
     11 CAE         1.7320    1.6360   -1.0460 ca        1 0Q1     -0.116000
     12 CAF         0.6350    2.4480   -1.3510 ca        1 0Q1     -0.123000
     13 CAG        -0.5920    2.1640   -0.7720 ca        1 0Q1     -0.075300
     14 CAH        -1.8830    2.8920   -0.9330 c3        1 0Q1     -0.034100
     15 CAI        -2.8620    2.2100    0.0280 c3        1 0Q1     -0.107400
     16 CAJ        -2.1490    0.9500    0.6060 c3        1 0Q1      0.246400
     17 OAS        -2.1120    1.0200    2.0280 oh        1 0Q1     -0.582800
     18 CAK        -2.7970   -0.3270    0.1360 ca        1 0Q1     -0.112300
     19 CAL        -3.0500   -1.3710    1.0330 ca        1 0Q1     -0.118500
     20 CAM        -3.6470   -2.5510    0.5900 ca        1 0Q1     -0.131000
     21 CAN        -3.9900   -2.7010   -0.7530 ca        1 0Q1     -0.125000
     22 CAO        -3.7290   -1.6690   -1.6550 ca        1 0Q1     -0.131000
     23 CAP        -3.1350   -0.4880   -1.2140 ca        1 0Q1     -0.118500
     24 H1          5.6350    1.4130    1.0080 hc        1 0Q1      0.066700
     25 H2          5.2200    1.5790   -0.7530 hc        1 0Q1      0.066700
     26 H3          4.0910    2.2500    0.5080 hc        1 0Q1      0.066700
     27 H4          1.1780   -2.7520    1.2450 hc        1 0Q1      0.060367
     28 H5          0.8920   -2.2200   -0.4710 hc        1 0Q1      0.060367
     29 H6          1.9600   -3.6520   -0.1240 hc        1 0Q1      0.060367
     30 H7          0.2540   -0.5710    1.1260 ha        1 0Q1      0.149000
     31 H8          2.7100    1.8530   -1.5030 ha        1 0Q1      0.133000
     32 H9          0.7500    3.2990   -2.0370 ha        1 0Q1      0.136000
     33 H10        -1.7660    3.9770   -0.6860 hc        1 0Q1      0.057200
     34 H11        -2.2460    2.8200   -1.9910 hc        1 0Q1      0.057200
     35 H12        -3.1200    2.8990    0.8700 hc        1 0Q1      0.057700
     36 H13        -3.8070    1.9290   -0.4950 hc        1 0Q1      0.057700
     37 H14        -3.0310    1.0180    2.3270 ho        1 0Q1      0.404000
     38 H15        -2.7650   -1.2650    2.0910 ha        1 0Q1      0.139500
     39 H16        -3.8440   -3.3650    1.3030 ha        1 0Q1      0.133000
     40 H17        -4.4610   -3.6320   -1.1020 ha        1 0Q1      0.133000
     41 H18        -3.9910   -1.7860   -2.7170 ha        1 0Q1      0.133000
     42 H19        -2.9210    0.3210   -1.9290 ha        1 0Q1      0.139500
@<TRIPOS>BOND
     1    1    2 1   
     2    1   24 1   
     3    1   25 1   
     4    1   26 1   
     5    2    3 1   
     6    2    7 2   
     7    3    4 1   
     8    4    5 2   
     9    5    6 1   
    10    5    7 1   
    11    6   27 1   
    12    6   28 1   
    13    6   29 1   
    14    7    8 1   
    15    8    9 ar  
    16    8   11 ar  
    17    9   10 ar  
    18    9   30 1   
    19   10   13 ar  
    20   10   16 1   
    21   11   12 ar  
    22   11   31 1   
    23   12   13 ar  
    24   12   32 1   
    25   13   14 1   
    26   14   15 1   
    27   14   33 1   
    28   14   34 1   
    29   15   16 1   
    30   15   35 1   
    31   15   36 1   
    32   16   17 1   
    33   16   18 1   
    34   17   37 1   
    35   18   19 ar  
    36   18   23 ar  
    37   19   20 ar  
    38   19   38 1   
    39   20   21 ar  
    40   20   39 1   
    41   21   22 ar  
    42   21   40 1   
    43   22   23 ar  
    44   22   41 1   
    45   23   42 1   
@<TRIPOS>SUBSTRUCTURE
     1 0Q1         1 TEMP              0 ****  ****    0 ROOT
