@<TRIPOS>MOLECULE
0Q1
   42    37     1     0     0
SMALL
bcc


@<TRIPOS>ATOM
      1 CAU        -0.0910   -3.0270    3.2590 c3        1 0Q1     -0.167000
      2 CAT         1.0690   -2.0650    3.3880 c2        1 0Q1     -0.010000
      3 OAV         1.7720   -1.8140    4.5180 os        1 0Q1     -0.063000
      4 NAW         2.7750   -0.9030    4.2070 n2        1 0Q1     -0.032000
      5 CAB         2.6770   -0.6060    2.8940 c1        1 0Q1     -0.087000
      6 CAA         3.5720    0.3420    2.1290 c2        1 0Q1     -0.159000
      7 CAC         1.6200   -1.3230    2.3730 c1        1 0Q1     -0.141000
      8 CAD         1.1540   -1.3020    0.9310 c1        1 0Q1     -0.013000
      9 CAR         0.0280   -0.5580    0.5720 c1        1 0Q1     -0.078000
     10 CAQ        -0.3920   -0.5290   -0.7540 c1        1 0Q1     -0.068000
     11 CAE         1.8640   -2.0220   -0.0480 c1        1 0Q1     -0.112000
     12 CAF         1.4430   -1.9940   -1.3790 c1        1 0Q1     -0.123000
     13 CAG         0.3230   -1.2550   -1.7390 c2        1 0Q1     -0.068000
     14 CAH        -0.3940   -1.0560   -3.0930 c3        1 0Q1     -0.120000
     15 CAI        -1.5970   -0.2450   -2.8570 c3        1 0Q1     -0.186000
     16 CAJ        -1.6390    0.0870   -1.4240 c2        1 0Q1      0.161000
     17 OAS        -2.8040   -0.4480   -0.8450 oh        1 0Q1     -0.313000
     18 CAK        -1.6250    1.5860   -1.2480 c1        1 0Q1     -0.105000
     19 CAL        -2.6440    2.2110   -0.5500 c1        1 0Q1     -0.126250
     20 CAM        -2.6490    3.5910   -0.4160 c1        1 0Q1     -0.126250
     21 CAN        -1.6330    4.3450   -0.9820 c1        1 0Q1     -0.126250
     22 CAO        -0.6130    3.7200   -1.6810 c1        1 0Q1     -0.126250
     23 CAP        -0.6090    2.3410   -1.8140 c1        1 0Q1     -0.114000
     24 H1         -0.9210   -2.5210    3.1280 hc        1 0Q1      0.108000
     25 H2          0.0570   -3.6150    2.4900 hc        1 0Q1      0.108000
     26 H3         -0.1620   -3.5650    4.0740 hc        1 0Q1      0.108000
     27 H4          4.0350    0.9330    2.7570 ha        1 0Q1      0.098333
     28 H5          4.2310   -0.1730    1.6170 ha        1 0Q1      0.098333
     29 H6          3.0290    0.8790    1.5140 ha        1 0Q1      0.098333
     30 H7         -0.4520   -0.0430    1.2470 ha        1 0Q1      0.146000
     31 H8          2.6410   -2.5550    0.2070 ha        1 0Q1      0.136000
     32 H9          1.9360   -2.4950   -2.0580 ha        1 0Q1      0.136000
     33 H10         0.2010   -0.5910   -3.7160 hc        1 0Q1      0.096500
     34 H11        -0.6480   -1.9250   -3.4630 hc        1 0Q1      0.096500
     35 H12        -1.5360    0.5810   -3.3770 hc        1 0Q1      0.097000
     36 H13        -2.3890   -0.7700   -3.0880 hc        1 0Q1      0.097000
     37 H14        -3.4760   -0.3920   -1.4250 ho        1 0Q1      0.203000
     38 H15        -3.3600    1.6800   -0.1510 ha        1 0Q1      0.135000
     39 H16        -3.3670    4.0310    0.0760 ha        1 0Q1      0.135000
     40 H17        -1.6370    5.3160   -0.8880 ha        1 0Q1      0.135000
     41 H18         0.1020    4.2510   -2.0790 ha        1 0Q1      0.135000
     42 H19         0.1100    1.9000   -2.3070 ha        1 0Q1      0.136000
@<TRIPOS>BOND
     1    1    2 1   
     2    1   24 1   
     3    1   25 1   
     4    1   26 1   
     5    2    3 1   
     6    2    7 1   
     7    3    4 1   
     8    4    5 1   
     9    5    7 1   
    10    6   27 1   
    11    6   28 1   
    12    6   29 1   
    13    8   11 1   
    14    9   10 1   
    15    9   30 1   
    16   10   13 1   
    17   11   31 1   
    18   12   13 1   
    19   12   32 1   
    20   13   14 1   
    21   14   15 1   
    22   14   33 1   
    23   14   34 1   
    24   15   16 1   
    25   15   35 1   
    26   15   36 1   
    27   16   17 1   
    28   16   18 1   
    29   17   37 1   
    30   18   23 1   
    31   19   20 1   
    32   19   38 1   
    33   20   39 1   
    34   21   22 1   
    35   21   40 1   
    36   22   41 1   
    37   23   42 1   
@<TRIPOS>SUBSTRUCTURE
     1 0Q1         1 TEMP              0 ****  ****    0 ROOT
