@<TRIPOS>MOLECULE
0Q1
   42    45     1     0     0
SMALL
bcc


@<TRIPOS>ATOM
      1 CAU         0.1940    0.5190    0.2440 c3        1 0Q1     -0.141400
      2 CAT         1.5690    0.1250   -0.0560 cc        1 0Q1      0.276000
      3 OAV         2.4400   -0.0270    1.0470 os        1 0Q1     -0.119100
      4 NAW         3.6410   -0.3780    0.6330 nc        1 0Q1     -0.365300
      5 CAB         3.6400   -0.4830   -0.7110 cd        1 0Q1      0.338600
      6 CAA         4.8010   -0.8480   -1.5450 c3        1 0Q1     -0.137400
      7 CAC         2.2910   -0.1610   -1.2060 cd        1 0Q1     -0.272600
      8 CAD         1.8370   -0.1430   -2.5740 ca        1 0Q1     -0.013000
      9 CAR         2.2980   -1.1090   -3.4910 ca        1 0Q1     -0.077000
     10 CAQ         1.8410   -1.0680   -4.7970 ca        1 0Q1     -0.132300
     11 CAE         0.9240    0.8330   -2.9960 ca        1 0Q1     -0.114000
     12 CAF         0.4620    0.8690   -4.3150 ca        1 0Q1     -0.124000
     13 CAG         0.9200   -0.0820   -5.2140 ca        1 0Q1     -0.075300
     14 CAH         0.5650   -0.2410   -6.6520 c3        1 0Q1     -0.042100
     15 CAI         1.3420   -1.4700   -7.1360 c3        1 0Q1     -0.108400
     16 CAJ         2.1900   -2.0000   -5.9400 c3        1 0Q1      0.253400
     17 OAS         1.8190   -3.3440   -5.6390 oh        1 0Q1     -0.590800
     18 CAK         3.6610   -1.9880   -6.2570 ca        1 0Q1     -0.077300
     19 CAL         4.4250   -3.1580   -6.2050 ca        1 0Q1     -0.110500
     20 CAM         5.7860   -3.1190   -6.5100 ca        1 0Q1     -0.136000
     21 CAN         6.3910   -1.9150   -6.8670 ca        1 0Q1     -0.126000
     22 CAO         5.6320   -0.7460   -6.9200 ca        1 0Q1     -0.136000
     23 CAP         4.2730   -0.7810   -6.6180 ca        1 0Q1     -0.110500
     24 H1          0.1230    1.6360    0.3070 hc        1 0Q1      0.066700
     25 H2         -0.1340    0.0890    1.2240 hc        1 0Q1      0.066700
     26 H3         -0.4890    0.1600   -0.5650 hc        1 0Q1      0.066700
     27 H4          4.7110   -0.3640   -2.5490 hc        1 0Q1      0.062033
     28 H5          4.8330   -1.9590   -1.6830 hc        1 0Q1      0.062033
     29 H6          5.7620   -0.5240   -1.0730 hc        1 0Q1      0.062033
     30 H7          3.0040   -1.8890   -3.1690 ha        1 0Q1      0.151000
     31 H8          0.5680    1.5860   -2.2750 ha        1 0Q1      0.134000
     32 H9         -0.2540    1.6420   -4.6300 ha        1 0Q1      0.137000
     33 H10        -0.5380   -0.3850   -6.7780 hc        1 0Q1      0.057700
     34 H11         0.8570    0.6700   -7.2340 hc        1 0Q1      0.057700
     35 H12         0.6450   -2.2730   -7.4800 hc        1 0Q1      0.062700
     36 H13         2.0090   -1.2030   -7.9910 hc        1 0Q1      0.062700
     37 H14         0.9090   -3.3140   -5.3200 ho        1 0Q1      0.409000
     38 H15         3.9480   -4.1110   -5.9250 ha        1 0Q1      0.144500
     39 H16         6.3800   -4.0430   -6.4680 ha        1 0Q1      0.131500
     40 H17         7.4640   -1.8870   -7.1060 ha        1 0Q1      0.131000
     41 H18         6.1060    0.2060   -7.2000 ha        1 0Q1      0.131500
     42 H19         3.6740    0.1420   -6.6580 ha        1 0Q1      0.144500
@<TRIPOS>BOND
     1    1    2 1   
     2    1   24 1   
     3    1   25 1   
     4    1   26 1   
     5    2    3 1   
     6    2    7 2   
     7    3    4 1   
     8    4    5 2   
     9    5    6 1   
    10    5    7 1   
    11    6   27 1   
    12    6   28 1   
    13    6   29 1   
    14    7    8 1   
    15    8    9 ar  
    16    8   11 ar  
    17    9   10 ar  
    18    9   30 1   
    19   10   13 ar  
    20   10   16 1   
    21   11   12 ar  
    22   11   31 1   
    23   12   13 ar  
    24   12   32 1   
    25   13   14 1   
    26   14   15 1   
    27   14   33 1   
    28   14   34 1   
    29   15   16 1   
    30   15   35 1   
    31   15   36 1   
    32   16   17 1   
    33   16   18 1   
    34   17   37 1   
    35   18   19 ar  
    36   18   23 ar  
    37   19   20 ar  
    38   19   38 1   
    39   20   21 ar  
    40   20   39 1   
    41   21   22 ar  
    42   21   40 1   
    43   22   23 ar  
    44   22   41 1   
    45   23   42 1   
@<TRIPOS>SUBSTRUCTURE
     1 0Q1         1 TEMP              0 ****  ****    0 ROOT
