@<TRIPOS>MOLECULE
0Q2
   38    41     1     0     0
SMALL
bcc


@<TRIPOS>ATOM
      1 C1          2.3080   -2.8680   -1.3770 c3        1 0Q2     -0.115400
      2 C2          1.1470   -2.2490   -0.6760 cc        1 0Q2      0.415800
      3 N3          0.2750   -2.9570    0.0610 nd        1 0Q2     -0.552100
      4 C4         -0.7450   -2.0580    0.4100 ca        1 0Q2     -0.055900
      5 C5         -1.9340   -2.2900    1.1280 ca        1 0Q2      0.452200
      6 N6         -2.8970   -1.3680    1.2570 nb        1 0Q2     -0.628000
      7 C7         -2.6940   -0.1830    0.6240 ca        1 0Q2      0.552300
      8 C8         -1.5000    0.1900   -0.1140 ca        1 0Q2     -0.235600
      9 C9         -0.4690   -0.7410   -0.1730 ca        1 0Q2     -0.007200
     10 N10         0.7750   -0.8630   -0.8290 na        1 0Q2     -0.164300
     11 C11         1.8140    0.1190   -1.0810 c3        1 0Q2      0.063000
     12 C13         3.0780   -0.0290   -0.2020 c3        1 0Q2     -0.103400
     13 C14         2.9120    0.5080    1.2000 c3        1 0Q2     -0.077400
     14 C15         2.5100    1.9660    1.1790 c3        1 0Q2     -0.113400
     15 C16         1.2300    2.1240    0.3700 c3        1 0Q2      0.131100
     16 C18         1.4010    1.5910   -1.0500 c3        1 0Q2     -0.084400
     17 O19         0.8610    3.4920    0.2320 oh        1 0Q2     -0.605800
     18 C20        -1.7800    1.5270   -0.7310 c3        1 0Q2     -0.140400
     19 C21        -3.1880    1.8040   -0.2140 c2        1 0Q2      0.396200
     20 N22        -3.6880    0.8700    0.5500 ne        1 0Q2     -0.582700
     21 H1          3.0500   -3.2390   -0.6260 hc        1 0Q2      0.064367
     22 H2          1.9490   -3.7440   -1.9760 hc        1 0Q2      0.064367
     23 H3          2.8120   -2.1500   -2.0680 hc        1 0Q2      0.064367
     24 H4         -2.1280   -3.2680    1.6050 h4        1 0Q2      0.042100
     25 H6          2.1380   -0.0960   -2.1510 h1        1 0Q2      0.060700
     26 H7          3.4050   -1.0980   -0.1430 hc        1 0Q2      0.054700
     27 H8          3.8940    0.5410   -0.7230 hc        1 0Q2      0.054700
     28 H9          2.1370   -0.0900    1.7500 hc        1 0Q2      0.053700
     29 H10         3.8790    0.3940    1.7560 hc        1 0Q2      0.053700
     30 H11         2.3440    2.3350    2.2240 hc        1 0Q2      0.051200
     31 H12         3.3230    2.5900    0.7250 hc        1 0Q2      0.051200
     32 H13         0.3980    1.5690    0.8940 h1        1 0Q2      0.050700
     33 H14         2.2150    2.1780   -1.5540 hc        1 0Q2      0.068700
     34 H15         0.4670    1.7560   -1.6440 hc        1 0Q2      0.068700
     35 H16         0.8610    3.8710    1.1190 ho        1 0Q2      0.407000
     36 H17        -1.0960    2.3450   -0.3910 hc        1 0Q2      0.098200
     37 H18        -3.7280    2.7250   -0.4600 h4        1 0Q2      0.046800
     38 H5         -1.7690    1.4760   -1.8480 hc        1 0Q2      0.098200
@<TRIPOS>BOND
     1    1    2 1   
     2    1   21 1   
     3    1   22 1   
     4    1   23 1   
     5    2    3 2   
     6    2   10 1   
     7    3    4 1   
     8    4    5 ar  
     9    4    9 ar  
    10    5    6 ar  
    11    5   24 1   
    12    6    7 ar  
    13    7    8 ar  
    14    7   20 1   
    15    8    9 ar  
    16    8   18 1   
    17    9   10 1   
    18   10   11 1   
    19   11   12 1   
    20   11   16 1   
    21   11   25 1   
    22   12   13 1   
    23   12   26 1   
    24   12   27 1   
    25   13   14 1   
    26   13   28 1   
    27   13   29 1   
    28   14   15 1   
    29   14   30 1   
    30   14   31 1   
    31   15   16 1   
    32   15   17 1   
    33   15   32 1   
    34   16   33 1   
    35   16   34 1   
    36   17   35 1   
    37   18   19 1   
    38   18   36 1   
    39   18   38 1   
    40   19   20 2   
    41   19   37 1   
@<TRIPOS>SUBSTRUCTURE
     1 0Q2         1 TEMP              0 ****  ****    0 ROOT
