@<TRIPOS>MOLECULE
0Q2
   38    41     1     0     0
SMALL
bcc


@<TRIPOS>ATOM
      1 C1          0.0140    1.0990   -0.0230 c3        1 0Q2     -0.115400
      2 C2          1.4010    0.5520    0.0220 cc        1 0Q2      0.415800
      3 N3          2.0950    0.4130    1.1640 nd        1 0Q2     -0.552100
      4 C4          3.3890    0.0300    0.7760 ca        1 0Q2     -0.055900
      5 C5          4.5310   -0.1930    1.5690 ca        1 0Q2      0.452200
      6 N6          5.7470   -0.4060    1.0510 nb        1 0Q2     -0.628000
      7 C7          5.8460   -0.3640   -0.3040 ca        1 0Q2      0.552300
      8 C8          4.7430   -0.1800   -1.2290 ca        1 0Q2     -0.235600
      9 C9          3.4700   -0.0430   -0.6860 ca        1 0Q2     -0.007200
     10 N10         2.1720    0.2490   -1.1590 na        1 0Q2     -0.164300
     11 C11         1.4790   -0.1920   -2.3560 c3        1 0Q2      0.063000
     12 C13         0.3750   -1.2480   -2.1190 c3        1 0Q2     -0.103400
     13 C14         0.9040   -2.6480   -1.9140 c3        1 0Q2     -0.077400
     14 C15         1.7450   -3.0890   -3.0910 c3        1 0Q2     -0.113400
     15 C16         2.8780   -2.0930   -3.3010 c3        1 0Q2      0.131100
     16 C18         2.3430   -0.6800   -3.5190 c3        1 0Q2     -0.084400
     17 O19         3.6430   -2.4050   -4.4600 oh        1 0Q2     -0.605800
     18 C20         5.3460   -0.0810   -2.5980 c3        1 0Q2     -0.140400
     19 C21         6.8260   -0.2670   -2.2840 c2        1 0Q2      0.396200
     20 N22         7.1040   -0.4410   -1.0210 ne        1 0Q2     -0.582700
     21 H1         -0.3260    1.2940   -1.0680 hc        1 0Q2      0.064367
     22 H2         -0.6920    0.3820    0.4670 hc        1 0Q2      0.064367
     23 H3         -0.0170    2.0640    0.5450 hc        1 0Q2      0.064367
     24 H4          4.4660   -0.1800    2.6730 h4        1 0Q2      0.042100
     25 H6          0.9530    0.7480   -2.7260 h1        1 0Q2      0.060700
     26 H7         -0.2660   -0.9710   -1.2440 hc        1 0Q2      0.054700
     27 H8         -0.2810   -1.2300   -3.0310 hc        1 0Q2      0.054700
     28 H9          0.0420   -3.3530   -1.7840 hc        1 0Q2      0.053700
     29 H10         1.5160   -2.6910   -0.9740 hc        1 0Q2      0.053700
     30 H11         2.1700   -4.1080   -2.9000 hc        1 0Q2      0.051200
     31 H12         1.1200   -3.1500   -4.0190 hc        1 0Q2      0.051200
     32 H13         3.5540   -2.1150   -2.3970 h1        1 0Q2      0.050700
     33 H14         1.6960   -0.6840   -4.4380 hc        1 0Q2      0.068700
     34 H15         3.1850    0.0300   -3.7170 hc        1 0Q2      0.068700
     35 H16         3.8930   -3.3340   -4.3880 ho        1 0Q2      0.407000
     36 H17         5.1580    0.9200   -3.0600 hc        1 0Q2      0.098200
     37 H18         7.5920   -0.2630   -3.0680 h4        1 0Q2      0.046800
     38 H5          5.0160   -0.8830   -3.3070 hc        1 0Q2      0.098200
@<TRIPOS>BOND
     1    1    2 1   
     2    1   21 1   
     3    1   22 1   
     4    1   23 1   
     5    2    3 2   
     6    2   10 1   
     7    3    4 1   
     8    4    5 ar  
     9    4    9 ar  
    10    5    6 ar  
    11    5   24 1   
    12    6    7 ar  
    13    7    8 ar  
    14    7   20 1   
    15    8    9 ar  
    16    8   18 1   
    17    9   10 1   
    18   10   11 1   
    19   11   12 1   
    20   11   16 1   
    21   11   25 1   
    22   12   13 1   
    23   12   26 1   
    24   12   27 1   
    25   13   14 1   
    26   13   28 1   
    27   13   29 1   
    28   14   15 1   
    29   14   30 1   
    30   14   31 1   
    31   15   16 1   
    32   15   17 1   
    33   15   32 1   
    34   16   33 1   
    35   16   34 1   
    36   17   35 1   
    37   18   19 1   
    38   18   36 1   
    39   18   38 1   
    40   19   20 2   
    41   19   37 1   
@<TRIPOS>SUBSTRUCTURE
     1 0Q2         1 TEMP              0 ****  ****    0 ROOT
