@<TRIPOS>MOLECULE
0Q2
   38    41     1     0     0
SMALL
bcc


@<TRIPOS>ATOM
      1 C1          0.0180    1.0900   -0.0080 c3        1 0Q2     -0.115400
      2 C2          1.4050    0.5430    0.0320 cc        1 0Q2      0.415800
      3 N3          2.1010    0.3960    1.1710 nd        1 0Q2     -0.552100
      4 C4          3.3940    0.0150    0.7780 ca        1 0Q2     -0.055900
      5 C5          4.5370   -0.2140    1.5680 ca        1 0Q2      0.452200
      6 N6          5.7520   -0.4240    1.0460 nb        1 0Q2     -0.628000
      7 C7          5.8500   -0.3730   -0.3080 ca        1 0Q2      0.552300
      8 C8          4.7440   -0.1820   -1.2300 ca        1 0Q2     -0.235600
      9 C9          3.4730   -0.0490   -0.6850 ca        1 0Q2     -0.007200
     10 N10         2.1740    0.2470   -1.1530 na        1 0Q2     -0.164300
     11 C11         1.4790   -0.1850   -2.3520 c3        1 0Q2      0.063000
     12 C13         0.3750   -1.2420   -2.1210 c3        1 0Q2     -0.103400
     13 C14         0.9040   -2.6440   -1.9250 c3        1 0Q2     -0.077400
     14 C15         1.7430   -3.0780   -3.1070 c3        1 0Q2     -0.113400
     15 C16         2.8760   -2.0800   -3.3120 c3        1 0Q2      0.131100
     16 C18         2.3410   -0.6660   -3.5200 c3        1 0Q2     -0.084400
     17 O19         3.6390   -2.3850   -4.4750 oh        1 0Q2     -0.605800
     18 C20         5.3460   -0.0750   -2.6000 c3        1 0Q2     -0.140400
     19 C21         6.8260   -0.2620   -2.2900 c2        1 0Q2      0.396200
     20 N22         7.1060   -0.4450   -1.0280 ne        1 0Q2     -0.582700
     21 H1         -0.3240    1.2910   -1.0510 hc        1 0Q2      0.064367
     22 H2         -0.0110    2.0520    0.5660 hc        1 0Q2      0.064367
     23 H3         -0.6870    0.3700    0.4780 hc        1 0Q2      0.064367
     24 H4          4.4750   -0.2080    2.6720 h4        1 0Q2      0.042100
     25 H6          0.9530    0.7570   -2.7150 h1        1 0Q2      0.060700
     26 H7         -0.2650   -0.9720   -1.2420 hc        1 0Q2      0.054700
     27 H8         -0.2820   -1.2190   -3.0310 hc        1 0Q2      0.054700
     28 H9          0.0420   -3.3500   -1.7990 hc        1 0Q2      0.053700
     29 H10         1.5180   -2.6940   -0.9870 hc        1 0Q2      0.053700
     30 H11         1.1160   -3.1320   -4.0340 hc        1 0Q2      0.051200
     31 H12         2.1670   -4.0980   -2.9240 hc        1 0Q2      0.051200
     32 H13         3.5530   -2.1090   -2.4090 h1        1 0Q2      0.050700
     33 H14         3.1820    0.0450   -3.7150 hc        1 0Q2      0.068700
     34 H15         1.6930   -0.6630   -4.4380 hc        1 0Q2      0.068700
     35 H16         3.8880   -3.3140   -4.4090 ho        1 0Q2      0.407000
     36 H17         5.0140   -0.8710   -3.3140 hc        1 0Q2      0.098200
     37 H18         7.5910   -0.2540   -3.0740 h4        1 0Q2      0.046800
     38 H5          5.1570    0.9300   -3.0550 hc        1 0Q2      0.098200
@<TRIPOS>BOND
     1    1    2 1   
     2    1   21 1   
     3    1   22 1   
     4    1   23 1   
     5    2    3 2   
     6    2   10 1   
     7    3    4 1   
     8    4    5 ar  
     9    4    9 ar  
    10    5    6 ar  
    11    5   24 1   
    12    6    7 ar  
    13    7    8 ar  
    14    7   20 1   
    15    8    9 ar  
    16    8   18 1   
    17    9   10 1   
    18   10   11 1   
    19   11   12 1   
    20   11   16 1   
    21   11   25 1   
    22   12   13 1   
    23   12   26 1   
    24   12   27 1   
    25   13   14 1   
    26   13   28 1   
    27   13   29 1   
    28   14   15 1   
    29   14   30 1   
    30   14   31 1   
    31   15   16 1   
    32   15   17 1   
    33   15   32 1   
    34   16   33 1   
    35   16   34 1   
    36   17   35 1   
    37   18   19 1   
    38   18   36 1   
    39   18   38 1   
    40   19   20 2   
    41   19   37 1   
@<TRIPOS>SUBSTRUCTURE
     1 0Q2         1 TEMP              0 ****  ****    0 ROOT
