@<TRIPOS>MOLECULE
0Q2
   38    36     1     0     0
SMALL
bcc


@<TRIPOS>ATOM
      1 C1         -3.3300   -0.5870    0.4680 c3        1 0Q2     -0.160000
      2 C2         -1.8030   -0.4050    0.4040 c2        1 0Q2      0.034000
      3 N3         -2.0510   -0.3570    1.7480 n2        1 0Q2     -0.131000
      4 C4         -1.0190    0.3020    2.3450 c1        1 0Q2     -0.118000
      5 C5         -0.7740    0.6790    3.7360 c1        1 0Q2     -0.008000
      6 N6          0.3630    1.4060    4.0730 n1        1 0Q2     -0.102000
      7 C7          1.2490    1.7660    3.1100 c1        1 0Q2      0.010000
      8 C8          1.0050    1.3850    1.6980 c1        1 0Q2     -0.174000
      9 C9         -0.1260    0.6630    1.3660 c1        1 0Q2      0.021000
     10 N10        -0.6140    0.2250    0.1700 n1        1 0Q2     -0.193000
     11 C11        -0.3940    0.4670   -1.2380 c2        1 0Q2      0.050000
     12 C13        -1.3930   -0.3500   -2.0400 c3        1 0Q2     -0.162000
     13 C14        -1.1200   -1.8480   -1.9590 c3        1 0Q2     -0.158000
     14 C15         0.3230   -2.1950   -2.3010 c3        1 0Q2     -0.195000
     15 C16         1.3240   -1.3770   -1.4980 c3        1 0Q2      0.033000
     16 C18         1.0500    0.1190   -1.5800 c3        1 0Q2     -0.175000
     17 O19         2.6290   -1.6330   -1.9950 oh        1 0Q2     -0.324000
     18 C20         2.2070    2.0940    0.8630 c3        1 0Q2     -0.140000
     19 C21         2.9100    2.7370    1.9080 c2        1 0Q2     -0.098000
     20 N22         2.4170    2.5690    3.0670 n2        1 0Q2     -0.069000
     21 H1         -3.5720   -1.0350    1.3090 hc        1 0Q2      0.104000
     22 H2         -3.7670    0.2940    0.4270 hc        1 0Q2      0.104000
     23 H3         -3.6270   -1.1350   -0.2920 hc        1 0Q2      0.104000
     24 H4         -1.4150    0.4220    4.4330 ha        1 0Q2      0.179000
     25 H6         -0.5430    1.4230   -1.4240 ha        1 0Q2      0.100000
     26 H7         -1.3500   -0.0690   -2.9840 hc        1 0Q2      0.095500
     27 H8         -2.2960   -0.1730   -1.6970 hc        1 0Q2      0.095500
     28 H9         -1.7170   -2.3150   -2.5880 hc        1 0Q2      0.086500
     29 H10        -1.3130   -2.1570   -1.0480 hc        1 0Q2      0.086500
     30 H11         0.4730   -2.0290   -3.2590 hc        1 0Q2      0.091000
     31 H12         0.4730   -3.1510   -2.1160 hc        1 0Q2      0.091000
     32 H13         1.2810   -1.6570   -0.5580 h1        1 0Q2      0.078000
     33 H14         1.2450    0.4290   -2.4940 hc        1 0Q2      0.109000
     34 H15         1.6440    0.5840   -0.9540 hc        1 0Q2      0.109000
     35 H16         3.0620   -2.1730   -1.4310 ho        1 0Q2      0.202000
     36 H17         1.9790    2.7260    0.1460 hc        1 0Q2      0.124500
     37 H18         3.8650    2.9390    1.8050 h4        1 0Q2      0.175000
     38 H5          2.7260    1.4160    0.3810 hc        1 0Q2      0.124500
@<TRIPOS>BOND
     1    1    2 1   
     2    1   21 1   
     3    1   22 1   
     4    1   23 1   
     5    2    3 1   
     6    2   10 1   
     7    3    4 1   
     8    4    9 1   
     9    5    6 1   
    10    5   24 1   
    11    7    8 1   
    12    7   20 1   
    13    8   18 1   
    14   11   12 1   
    15   11   16 1   
    16   11   25 1   
    17   12   13 1   
    18   12   26 1   
    19   12   27 1   
    20   13   14 1   
    21   13   28 1   
    22   13   29 1   
    23   14   15 1   
    24   14   30 1   
    25   14   31 1   
    26   15   16 1   
    27   15   17 1   
    28   15   32 1   
    29   16   33 1   
    30   16   34 1   
    31   17   35 1   
    32   18   19 1   
    33   18   36 1   
    34   18   38 1   
    35   19   20 1   
    36   19   37 1   
@<TRIPOS>SUBSTRUCTURE
     1 0Q2         1 TEMP              0 ****  ****    0 ROOT
