@<TRIPOS>MOLECULE
0Q2
   38    41     1     0     0
SMALL
bcc


@<TRIPOS>ATOM
      1 C1          0.0040    1.0890   -0.0300 c3        1 0Q2     -0.115400
      2 C2          1.3930    0.5480    0.0190 cc        1 0Q2      0.415800
      3 N3          2.0860    0.4130    1.1610 nd        1 0Q2     -0.552100
      4 C4          3.3820    0.0360    0.7760 ca        1 0Q2     -0.055900
      5 C5          4.5230   -0.1810    1.5720 ca        1 0Q2      0.452200
      6 N6          5.7410   -0.3900    1.0550 nb        1 0Q2     -0.628000
      7 C7          5.8430   -0.3490   -0.2990 ca        1 0Q2      0.552300
      8 C8          4.7390   -0.1710   -1.2260 ca        1 0Q2     -0.235600
      9 C9          3.4660   -0.0400   -0.6860 ca        1 0Q2     -0.007200
     10 N10         2.1670    0.2460   -1.1610 na        1 0Q2     -0.164300
     11 C11         1.4780   -0.1990   -2.3590 c3        1 0Q2      0.063000
     12 C13         0.3780   -1.2590   -2.1230 c3        1 0Q2     -0.103400
     13 C14         0.9130   -2.6570   -1.9150 c3        1 0Q2     -0.077400
     14 C15         1.7570   -3.0950   -3.0900 c3        1 0Q2     -0.113400
     15 C16         2.8860   -2.0950   -3.3000 c3        1 0Q2      0.131100
     16 C18         2.3460   -0.6850   -3.5200 c3        1 0Q2     -0.084400
     17 O19         3.6550   -2.4050   -4.4570 oh        1 0Q2     -0.605800
     18 C20         5.3450   -0.0720   -2.5950 c3        1 0Q2     -0.140400
     19 C21         6.8250   -0.2500   -2.2780 c2        1 0Q2      0.396200
     20 N22         7.1020   -0.4220   -1.0140 ne        1 0Q2     -0.582700
     21 H1         -0.0320    2.0550    0.5360 hc        1 0Q2      0.064367
     22 H2         -0.7000    0.3690    0.4600 hc        1 0Q2      0.064367
     23 H3         -0.3360    1.2800   -1.0760 hc        1 0Q2      0.064367
     24 H4          4.4570   -0.1670    2.6750 h4        1 0Q2      0.042100
     25 H6          0.9480    0.7390   -2.7310 h1        1 0Q2      0.060700
     26 H7         -0.2660   -0.9840   -1.2480 hc        1 0Q2      0.054700
     27 H8         -0.2770   -1.2450   -3.0360 hc        1 0Q2      0.054700
     28 H9          1.5230   -2.6960   -0.9740 hc        1 0Q2      0.053700
     29 H10         0.0530   -3.3650   -1.7850 hc        1 0Q2      0.053700
     30 H11         1.1340   -3.1600   -4.0190 hc        1 0Q2      0.051200
     31 H12         2.1860   -4.1130   -2.8970 hc        1 0Q2      0.051200
     32 H13         3.5610   -2.1130   -2.3940 h1        1 0Q2      0.050700
     33 H14         3.1840    0.0290   -3.7170 hc        1 0Q2      0.068700
     34 H15         1.7010   -0.6920   -4.4400 hc        1 0Q2      0.068700
     35 H16         3.9080   -3.3320   -4.3840 ho        1 0Q2      0.407000
     36 H17         5.1530    0.9280   -3.0580 hc        1 0Q2      0.098200
     37 H18         7.5920   -0.2440   -3.0600 h4        1 0Q2      0.046800
     38 H5          5.0200   -0.8760   -3.3030 hc        1 0Q2      0.098200
@<TRIPOS>BOND
     1    1    2 1   
     2    1   21 1   
     3    1   22 1   
     4    1   23 1   
     5    2    3 2   
     6    2   10 1   
     7    3    4 1   
     8    4    5 ar  
     9    4    9 ar  
    10    5    6 ar  
    11    5   24 1   
    12    6    7 ar  
    13    7    8 ar  
    14    7   20 1   
    15    8    9 ar  
    16    8   18 1   
    17    9   10 1   
    18   10   11 1   
    19   11   12 1   
    20   11   16 1   
    21   11   25 1   
    22   12   13 1   
    23   12   26 1   
    24   12   27 1   
    25   13   14 1   
    26   13   28 1   
    27   13   29 1   
    28   14   15 1   
    29   14   30 1   
    30   14   31 1   
    31   15   16 1   
    32   15   17 1   
    33   15   32 1   
    34   16   33 1   
    35   16   34 1   
    36   17   35 1   
    37   18   19 1   
    38   18   36 1   
    39   18   38 1   
    40   19   20 2   
    41   19   37 1   
@<TRIPOS>SUBSTRUCTURE
     1 0Q2         1 TEMP              0 ****  ****    0 ROOT
