@<TRIPOS>MOLECULE
0Q5
   92    95     1     0     0
SMALL
bcc


@<TRIPOS>ATOM
      1 O4          1.7130   -1.9800   -1.3340 o         1 0Q5     -0.627100
      2 C27         2.5550   -1.1800   -0.8680 c         1 0Q5      0.678700
      3 N3          2.5190   -0.7790    0.4530 n         1 0Q5     -0.429800
      4 C36         1.6070   -1.4260    1.3800 c3        1 0Q5      0.077000
      5 C35         2.2850   -2.4360    2.3080 c3        1 0Q5     -0.062100
      6 C30         3.6100   -1.9730    2.8020 ca        1 0Q5     -0.070300
      7 C31         4.2210   -2.6450    3.8670 ca        1 0Q5     -0.123000
      8 C32         5.4700   -2.2420    4.3320 ca        1 0Q5     -0.114000
      9 C33         6.1230   -1.1620    3.7360 ca        1 0Q5     -0.122000
     10 C34         5.5230   -0.4860    2.6750 ca        1 0Q5     -0.121000
     11 C29         4.2680   -0.8870    2.2060 ca        1 0Q5     -0.121300
     12 C28         3.6320   -0.1070    1.0910 c3        1 0Q5      0.129300
     13 C           3.5960   -0.6120   -1.7860 ca        1 0Q5     -0.128600
     14 C5          3.3760    0.5680   -2.5180 ca        1 0Q5      0.121000
     15 C6          2.1100    1.2600   -2.4950 cc        1 0Q5     -0.278300
     16 C8          1.6900    2.3330   -1.6800 cd        1 0Q5     -0.028600
     17 C9          2.4550    3.0540   -0.6390 c3        1 0Q5     -0.027100
     18 C10         3.2950    4.1670   -1.2390 c3        1 0Q5     -0.076400
     19 C11         4.1180    4.8570   -0.1710 c3        1 0Q5     -0.080400
     20 C12         4.9540    5.9660   -0.7550 c3        1 0Q5     -0.094100
     21 N1          0.3770    2.6300   -2.0860 na        1 0Q5      0.176300
     22 C13        -0.4610    3.6430   -1.5160 ca        1 0Q5     -0.009200
     23 C18        -0.7840    3.6040   -0.1460 ca        1 0Q5     -0.114500
     24 C17        -1.5960    4.5980    0.3950 ca        1 0Q5     -0.120500
     25 C16        -2.1010    5.6180   -0.4120 ca        1 0Q5     -0.109000
     26 C15        -1.7960    5.6440   -1.7720 ca        1 0Q5     -0.120500
     27 C14        -0.9810    4.6640   -2.3350 ca        1 0Q5     -0.114500
     28 N          -0.0340    1.8390   -3.0890 nd        1 0Q5     -0.470800
     29 C7          0.9890    0.9880   -3.3800 cc        1 0Q5      0.284600
     30 C19         0.9230   -0.0060   -4.4920 c3        1 0Q5      0.113100
     31 O           1.6390   -1.1970   -4.2210 oh        1 0Q5     -0.656800
     32 C4          4.3930    1.0350   -3.3730 ca        1 0Q5     -0.118000
     33 C3          5.5270    0.2710   -3.6110 ca        1 0Q5     -0.086000
     34 C2          5.6710   -0.9710   -2.9770 ca        1 0Q5     -0.213600
     35 C1          4.7450   -1.3750   -2.0090 ca        1 0Q5     -0.063000
     36 C20         6.7400   -1.9190   -3.3420 c         1 0Q5      0.618700
     37 O1          7.3570   -2.6440   -2.5580 o         1 0Q5     -0.470100
     38 N2          6.9610   -2.0900   -4.7630 n         1 0Q5     -0.731000
     39 S           5.1850   -3.0190   -6.0210 s4        1 0Q5      1.572500
     40 O2          5.0130   -1.8600   -6.7070 o         1 0Q5     -0.414900
     41 O3          5.9940   -4.0050   -6.4860 o         1 0Q5     -0.414900
     42 C21         4.1080   -3.3810   -4.8620 c3        1 0Q5     -0.439100
     43 C22         3.5790   -4.7780   -5.0580 c3        1 0Q5     -0.286400
     44 SI1         2.4800   -5.2790   -3.6100 Si        1 0Q5      0.681000
     45 C26         2.1520   -7.0510   -3.8050 c3        1 0Q5     -0.322767
     46 C25         3.4040   -4.9370   -2.0780 c3        1 0Q5     -0.322767
     47 C24         0.9620   -4.2900   -3.6920 c3        1 0Q5     -0.322767
     48 H1          0.7900   -1.9420    0.8010 h1        1 0Q5      0.075200
     49 H2          1.1410   -0.6080    2.0020 h1        1 0Q5      0.075200
     50 H3          1.5980   -2.6280    3.1750 hc        1 0Q5      0.066700
     51 H4          2.4220   -3.4120    1.7680 hc        1 0Q5      0.066700
     52 H5          3.7050   -3.4960    4.3390 ha        1 0Q5      0.140000
     53 H6          5.9420   -2.7740    5.1730 ha        1 0Q5      0.143000
     54 H7          7.1090   -0.8420    4.1040 ha        1 0Q5      0.142000
     55 H8          6.0350    0.3670    2.2080 ha        1 0Q5      0.132000
     56 H9          3.2330    0.8580    1.5290 h1        1 0Q5      0.064200
     57 H10         4.4160    0.1610    0.3260 h1        1 0Q5      0.064200
     58 H11         1.7640    3.4860    0.1360 hc        1 0Q5      0.065200
     59 H12         3.1230    2.3140   -0.1180 hc        1 0Q5      0.065200
     60 H13         2.6280    4.9150   -1.7420 hc        1 0Q5      0.047700
     61 H14         3.9740    3.7440   -2.0260 hc        1 0Q5      0.047700
     62 H15         4.7830    4.1070    0.3330 hc        1 0Q5      0.041700
     63 H16         3.4350    5.2740    0.6150 hc        1 0Q5      0.041700
     64 H17         5.6590    5.5680   -1.5240 hc        1 0Q5      0.038700
     65 H18         4.3060    6.7370   -1.2390 hc        1 0Q5      0.038700
     66 H19         5.5520    6.4620    0.0480 hc        1 0Q5      0.038700
     67 H20        -0.4110    2.7940    0.4980 ha        1 0Q5      0.149000
     68 H21        -1.8460    4.5690    1.4660 ha        1 0Q5      0.147500
     69 H22        -2.7460    6.3970    0.0240 ha        1 0Q5      0.148000
     70 H23        -2.2020    6.4420   -2.4130 ha        1 0Q5      0.147500
     71 H24        -0.7580    4.6890   -3.4130 ha        1 0Q5      0.149000
     72 H25        -0.1460   -0.2620   -4.7330 h1        1 0Q5      0.067700
     73 H26         1.4190    0.4240   -5.4070 h1        1 0Q5      0.067700
     74 H27         1.2960   -1.5650   -3.3920 ho        1 0Q5      0.441000
     75 H28         4.2620    2.0050   -3.8820 ha        1 0Q5      0.169000
     76 H29         6.3010    0.6510   -4.2970 ha        1 0Q5      0.144000
     77 H30         4.9090   -2.3120   -1.4470 ha        1 0Q5      0.168000
     78 H31         7.7580   -2.6880   -4.9390 hn        1 0Q5      0.313000
     79 H32         4.4920   -3.3030   -3.7950 h1        1 0Q5      0.204200
     80 H33         3.2120   -2.6640   -4.8330 h1        1 0Q5      0.204200
     81 H34         2.9710   -4.8460   -5.9930 hc        1 0Q5      0.082700
     82 H35         4.4180   -5.5160   -5.1310 hc        1 0Q5      0.082700
     83 H36         1.5820   -7.4580   -2.9360 hc        1 0Q5      0.064144
     84 H37         1.5460   -7.2660   -4.7160 hc        1 0Q5      0.064144
     85 H38         3.0900   -7.6480   -3.8860 hc        1 0Q5      0.064144
     86 H39         4.5070   -5.0290   -2.2030 hc        1 0Q5      0.064144
     87 H40         3.1860   -3.9110   -1.6910 hc        1 0Q5      0.064144
     88 H41         3.1120   -5.6520   -1.2710 hc        1 0Q5      0.064144
     89 H42         0.8190   -3.6860   -2.7620 hc        1 0Q5      0.064144
     90 H43         0.9670   -3.5700   -4.5450 hc        1 0Q5      0.064144
     91 H44         0.0540   -4.9290   -3.8090 hc        1 0Q5      0.064144
     92 H221        7.0960   -1.1990   -5.2170 hn        1 0Q5      0.313000
@<TRIPOS>BOND
     1    1    2 2   
     2    2    3 1   
     3    2   13 1   
     4    3    4 1   
     5    3   12 1   
     6    4    5 1   
     7    4   48 1   
     8    4   49 1   
     9    5    6 1   
    10    5   50 1   
    11    5   51 1   
    12    6    7 ar  
    13    6   11 ar  
    14    7    8 ar  
    15    7   52 1   
    16    8    9 ar  
    17    8   53 1   
    18    9   10 ar  
    19    9   54 1   
    20   10   11 ar  
    21   10   55 1   
    22   11   12 1   
    23   12   56 1   
    24   12   57 1   
    25   13   14 ar  
    26   13   35 ar  
    27   14   15 1   
    28   14   32 ar  
    29   15   16 2   
    30   15   29 1   
    31   16   17 1   
    32   16   21 1   
    33   17   18 1   
    34   17   58 1   
    35   17   59 1   
    36   18   19 1   
    37   18   60 1   
    38   18   61 1   
    39   19   20 1   
    40   19   62 1   
    41   19   63 1   
    42   20   64 1   
    43   20   65 1   
    44   20   66 1   
    45   21   22 1   
    46   21   28 1   
    47   22   23 ar  
    48   22   27 ar  
    49   23   24 ar  
    50   23   67 1   
    51   24   25 ar  
    52   24   68 1   
    53   25   26 ar  
    54   25   69 1   
    55   26   27 ar  
    56   26   70 1   
    57   27   71 1   
    58   28   29 2   
    59   29   30 1   
    60   30   31 1   
    61   30   72 1   
    62   30   73 1   
    63   31   74 1   
    64   32   33 ar  
    65   32   75 1   
    66   33   34 ar  
    67   33   76 1   
    68   34   35 ar  
    69   34   36 1   
    70   35   77 1   
    71   36   37 2   
    72   36   38 1   
    73   38   78 1   
    74   38   92 1   
    75   39   40 1   
    76   39   41 1   
    77   39   42 1   
    78   42   43 1   
    79   42   79 1   
    80   42   80 1   
    81   43   44 1   
    82   43   81 1   
    83   43   82 1   
    84   44   45 1   
    85   44   46 1   
    86   44   47 1   
    87   45   83 1   
    88   45   84 1   
    89   45   85 1   
    90   46   86 1   
    91   46   87 1   
    92   46   88 1   
    93   47   89 1   
    94   47   90 1   
    95   47   91 1   
@<TRIPOS>SUBSTRUCTURE
     1 0Q5         1 TEMP              0 ****  ****    0 ROOT
