@<TRIPOS>MOLECULE
0Q5
   92    95     1     0     0
SMALL
bcc


@<TRIPOS>ATOM
      1 O4          1.7060   -1.9740   -1.3290 o         1 0Q5     -0.627100
      2 C27         2.5550   -1.1790   -0.8660 c         1 0Q5      0.678700
      3 N3          2.5300   -0.7810    0.4560 n         1 0Q5     -0.429800
      4 C36         1.6230   -1.4280    1.3880 c3        1 0Q5      0.077000
      5 C35         2.3040   -2.4430    2.3070 c3        1 0Q5     -0.062100
      6 C30         3.6340   -1.9880    2.7920 ca        1 0Q5     -0.070300
      7 C31         4.2510   -2.6670    3.8500 ca        1 0Q5     -0.123000
      8 C32         5.5050   -2.2700    4.3060 ca        1 0Q5     -0.114000
      9 C33         6.1570   -1.1900    3.7090 ca        1 0Q5     -0.122000
     10 C34         5.5520   -0.5090    2.6560 ca        1 0Q5     -0.121000
     11 C29         4.2920   -0.9030    2.1950 ca        1 0Q5     -0.121300
     12 C28         3.6500   -0.1160    1.0880 c3        1 0Q5      0.129300
     13 C           3.5920   -0.6130   -1.7900 ca        1 0Q5     -0.128600
     14 C5          3.3710    0.5700   -2.5180 ca        1 0Q5      0.121000
     15 C6          2.1080    1.2670   -2.4850 cc        1 0Q5     -0.278300
     16 C8          1.6970    2.3390   -1.6650 cd        1 0Q5     -0.028600
     17 C9          2.4710    3.0550   -0.6280 c3        1 0Q5     -0.027100
     18 C10         3.3170    4.1620   -1.2320 c3        1 0Q5     -0.076400
     19 C11         4.1490    4.8470   -0.1680 c3        1 0Q5     -0.080400
     20 C12         4.9910    5.9490   -0.7550 c3        1 0Q5     -0.094100
     21 N1          0.3830    2.6420   -2.0620 na        1 0Q5      0.176300
     22 C13        -0.4480    3.6570   -1.4840 ca        1 0Q5     -0.009200
     23 C18        -0.7610    3.6180   -0.1120 ca        1 0Q5     -0.114500
     24 C17        -1.5660    4.6130    0.4360 ca        1 0Q5     -0.120500
     25 C16        -2.0730    5.6360   -0.3650 ca        1 0Q5     -0.109000
     26 C15        -1.7770    5.6640   -1.7270 ca        1 0Q5     -0.120500
     27 C14        -0.9700    4.6810   -2.2970 ca        1 0Q5     -0.114500
     28 N          -0.0390    1.8550   -3.0630 nd        1 0Q5     -0.470800
     29 C7          0.9800    1.0000   -3.3630 cc        1 0Q5      0.284600
     30 C19         0.9020    0.0100   -4.4770 c3        1 0Q5      0.113100
     31 O           1.6160   -1.1840   -4.2140 oh        1 0Q5     -0.656800
     32 C4          4.3830    1.0360   -3.3790 ca        1 0Q5     -0.118000
     33 C3          5.5140    0.2680   -3.6270 ca        1 0Q5     -0.086000
     34 C2          5.6570   -0.9760   -2.9970 ca        1 0Q5     -0.213600
     35 C1          4.7370   -1.3790   -2.0220 ca        1 0Q5     -0.063000
     36 C20         6.7200   -1.9270   -3.3710 c         1 0Q5      0.618700
     37 O1          7.3400   -2.6560   -2.5930 o         1 0Q5     -0.470100
     38 N2          6.9310   -2.0960   -4.7940 nt        1 0Q5     -0.731000
     39 S           5.1430   -3.0140   -6.0420 s4        1 0Q5      1.572500
     40 O2          4.9700   -1.8530   -6.7230 o         1 0Q5     -0.414900
     41 O3          5.9450   -4.0020   -6.5160 o         1 0Q5     -0.414900
     42 C21         4.0720   -3.3760   -4.8770 c3        1 0Q5     -0.439100
     43 C22         3.5380   -4.7710   -5.0710 c3        1 0Q5     -0.286400
     44 Si1         2.4470   -5.2710   -3.6170 Si        1 0Q5      0.681000
     45 C26         2.1110   -7.0410   -3.8140 c3        1 0Q5     -0.322767
     46 C25         3.3830   -4.9350   -2.0910 c3        1 0Q5     -0.322767
     47 C24         0.9320   -4.2770   -3.6870 c3        1 0Q5     -0.322767
     48 H1          0.7980   -1.9380    0.8140 h1        1 0Q5      0.075200
     49 H2          1.1650   -0.6100    2.0160 h1        1 0Q5      0.075200
     50 H3          2.4330   -3.4180    1.7630 hc        1 0Q5      0.066700
     51 H4          1.6220   -2.6360    3.1780 hc        1 0Q5      0.066700
     52 H5          3.7360   -3.5170    4.3220 ha        1 0Q5      0.140000
     53 H6          5.9810   -2.8070    5.1410 ha        1 0Q5      0.143000
     54 H7          7.1480   -0.8760    4.0710 ha        1 0Q5      0.142000
     55 H8          6.0640    0.3450    2.1870 ha        1 0Q5      0.132000
     56 H9          4.4290    0.1520    0.3180 h1        1 0Q5      0.064200
     57 H10         3.2580    0.8490    1.5320 h1        1 0Q5      0.064200
     58 H11         3.1360    2.3100   -0.1100 hc        1 0Q5      0.065200
     59 H12         1.7870    3.4920    0.1500 hc        1 0Q5      0.065200
     60 H13         2.6530    4.9140   -1.7320 hc        1 0Q5      0.047700
     61 H14         3.9900    3.7340   -2.0220 hc        1 0Q5      0.047700
     62 H15         4.8110    4.0930    0.3350 hc        1 0Q5      0.041700
     63 H16         3.4720    5.2700    0.6210 hc        1 0Q5      0.041700
     64 H17         5.6900    5.5450   -1.5270 hc        1 0Q5      0.038700
     65 H18         5.5950    6.4420    0.0440 hc        1 0Q5      0.038700
     66 H19         4.3470    6.7240   -1.2380 hc        1 0Q5      0.038700
     67 H20        -0.3860    2.8050    0.5290 ha        1 0Q5      0.149000
     68 H21        -1.8080    4.5840    1.5100 ha        1 0Q5      0.147500
     69 H22        -2.7110    6.4170    0.0760 ha        1 0Q5      0.148000
     70 H23        -2.1850    6.4640   -2.3640 ha        1 0Q5      0.147500
     71 H24        -0.7550    4.7070   -3.3770 ha        1 0Q5      0.149000
     72 H25         1.3930    0.4400   -5.3950 h1        1 0Q5      0.067700
     73 H26        -0.1700   -0.2420   -4.7110 h1        1 0Q5      0.067700
     74 H27         1.2770   -1.5530   -3.3830 ho        1 0Q5      0.441000
     75 H28         4.2520    2.0070   -3.8850 ha        1 0Q5      0.169000
     76 H29         6.2830    0.6470   -4.3170 ha        1 0Q5      0.144000
     77 H30         4.9010   -2.3170   -1.4640 ha        1 0Q5      0.168000
     78 H31         7.7250   -2.6950   -4.9760 hn        1 0Q5      0.313000
     79 H32         4.4640   -3.3010   -3.8120 h1        1 0Q5      0.204200
     80 H33         3.1790   -2.6560   -4.8400 h1        1 0Q5      0.204200
     81 H34         4.3740   -5.5110   -5.1520 hc        1 0Q5      0.082700
     82 H35         2.9240   -4.8350   -6.0030 hc        1 0Q5      0.082700
     83 H36         3.0470   -7.6420   -3.8980 hc        1 0Q5      0.064144
     84 H37         1.5020   -7.2530   -4.7240 hc        1 0Q5      0.064144
     85 H38         1.5430   -7.4480   -2.9430 hc        1 0Q5      0.064144
     86 H39         3.0940   -5.6510   -1.2840 hc        1 0Q5      0.064144
     87 H40         4.4850   -5.0300   -2.2230 hc        1 0Q5      0.064144
     88 H41         3.1700   -3.9100   -1.7000 hc        1 0Q5      0.064144
     89 H42         0.7980   -3.6740   -2.7540 hc        1 0Q5      0.064144
     90 H43         0.0210   -4.9120   -3.7990 hc        1 0Q5      0.064144
     91 H44         0.9340   -3.5550   -4.5380 hc        1 0Q5      0.064144
     92 H221        7.0670   -1.2040   -5.2460 hn        1 0Q5      0.313000
@<TRIPOS>BOND
     1    1    2 2   
     2    2    3 1   
     3    2   13 1   
     4    3    4 1   
     5    3   12 1   
     6    4    5 1   
     7    4   48 1   
     8    4   49 1   
     9    5    6 1   
    10    5   50 1   
    11    5   51 1   
    12    6    7 ar  
    13    6   11 ar  
    14    7    8 ar  
    15    7   52 1   
    16    8    9 ar  
    17    8   53 1   
    18    9   10 ar  
    19    9   54 1   
    20   10   11 ar  
    21   10   55 1   
    22   11   12 1   
    23   12   56 1   
    24   12   57 1   
    25   13   14 ar  
    26   13   35 ar  
    27   14   15 1   
    28   14   32 ar  
    29   15   16 2   
    30   15   29 1   
    31   16   17 1   
    32   16   21 1   
    33   17   18 1   
    34   17   58 1   
    35   17   59 1   
    36   18   19 1   
    37   18   60 1   
    38   18   61 1   
    39   19   20 1   
    40   19   62 1   
    41   19   63 1   
    42   20   64 1   
    43   20   65 1   
    44   20   66 1   
    45   21   22 1   
    46   21   28 1   
    47   22   23 ar  
    48   22   27 ar  
    49   23   24 ar  
    50   23   67 1   
    51   24   25 ar  
    52   24   68 1   
    53   25   26 ar  
    54   25   69 1   
    55   26   27 ar  
    56   26   70 1   
    57   27   71 1   
    58   28   29 2   
    59   29   30 1   
    60   30   31 1   
    61   30   72 1   
    62   30   73 1   
    63   31   74 1   
    64   32   33 ar  
    65   32   75 1   
    66   33   34 ar  
    67   33   76 1   
    68   34   35 ar  
    69   34   36 1   
    70   35   77 1   
    71   36   37 2   
    72   36   38 1   
    73   38   78 1   
    74   38   92 1   
    75   39   40 1   
    76   39   41 1   
    77   39   42 1   
    78   42   43 1   
    79   42   79 1   
    80   42   80 1   
    81   43   44 1   
    82   43   81 1   
    83   43   82 1   
    84   44   45 1   
    85   44   46 1   
    86   44   47 1   
    87   45   83 1   
    88   45   84 1   
    89   45   85 1   
    90   46   86 1   
    91   46   87 1   
    92   46   88 1   
    93   47   89 1   
    94   47   90 1   
    95   47   91 1   
@<TRIPOS>SUBSTRUCTURE
     1 0Q5         1 TEMP              0 ****  ****    0 ROOT
