@<TRIPOS>MOLECULE
0Q5
   91    80     1     0     0
SMALL
bcc


@<TRIPOS>ATOM
      1 O4         -3.3740   -0.7440    2.4600 o         1 0Q5     -0.357000
      2 C27        -2.1310   -0.7370    2.4590 c1        1 0Q5      0.354000
      3 N3         -1.4130   -0.7500    3.7010 n3        1 0Q5     -0.310000
      4 C36        -2.0880   -0.7730    4.9100 c3        1 0Q5     -0.032000
      5 C35        -1.7180   -1.8150    5.8370 c3        1 0Q5     -0.148000
      6 C30        -0.2070   -2.2130    5.8570 c1        1 0Q5     -0.059000
      7 C31         0.3370   -3.0550    6.8220 c1        1 0Q5     -0.121625
      8 C32         1.7050   -3.3350    6.8130 c1        1 0Q5     -0.121625
      9 C33         2.5410   -2.7640    5.8230 c1        1 0Q5     -0.121625
     10 C34         1.9980   -1.9160    4.8480 c1        1 0Q5     -0.121625
     11 C29         0.6420   -1.6340    4.8520 c1        1 0Q5     -0.100000
     12 C28        -0.0540   -0.7460    3.7220 c3        1 0Q5      0.011000
     13 C          -1.3500   -0.7060    1.1050 c1        1 0Q5     -0.105000
     14 C5         -1.7440    0.1880    0.0910 c1        1 0Q5      0.064000
     15 C6         -2.9880    1.1370    0.3190 c1        1 0Q5     -0.188000
     16 C8         -2.9350    2.4700    0.5300 c1        1 0Q5     -0.063000
     17 C9         -1.6400    3.3060    0.7600 c2        1 0Q5     -0.108000
     18 C10        -1.4270    4.2570   -0.4300 c3        1 0Q5     -0.156000
     19 C11        -0.4680    5.4010   -0.0110 c3        1 0Q5     -0.159000
     20 C12        -0.2520    6.3740   -1.2150 c3        1 0Q5     -0.211000
     21 N1         -4.2130    2.9530    0.5110 n2        1 0Q5     -0.072500
     22 C13        -4.6040    4.3100    0.7620 c1        1 0Q5      0.064000
     23 C18        -4.9580    5.1360   -0.2970 c1        1 0Q5     -0.121625
     24 C17        -5.4450    6.4060   -0.0490 c1        1 0Q5     -0.121625
     25 C16        -5.5800    6.8560    1.2650 c1        1 0Q5     -0.121625
     26 C15        -5.2260    6.0300    2.3200 c1        1 0Q5     -0.121625
     27 C14        -4.7390    4.7610    2.0700 c1        1 0Q5     -0.128500
     28 N          -5.0620    1.8940    0.2840 n2        1 0Q5     -0.072500
     29 C7         -4.3140    0.7800    0.1660 c1        1 0Q5     -0.063000
     30 C19        -4.8340   -0.6420   -0.1920 c2        1 0Q5      0.041000
     31 O          -6.2650   -0.6150   -0.3340 oh        1 0Q5     -0.318000
     32 C4         -1.1470    0.1250   -1.1630 c1        1 0Q5     -0.128500
     33 C3         -0.1460   -0.8320   -1.4240 c1        1 0Q5     -0.095000
     34 C2          0.2520   -1.7290   -0.4130 c1        1 0Q5     -0.132000
     35 C1         -0.3470   -1.6670    0.8480 c2        1 0Q5     -0.055000
     36 C20         1.4370   -2.7390   -0.6790 c1        1 0Q5      0.374000
     37 O1          1.8280   -3.4570    0.2090 o         1 0Q5     -0.309000
     38 N2          2.1010   -2.7400   -1.9440 n3        1 0Q5     -0.860000
     39 S           3.4710   -3.6730   -2.1660 s4        1 0Q5      2.025800
     40 O2          4.6150   -3.1010   -1.4810 o         1 0Q5     -0.517900
     41 O3          3.3440   -4.9800   -1.4780 o         1 0Q5     -0.517900
     42 C21         3.7990   -3.8820   -3.8930 c2        1 0Q5     -0.834000
     43 C22         5.2830   -4.1220   -4.1040 c3        1 0Q5     -0.497000
     44 SI1         5.8210   -3.3640   -5.7640 Si        1 0Q5      1.254000
     45 C26         7.7080   -3.4450   -5.9070 c3        1 0Q5     -0.572000
     46 C25         5.0610   -4.3230   -7.1590 c3        1 0Q5     -0.572000
     47 C24         5.2430   -1.5460   -5.8540 c3        1 0Q5     -0.572000
     48 H1         -3.0170   -0.8810    4.7160 h1        1 0Q5      0.107500
     49 H2         -1.9190    0.1200    5.3730 h1        1 0Q5      0.107500
     50 H3         -2.2320   -2.6180    5.5990 hc        1 0Q5      0.102500
     51 H4         -1.9510   -1.5100    6.7310 hc        1 0Q5      0.102500
     52 H5         -0.2580   -3.4650    7.5300 ha        1 0Q5      0.138750
     53 H6          2.0930   -3.9290    7.4990 ha        1 0Q5      0.138750
     54 H7          3.4780   -2.9590    5.8180 ha        1 0Q5      0.138750
     55 H8          2.5870   -1.5150    4.1530 ha        1 0Q5      0.138750
     56 H9          0.2450    0.1820    3.8380 h1        1 0Q5      0.099500
     57 H10         0.2610   -1.0600    2.8560 h1        1 0Q5      0.099500
     58 H11        -0.8800    2.7090    0.8350 ha        1 0Q5      0.101000
     59 H12        -1.7300    3.8400    1.6050 ha        1 0Q5      0.101000
     60 H13        -2.2660    4.6280   -0.6950 hc        1 0Q5      0.087500
     61 H14        -1.0190    3.7380   -1.2170 hc        1 0Q5      0.087500
     62 H15        -0.8560    5.8930    0.7410 hc        1 0Q5      0.079500
     63 H16         0.3960    5.0200    0.2600 hc        1 0Q5      0.079500
     64 H17         0.1400    7.1890   -0.9010 hc        1 0Q5      0.074333
     65 H18        -1.0990    6.5650   -1.6290 hc        1 0Q5      0.074333
     66 H19         0.3550    5.9500   -1.8820 hc        1 0Q5      0.074333
     67 H20        -4.8610    4.8140   -1.2270 ha        1 0Q5      0.138750
     68 H21        -5.7070    7.0160   -0.8310 ha        1 0Q5      0.138750
     69 H22        -5.9230    7.7490    1.4410 ha        1 0Q5      0.138750
     70 H23        -5.3220    6.3490    3.2550 ha        1 0Q5      0.138750
     71 H24        -4.4950    4.1940    2.7940 ha        1 0Q5      0.148000
     72 H25        -4.5820   -1.2870    0.5450 h4        1 0Q5      0.113000
     73 H26        -4.4220   -0.9390   -1.0470 h4        1 0Q5      0.113000
     74 H27        -6.5650   -1.4530   -0.5650 ho        1 0Q5      0.209000
     75 H28        -1.4270    0.7550   -1.8750 ha        1 0Q5      0.148000
     76 H29         0.2890   -0.8750   -2.3460 ha        1 0Q5      0.140000
     77 H30        -0.0770   -2.2770    1.5410 ha        1 0Q5      0.167000
     78 H31         1.8490   -2.2020   -2.5570 hn        1 0Q5      0.243000
     79 H32         3.5220   -3.0670   -4.3820 ha        1 0Q5      0.144500
     80 H33         3.3000   -4.6440   -4.2260 ha        1 0Q5      0.144500
     81 H34         5.7820   -3.7120   -3.3870 hc        1 0Q5      0.118000
     82 H35         5.4630   -5.1170   -4.1140 hc        1 0Q5      0.118000
     83 H36         8.1290   -2.9630   -5.1230 hc        1 0Q5      0.089333
     84 H37         7.9870   -4.3660   -5.9050 hc        1 0Q5      0.089333
     85 H38         7.9910   -3.0190   -6.7450 hc        1 0Q5      0.089333
     86 H39         5.4050   -3.9890   -8.0050 hc        1 0Q5      0.089333
     87 H40         4.0490   -4.2150   -7.1370 hc        1 0Q5      0.089333
     88 H41         5.2940   -5.2880   -7.0640 hc        1 0Q5      0.089333
     89 H42         4.3140   -1.5190   -6.0370 hc        1 0Q5      0.089333
     90 H43         5.4160   -1.1170   -5.0230 hc        1 0Q5      0.089333
     91 H44         5.7480   -1.0650   -6.5970 hc        1 0Q5      0.089333
@<TRIPOS>BOND
     1    1    2 1   
     2    2    3 1   
     3    3    4 1   
     4    3   12 1   
     5    4    5 1   
     6    4   48 1   
     7    4   49 1   
     8    5    6 1   
     9    5   50 1   
    10    5   51 1   
    11    6   11 1   
    12    7    8 1   
    13    7   52 1   
    14    8   53 1   
    15    9   10 1   
    16    9   54 1   
    17   10   55 1   
    18   11   12 1   
    19   12   56 1   
    20   12   57 1   
    21   13   35 1   
    22   14   32 1   
    23   15   16 1   
    24   15   29 1   
    25   16   21 1   
    26   17   18 1   
    27   17   58 1   
    28   17   59 1   
    29   18   19 1   
    30   18   60 1   
    31   18   61 1   
    32   19   20 1   
    33   19   62 1   
    34   19   63 1   
    35   20   64 1   
    36   20   65 1   
    37   20   66 1   
    38   21   28 1   
    39   22   27 1   
    40   23   24 1   
    41   23   67 1   
    42   24   68 1   
    43   25   26 1   
    44   25   69 1   
    45   26   70 1   
    46   27   71 1   
    47   28   29 1   
    48   30   31 1   
    49   30   72 1   
    50   30   73 1   
    51   31   74 1   
    52   32   75 1   
    53   33   34 1   
    54   33   76 1   
    55   34   35 1   
    56   35   77 1   
    57   36   37 1   
    58   36   38 1   
    59   38   39 1   
    60   38   78 1   
    61   39   40 1   
    62   39   41 1   
    63   42   43 1   
    64   42   79 1   
    65   42   80 1   
    66   43   44 1   
    67   43   81 1   
    68   43   82 1   
    69   44   45 1   
    70   44   46 1   
    71   44   47 1   
    72   45   83 1   
    73   45   84 1   
    74   45   85 1   
    75   46   86 1   
    76   46   87 1   
    77   46   88 1   
    78   47   89 1   
    79   47   90 1   
    80   47   91 1   
@<TRIPOS>SUBSTRUCTURE
     1 0Q5         1 TEMP              0 ****  ****    0 ROOT
