@<TRIPOS>MOLECULE
0Q5
   92    96     1     0     0
SMALL
bcc


@<TRIPOS>ATOM
      1 O4          1.4760   -1.9430   -1.1320 o         1 0Q5     -0.607100
      2 C27         2.3360   -1.1330   -0.7230 c         1 0Q5      0.675700
      3 N3          2.3610   -0.7030    0.5910 n         1 0Q5     -0.431800
      4 C36         1.5000   -1.3390    1.5720 c3        1 0Q5      0.077000
      5 C35         2.2270   -2.3360    2.4760 c3        1 0Q5     -0.063100
      6 C30         3.5730   -1.8650    2.8960 ca        1 0Q5     -0.068300
      7 C31         4.2400   -2.5220    3.9380 ca        1 0Q5     -0.122000
      8 C32         5.5090   -2.1080    4.3350 ca        1 0Q5     -0.114000
      9 C33         6.1270   -1.0330    3.6940 ca        1 0Q5     -0.124000
     10 C34         5.4730   -0.3740    2.6560 ca        1 0Q5     -0.123000
     11 C29         4.1980   -0.7850    2.2540 ca        1 0Q5     -0.123300
     12 C28         3.5030   -0.0210    1.1630 c3        1 0Q5      0.130300
     13 C           3.3310   -0.5810   -1.7020 ca        1 0Q5     -0.127600
     14 C5          3.0580    0.5650   -2.4700 ca        1 0Q5      0.153000
     15 C6          1.8170    1.2920   -2.3580 cc        1 0Q5     -0.290300
     16 C8          1.5250    2.4100   -1.5440 cd        1 0Q5     -0.030600
     17 C9          2.4210    3.1330   -0.6150 c3        1 0Q5     -0.028100
     18 C10         3.2770    4.1490   -1.3500 c3        1 0Q5     -0.076400
     19 C11         4.2340    4.8370   -0.3980 c3        1 0Q5     -0.081400
     20 C12         5.0880    5.8500   -1.1160 c3        1 0Q5     -0.094100
     21 N1          0.1890    2.7450   -1.8210 na        1 0Q5      0.177300
     22 C13        -0.5460    3.8110   -1.2080 ca        1 0Q5     -0.008200
     23 C18        -0.7200    3.8370    0.1890 ca        1 0Q5     -0.114500
     24 C17        -1.4350    4.8810    0.7710 ca        1 0Q5     -0.120500
     25 C16        -1.9900    5.8870   -0.0190 ca        1 0Q5     -0.110000
     26 C15        -1.8330    5.8500   -1.4040 ca        1 0Q5     -0.120500
     27 C14        -1.1170    4.8180   -2.0080 ca        1 0Q5     -0.114500
     28 N          -0.3550    1.9360   -2.7450 nd        1 0Q5     -0.474800
     29 C7          0.5990    1.0340   -3.1080 cc        1 0Q5      0.299600
     30 C19         0.3760    0.0020   -4.1640 c3        1 0Q5      0.106100
     31 O           1.1920   -1.1390   -3.9990 oh        1 0Q5     -0.628800
     32 C4          4.0150    0.9880   -3.4150 ca        1 0Q5     -0.116000
     33 C3          5.1610    0.2440   -3.6580 ca        1 0Q5     -0.079000
     34 C2          5.3840   -0.9420   -2.9400 ca        1 0Q5     -0.229600
     35 C1          4.4920   -1.3230   -1.9270 ca        1 0Q5     -0.039000
     36 C20         6.5240   -1.8280   -3.1920 c         1 0Q5      0.565700
     37 O1          7.1190   -2.5220   -2.3710 o         1 0Q5     -0.447100
     38 N2          6.9570   -1.9760   -4.6020 n4        1 0Q5     -0.601700
     39 S           5.8640   -3.1440   -5.7670 s6        1 0Q5      1.374900
     40 O2          5.4010   -2.1930   -6.6470 o         1 0Q5     -0.552300
     41 O3          6.8430   -4.0360   -6.1420 o         1 0Q5     -0.552300
     42 C21         4.7680   -3.7120   -4.6680 c3        1 0Q5     -0.350600
     43 C22         3.9390   -4.7670   -5.3540 c3        1 0Q5     -0.295400
     44 SI1         2.7230   -5.5050   -4.1190 Si        1 0Q5      0.677000
     45 C26         1.9940   -6.9620   -4.9160 c3        1 0Q5     -0.320767
     46 C25         3.6710   -5.9720   -2.6350 c3        1 0Q5     -0.320767
     47 C24         1.4780   -4.2450   -3.7360 c3        1 0Q5     -0.320767
     48 H1          1.0650   -0.5130    2.2050 h1        1 0Q5      0.077200
     49 H2          0.6540   -1.8630    1.0420 h1        1 0Q5      0.077200
     50 H3          2.3380   -3.3190    1.9420 hc        1 0Q5      0.068200
     51 H4          1.5850   -2.5180    3.3790 hc        1 0Q5      0.068200
     52 H5          3.7510   -3.3680    4.4450 ha        1 0Q5      0.141000
     53 H6          6.0230   -2.6280    5.1580 ha        1 0Q5      0.144000
     54 H7          7.1280   -0.7050    4.0100 ha        1 0Q5      0.141000
     55 H8          5.9560    0.4770    2.1550 ha        1 0Q5      0.130000
     56 H9          3.1250    0.9490    1.6060 h1        1 0Q5      0.061200
     57 H10         4.2470    0.2370    0.3560 h1        1 0Q5      0.061200
     58 H11         1.8290    3.6560    0.1850 hc        1 0Q5      0.064700
     59 H12         3.0810    2.3790   -0.1040 hc        1 0Q5      0.064700
     60 H13         3.8550    3.6350   -2.1640 hc        1 0Q5      0.046700
     61 H14         2.6190    4.9140   -1.8400 hc        1 0Q5      0.046700
     62 H15         3.6510    5.3450    0.4150 hc        1 0Q5      0.041700
     63 H16         4.8900    4.0710    0.0940 hc        1 0Q5      0.041700
     64 H17         5.6950    5.3610   -1.9160 hc        1 0Q5      0.038367
     65 H18         5.7840    6.3460   -0.3980 hc        1 0Q5      0.038367
     66 H19         4.4520    6.6360   -1.5900 hc        1 0Q5      0.038367
     67 H20        -0.3080    3.0380    0.8240 ha        1 0Q5      0.149500
     68 H21        -1.5680    4.9030    1.8640 ha        1 0Q5      0.147500
     69 H22        -2.5570    6.7060    0.4500 ha        1 0Q5      0.148000
     70 H23        -2.2800    6.6370   -2.0300 ha        1 0Q5      0.147500
     71 H24        -1.0140    4.7930   -3.1040 ha        1 0Q5      0.149500
     72 H25        -0.7070   -0.3000   -4.1970 h1        1 0Q5      0.069700
     73 H26         0.6750    0.4240   -5.1650 h1        1 0Q5      0.069700
     74 H27         0.9240   -1.5770   -3.1760 ho        1 0Q5      0.433000
     75 H28         3.8300    1.9160   -3.9840 ha        1 0Q5      0.172000
     76 H29         5.8820    0.6100   -4.4040 ha        1 0Q5      0.137000
     77 H30         4.6990   -2.2230   -1.3220 ha        1 0Q5      0.167000
     78 H31         7.9050   -2.3570   -4.6170 hn        1 0Q5      0.459300
     79 H32         4.0600   -2.9220   -4.2670 h1        1 0Q5      0.169200
     80 H33         5.2260   -4.1800   -3.7450 h1        1 0Q5      0.169200
     81 H34         3.3560   -4.3290   -6.2020 hc        1 0Q5      0.086700
     82 H35         4.5860   -5.5890   -5.7500 hc        1 0Q5      0.086700
     83 H36         2.7650   -7.7080   -5.2170 hc        1 0Q5      0.063478
     84 H37         1.4200   -6.6930   -5.8340 hc        1 0Q5      0.063478
     85 H38         1.2830   -7.4870   -4.2340 hc        1 0Q5      0.063478
     86 H39         3.0930   -6.6920   -2.0060 hc        1 0Q5      0.063478
     87 H40         3.9010   -5.0950   -1.9870 hc        1 0Q5      0.063478
     88 H41         4.6360   -6.4690   -2.8850 hc        1 0Q5      0.063478
     89 H42         1.6960   -3.6970   -2.7870 hc        1 0Q5      0.063478
     90 H43         0.4650   -4.6980   -3.6170 hc        1 0Q5      0.063478
     91 H44         1.3920   -3.4730   -4.5390 hc        1 0Q5      0.063478
     92 H221        6.9780   -1.0570   -5.0410 hn        1 0Q5      0.459300
@<TRIPOS>BOND
     1    1    2 2   
     2    2    3 1   
     3    2   13 1   
     4    3    4 1   
     5    3   12 1   
     6    4    5 1   
     7    4   48 1   
     8    4   49 1   
     9    5    6 1   
    10    5   50 1   
    11    5   51 1   
    12    6    7 ar  
    13    6   11 ar  
    14    7    8 ar  
    15    7   52 1   
    16    8    9 ar  
    17    8   53 1   
    18    9   10 ar  
    19    9   54 1   
    20   10   11 ar  
    21   10   55 1   
    22   11   12 1   
    23   12   56 1   
    24   12   57 1   
    25   13   14 ar  
    26   13   35 ar  
    27   14   15 1   
    28   14   32 ar  
    29   15   16 2   
    30   15   29 1   
    31   16   17 1   
    32   16   21 1   
    33   17   18 1   
    34   17   58 1   
    35   17   59 1   
    36   18   19 1   
    37   18   60 1   
    38   18   61 1   
    39   19   20 1   
    40   19   62 1   
    41   19   63 1   
    42   20   64 1   
    43   20   65 1   
    44   20   66 1   
    45   21   22 1   
    46   21   28 1   
    47   22   23 ar  
    48   22   27 ar  
    49   23   24 ar  
    50   23   67 1   
    51   24   25 ar  
    52   24   68 1   
    53   25   26 ar  
    54   25   69 1   
    55   26   27 ar  
    56   26   70 1   
    57   27   71 1   
    58   28   29 2   
    59   29   30 1   
    60   30   31 1   
    61   30   72 1   
    62   30   73 1   
    63   31   74 1   
    64   32   33 ar  
    65   32   75 1   
    66   33   34 ar  
    67   33   76 1   
    68   34   35 ar  
    69   34   36 1   
    70   35   77 1   
    71   36   37 2   
    72   36   38 1   
    73   38   39 1   
    74   38   78 1   
    75   38   92 1   
    76   39   40 2   
    77   39   41 2   
    78   39   42 1   
    79   42   43 1   
    80   42   79 1   
    81   42   80 1   
    82   43   44 1   
    83   43   81 1   
    84   43   82 1   
    85   44   45 1   
    86   44   46 1   
    87   44   47 1   
    88   45   83 1   
    89   45   84 1   
    90   45   85 1   
    91   46   86 1   
    92   46   87 1   
    93   46   88 1   
    94   47   89 1   
    95   47   90 1   
    96   47   91 1   
@<TRIPOS>SUBSTRUCTURE
     1 0Q5         1 TEMP              0 ****  ****    0 ROOT
