@<TRIPOS>MOLECULE
0Q5
   91    95     1     0     0
SMALL
bcc


@<TRIPOS>ATOM
      1 O4         -1.5960    1.5190    2.9450 o         1 0Q5     -0.604100
      2 C27        -1.4230    1.4820    1.7090 c         1 0Q5      0.685700
      3 N3         -1.9510    2.4710    0.8910 n         1 0Q5     -0.450800
      4 C36        -2.5390    3.6580    1.4760 c3        1 0Q5      0.083000
      5 C35        -1.6790    4.9130    1.3190 c3        1 0Q5     -0.063100
      6 C30        -1.0830    5.0300   -0.0380 ca        1 0Q5     -0.065300
      7 C31        -0.5520    6.2560   -0.4590 ca        1 0Q5     -0.126000
      8 C32         0.0330    6.3770   -1.7170 ca        1 0Q5     -0.121000
      9 C33         0.0940    5.2720   -2.5680 ca        1 0Q5     -0.126000
     10 C34        -0.4320    4.0500   -2.1590 ca        1 0Q5     -0.122000
     11 C29        -1.0220    3.9230   -0.8960 ca        1 0Q5     -0.109300
     12 C28        -1.6050    2.5940   -0.5070 c3        1 0Q5      0.134300
     13 C          -0.6900    0.3370    1.0820 ca        1 0Q5     -0.130600
     14 C5         -1.3470   -0.8710    0.7950 ca        1 0Q5      0.076000
     15 C6         -2.7610   -1.0460    1.0340 cc        1 0Q5     -0.253300
     16 C8         -3.8180   -0.9400    0.1060 cd        1 0Q5     -0.050600
     17 C9         -3.7470   -0.6250   -1.3370 c3        1 0Q5     -0.021100
     18 C10        -3.4100   -1.8550   -2.1610 c3        1 0Q5     -0.077400
     19 C11        -3.2900   -1.5060   -3.6290 c3        1 0Q5     -0.080400
     20 C12        -2.9550   -2.7200   -4.4570 c3        1 0Q5     -0.093100
     21 N1         -4.9940   -1.2180    0.8310 na        1 0Q5      0.155300
     22 C13        -6.3210   -1.2020    0.3020 ca        1 0Q5      0.011800
     23 C18        -6.8290   -0.0380   -0.3100 ca        1 0Q5     -0.117500
     24 C17        -8.1230   -0.0420   -0.8260 ca        1 0Q5     -0.124000
     25 C16        -8.9230   -1.1790   -0.7280 ca        1 0Q5     -0.122000
     26 C15        -8.4280   -2.3230   -0.1040 ca        1 0Q5     -0.124000
     27 C14        -7.1350   -2.3460    0.4140 ca        1 0Q5     -0.117500
     28 N          -4.7390   -1.4950    2.1230 nd        1 0Q5     -0.466800
     29 C7         -3.3940   -1.4000    2.2950 cc        1 0Q5      0.295600
     30 C19        -2.6870   -1.6280    3.5900 c3        1 0Q5      0.114100
     31 O          -3.0370   -0.6820    4.5740 oh        1 0Q5     -0.591800
     32 C4         -0.5970   -1.9400    0.2770 ca        1 0Q5     -0.132000
     33 C3          0.7680   -1.8090    0.0420 ca        1 0Q5     -0.090000
     34 C2          1.4120   -0.6000    0.3230 ca        1 0Q5     -0.155600
     35 C1          0.6830    0.4690    0.8550 ca        1 0Q5     -0.049000
     36 C20         2.8690   -0.4000    0.1010 c         1 0Q5      0.706700
     37 O1          3.5520    0.3370    0.8360 o         1 0Q5     -0.579100
     38 N2          3.4780   -1.0500   -0.9710 n         1 0Q5     -0.674300
     39 S           5.0340   -0.8850   -1.5290 s6        1 0Q5      1.443600
     40 O2          5.2140   -1.9370   -2.4540 o         1 0Q5     -0.640800
     41 O3          5.2500    0.4100   -2.0170 o         1 0Q5     -0.640800
     42 C21         5.9810   -1.1640   -0.1380 c3        1 0Q5     -0.299600
     43 C22         7.4370   -1.0950   -0.4960 c3        1 0Q5     -0.263400
     44 SI1         8.4440   -1.4170    1.0140 Si        1 0Q5      0.642000
     45 C26        10.2040   -1.4910    0.5270 c3        1 0Q5     -0.300433
     46 C25         8.1940   -0.0710    2.2200 c3        1 0Q5     -0.300433
     47 C24         7.9460   -3.0160    1.7480 c3        1 0Q5     -0.300433
     48 H1         -3.5290    3.8260    0.9620 h1        1 0Q5      0.069700
     49 H2         -2.7350    3.4780    2.5710 h1        1 0Q5      0.069700
     50 H3         -2.3210    5.8080    1.5380 hc        1 0Q5      0.064200
     51 H4         -0.8500    4.9010    2.0770 hc        1 0Q5      0.064200
     52 H5         -0.5980    7.1250    0.2140 ha        1 0Q5      0.135000
     53 H6          0.4500    7.3430   -2.0390 ha        1 0Q5      0.135000
     54 H7          0.5600    5.3660   -3.5600 ha        1 0Q5      0.136000
     55 H8         -0.3820    3.1780   -2.8280 ha        1 0Q5      0.131000
     56 H9         -0.8860    1.7780   -0.8040 h1        1 0Q5      0.059200
     57 H10        -2.5550    2.4460   -1.1050 h1        1 0Q5      0.059200
     58 H11        -4.7170   -0.1900   -1.7020 hc        1 0Q5      0.060700
     59 H12        -2.9530    0.1590   -1.4840 hc        1 0Q5      0.060700
     60 H13        -2.4450   -2.2960   -1.7950 hc        1 0Q5      0.048200
     61 H14        -4.2060   -2.6320   -2.0220 hc        1 0Q5      0.048200
     62 H15        -4.2550   -1.0590   -3.9880 hc        1 0Q5      0.039700
     63 H16        -2.4940   -0.7260   -3.7650 hc        1 0Q5      0.039700
     64 H17        -1.9840   -3.1650   -4.1310 hc        1 0Q5      0.035367
     65 H18        -3.7490   -3.4990   -4.3530 hc        1 0Q5      0.035367
     66 H19        -2.8720   -2.4420   -5.5350 hc        1 0Q5      0.035367
     67 H20        -6.2180    0.8750   -0.3730 ha        1 0Q5      0.150000
     68 H21        -8.5150    0.8680   -1.3070 ha        1 0Q5      0.140000
     69 H22        -9.9440   -1.1710   -1.1350 ha        1 0Q5      0.139000
     70 H23        -9.0620   -3.2190   -0.0130 ha        1 0Q5      0.140000
     71 H24        -6.7610   -3.2510    0.9180 ha        1 0Q5      0.150000
     72 H25        -2.9790   -2.6200    4.0310 h1        1 0Q5      0.056200
     73 H26        -1.5790   -1.6050    3.3990 h1        1 0Q5      0.056200
     74 H27        -2.7470    0.1870    4.2610 ho        1 0Q5      0.426000
     75 H28        -1.1010   -2.8960    0.0620 ha        1 0Q5      0.152000
     76 H29         1.3280   -2.6750   -0.3430 ha        1 0Q5      0.139000
     77 H30         1.2030    1.4100    1.1050 ha        1 0Q5      0.170000
     78 H31         2.8700   -1.6530   -1.4850 hn        1 0Q5      0.336500
     79 H32         5.7630   -0.4040    0.6670 h1        1 0Q5      0.126700
     80 H33         5.7700   -2.1650    0.3280 h1        1 0Q5      0.126700
     81 H34         7.6730   -1.8490   -1.2910 hc        1 0Q5      0.075200
     82 H35         7.6790   -0.0860   -0.9190 hc        1 0Q5      0.075200
     83 H36        10.3760   -2.2400   -0.2800 hc        1 0Q5      0.050367
     84 H37        10.5670   -0.5080    0.1490 hc        1 0Q5      0.050367
     85 H38        10.8540   -1.7760    1.3860 hc        1 0Q5      0.050367
     86 H39         8.8480   -0.1960    3.1140 hc        1 0Q5      0.050367
     87 H40         8.4260    0.9260    1.7780 hc        1 0Q5      0.050367
     88 H41         7.1410   -0.0320    2.5850 hc        1 0Q5      0.050367
     89 H42         7.7880   -3.7970    0.9690 hc        1 0Q5      0.050367
     90 H43         8.7230   -3.4000    2.4490 hc        1 0Q5      0.050367
     91 H44         6.9960   -2.9260    2.3250 hc        1 0Q5      0.050367
@<TRIPOS>BOND
     1    1    2 2   
     2    2    3 1   
     3    2   13 1   
     4    3    4 1   
     5    3   12 1   
     6    4    5 1   
     7    4   48 1   
     8    4   49 1   
     9    5    6 1   
    10    5   50 1   
    11    5   51 1   
    12    6    7 ar  
    13    6   11 ar  
    14    7    8 ar  
    15    7   52 1   
    16    8    9 ar  
    17    8   53 1   
    18    9   10 ar  
    19    9   54 1   
    20   10   11 ar  
    21   10   55 1   
    22   11   12 1   
    23   12   56 1   
    24   12   57 1   
    25   13   14 ar  
    26   13   35 ar  
    27   14   15 1   
    28   14   32 ar  
    29   15   16 2   
    30   15   29 1   
    31   16   17 1   
    32   16   21 1   
    33   17   18 1   
    34   17   58 1   
    35   17   59 1   
    36   18   19 1   
    37   18   60 1   
    38   18   61 1   
    39   19   20 1   
    40   19   62 1   
    41   19   63 1   
    42   20   64 1   
    43   20   65 1   
    44   20   66 1   
    45   21   22 1   
    46   21   28 1   
    47   22   23 ar  
    48   22   27 ar  
    49   23   24 ar  
    50   23   67 1   
    51   24   25 ar  
    52   24   68 1   
    53   25   26 ar  
    54   25   69 1   
    55   26   27 ar  
    56   26   70 1   
    57   27   71 1   
    58   28   29 2   
    59   29   30 1   
    60   30   31 1   
    61   30   72 1   
    62   30   73 1   
    63   31   74 1   
    64   32   33 ar  
    65   32   75 1   
    66   33   34 ar  
    67   33   76 1   
    68   34   35 ar  
    69   34   36 1   
    70   35   77 1   
    71   36   37 2   
    72   36   38 1   
    73   38   39 1   
    74   38   78 1   
    75   39   40 2   
    76   39   41 2   
    77   39   42 1   
    78   42   43 1   
    79   42   79 1   
    80   42   80 1   
    81   43   44 1   
    82   43   81 1   
    83   43   82 1   
    84   44   45 1   
    85   44   46 1   
    86   44   47 1   
    87   45   83 1   
    88   45   84 1   
    89   45   85 1   
    90   46   86 1   
    91   46   87 1   
    92   46   88 1   
    93   47   89 1   
    94   47   90 1   
    95   47   91 1   
@<TRIPOS>SUBSTRUCTURE
     1 0Q5         1 TEMP              0 ****  ****    0 ROOT
