@<TRIPOS>MOLECULE
0QA
   29    29     1     0     0
SMALL
bcc


@<TRIPOS>ATOM
      1 O2          0.6530    1.0750   -0.0720 o         1 0QA      0.063300
      2 N3          1.2900    0.1490   -0.1450 n2        1 0QA      0.291700
      3 N2          1.9030   -0.3930    1.1250 n4        1 0QA     -0.658200
      4 C10         1.2700    0.0400    2.4010 c3        1 0QA      0.061100
      5 C9          3.3990   -0.1730    1.1650 c3        1 0QA      0.120800
      6 C8          3.8090    1.2860    1.2770 c3        1 0QA     -0.104400
      7 C7          5.3210    1.3950    1.2640 c3        1 0QA     -0.184400
      8 C6          5.7490    2.8400    1.3870 c         1 0QA      0.593700
      9 O1          4.8990    3.7350    1.4790 o         1 0QA     -0.534100
     10 C5          7.1900    3.1070    1.3910 ca        1 0QA     -0.312900
     11 C1          7.6490    4.4320    1.5030 ca        1 0QA     -0.025000
     12 C2          9.0200    4.6770    1.5070 ca        1 0QA     -0.250300
     13 C3          9.8990    3.5820    1.3970 ca        1 0QA      0.441200
     14 N1          9.4800    2.3050    1.2890 nb        1 0QA     -0.663000
     15 C4          8.1560    2.0810    1.2870 ca        1 0QA      0.435200
     16 H1          0.1980   -0.2940    2.4220 hx        1 0QA      0.111367
     17 H2          1.8190   -0.4210    3.2660 hx        1 0QA      0.111367
     18 H3          1.3140    1.1590    2.4910 hx        1 0QA      0.111367
     19 H4          3.8370   -0.6270    0.2280 hx        1 0QA      0.106700
     20 H5          3.7870   -0.7500    2.0540 hx        1 0QA      0.106700
     21 H6          3.4220    1.7400    2.2290 hc        1 0QA      0.079700
     22 H7          3.3970    1.8950    0.4280 hc        1 0QA      0.079700
     23 H8          5.7360    0.9770    0.3080 hc        1 0QA      0.081700
     24 H9          5.7620    0.8150    2.1180 hc        1 0QA      0.081700
     25 H10         6.9200    5.2560    1.5870 ha        1 0QA      0.167000
     26 H11         9.4130    5.7000    1.5930 ha        1 0QA      0.164000
     27 H12        10.9960    3.7290    1.3960 h4        1 0QA      0.042100
     28 H13         7.8620    1.0200    1.1960 h4        1 0QA      0.015100
     29 H21         1.7640   -1.4130    1.0320 hn        1 0QA      0.465800
@<TRIPOS>BOND
     1    1    2 2   
     2    2    3 1   
     3    3    4 1   
     4    3    5 1   
     5    3   29 1   
     6    4   16 1   
     7    4   17 1   
     8    4   18 1   
     9    5    6 1   
    10    5   19 1   
    11    5   20 1   
    12    6    7 1   
    13    6   21 1   
    14    6   22 1   
    15    7    8 1   
    16    7   23 1   
    17    7   24 1   
    18    8    9 2   
    19    8   10 1   
    20   10   11 ar  
    21   10   15 ar  
    22   11   12 ar  
    23   11   25 1   
    24   12   13 ar  
    25   12   26 1   
    26   13   14 ar  
    27   13   27 1   
    28   14   15 ar  
    29   15   28 1   
@<TRIPOS>SUBSTRUCTURE
     1 0QA         1 TEMP              0 ****  ****    0 ROOT
