@<TRIPOS>MOLECULE
0QA
   29    29     1     0     0
SMALL
bcc


@<TRIPOS>ATOM
      1 O2          0.6590    1.0740   -0.0860 o         1 0QA      0.063300
      2 N3          1.2940    0.1450   -0.1480 n2        1 0QA      0.291700
      3 N2          1.8990   -0.3880    1.1300 n4        1 0QA     -0.658200
      4 C10         1.2610    0.0570    2.3990 c3        1 0QA      0.061100
      5 C9          3.3960   -0.1710    1.1740 c3        1 0QA      0.120800
      6 C8          3.8080    1.2870    1.2790 c3        1 0QA     -0.104400
      7 C7          5.3210    1.3930    1.2700 c3        1 0QA     -0.184400
      8 C6          5.7520    2.8370    1.3860 c         1 0QA      0.593700
      9 O1          4.9040    3.7350    1.4720 o         1 0QA     -0.534100
     10 C5          7.1930    3.1020    1.3900 ca        1 0QA     -0.312900
     11 C1          7.6540    4.4260    1.4930 ca        1 0QA     -0.025000
     12 C2          9.0270    4.6690    1.4960 ca        1 0QA     -0.250300
     13 C3          9.9030    3.5720    1.3950 ca        1 0QA      0.441200
     14 N1          9.4820    2.2940    1.2950 nb        1 0QA     -0.663000
     15 C4          8.1570    2.0730    1.2930 ca        1 0QA      0.435200
     16 H1          1.8050   -0.3980    3.2700 hx        1 0QA      0.111367
     17 H2          1.3070    1.1770    2.4790 hx        1 0QA      0.111367
     18 H3          0.1880   -0.2740    2.4170 hx        1 0QA      0.111367
     19 H4          3.7780   -0.7430    2.0700 hx        1 0QA      0.106700
     20 H5          3.8370   -0.6330    0.2430 hx        1 0QA      0.106700
     21 H6          3.4200    1.7480    2.2270 hc        1 0QA      0.080200
     22 H7          3.4000    1.8920    0.4250 hc        1 0QA      0.080200
     23 H8          5.7370    0.9690    0.3170 hc        1 0QA      0.081700
     24 H9          5.7580    0.8170    2.1280 hc        1 0QA      0.081700
     25 H10         6.9280    5.2530    1.5710 ha        1 0QA      0.167000
     26 H11         9.4220    5.6910    1.5760 ha        1 0QA      0.164000
     27 H12        11.0010    3.7160    1.3930 h4        1 0QA      0.042100
     28 H13         7.8610    1.0120    1.2090 h4        1 0QA      0.015100
     29 H21         1.7590   -1.4080    1.0440 hn        1 0QA      0.465800
@<TRIPOS>BOND
     1    1    2 2   
     2    2    3 1   
     3    3    4 1   
     4    3    5 1   
     5    3   29 1   
     6    4   16 1   
     7    4   17 1   
     8    4   18 1   
     9    5    6 1   
    10    5   19 1   
    11    5   20 1   
    12    6    7 1   
    13    6   21 1   
    14    6   22 1   
    15    7    8 1   
    16    7   23 1   
    17    7   24 1   
    18    8    9 2   
    19    8   10 1   
    20   10   11 ar  
    21   10   15 ar  
    22   11   12 ar  
    23   11   25 1   
    24   12   13 ar  
    25   12   26 1   
    26   13   14 ar  
    27   13   27 1   
    28   14   15 ar  
    29   15   28 1   
@<TRIPOS>SUBSTRUCTURE
     1 0QA         1 TEMP              0 ****  ****    0 ROOT
