@<TRIPOS>MOLECULE
0QA
   28    28     1     0     0
SMALL
bcc


@<TRIPOS>ATOM
      1 O2         -5.5160    0.2430   -1.0340 o         1 0QA     -0.244700
      2 N3         -4.4320   -0.1960   -1.0420 n2        1 0QA      0.230700
      3 N2         -3.8260   -0.4040    0.1250 n3        1 0QA     -0.648400
      4 C10        -4.3590   -0.0750    1.4340 c3        1 0QA      0.163100
      5 C9         -2.4450   -0.8810    0.1280 c3        1 0QA      0.225800
      6 C8         -1.4010    0.2350    0.1110 c3        1 0QA     -0.100400
      7 C7         -0.0110   -0.3640    0.1070 c3        1 0QA     -0.176400
      8 C6          1.0590    0.6890    0.1840 c         1 0QA      0.583700
      9 O1          0.7930    1.8870    0.3470 o         1 0QA     -0.528100
     10 C5          2.4550    0.2260    0.0560 ca        1 0QA     -0.295900
     11 C1          3.4940    1.1680   -0.0170 ca        1 0QA     -0.038000
     12 C2          4.8090    0.7210   -0.1390 ca        1 0QA     -0.258300
     13 C3          5.0450   -0.6650   -0.1810 ca        1 0QA      0.421200
     14 N1          4.0640   -1.5870   -0.1090 nb        1 0QA     -0.672000
     15 C4          2.7990   -1.1420    0.0060 ca        1 0QA      0.431200
     16 H1         -4.4590   -1.0140    2.0420 h1        1 0QA      0.052033
     17 H2         -3.6640    0.6310    1.9610 h1        1 0QA      0.052033
     18 H3         -5.3690    0.4070    1.3440 h1        1 0QA      0.052033
     19 H4         -2.3070   -1.5040    1.0570 h1        1 0QA      0.055700
     20 H5         -2.2750   -1.5510   -0.7630 h1        1 0QA      0.055700
     21 H6         -1.5330    0.8810   -0.7960 hc        1 0QA      0.067200
     22 H7         -1.5200    0.9010    1.0060 hc        1 0QA      0.067200
     23 H8          0.1120   -1.0550    0.9840 hc        1 0QA      0.069200
     24 H9          0.1410   -0.9670   -0.8280 hc        1 0QA      0.069200
     25 H10         3.2560    2.2430    0.0240 ha        1 0QA      0.163000
     26 H11         5.6450    1.4300   -0.2000 ha        1 0QA      0.151000
     27 H12         6.0710   -1.0650   -0.2770 h4        1 0QA      0.028100
     28 H13         2.0270   -1.9310    0.0640 h4        1 0QA      0.024100
@<TRIPOS>BOND
     1    1    2 2   
     2    2    3 1   
     3    3    4 1   
     4    3    5 1   
     5    4   16 1   
     6    4   17 1   
     7    4   18 1   
     8    5    6 1   
     9    5   19 1   
    10    5   20 1   
    11    6    7 1   
    12    6   21 1   
    13    6   22 1   
    14    7    8 1   
    15    7   23 1   
    16    7   24 1   
    17    8    9 2   
    18    8   10 1   
    19   10   11 ar  
    20   10   15 ar  
    21   11   12 ar  
    22   11   25 1   
    23   12   13 ar  
    24   12   26 1   
    25   13   14 ar  
    26   13   27 1   
    27   14   15 ar  
    28   15   28 1   
@<TRIPOS>SUBSTRUCTURE
     1 0QA         1 TEMP              0 ****  ****    0 ROOT
