@<TRIPOS>MOLECULE
0QA
   28    23     1     0     0
SMALL
bcc


@<TRIPOS>ATOM
      1 O2          0.3810    4.1000   -1.8430 o         1 0QA     -0.297000
      2 N3          0.4610    3.6290   -0.7710 n1        1 0QA      0.281000
      3 N2         -0.7160    3.4510    0.0250 n2        1 0QA     -0.334000
      4 C10        -1.3170    4.5670    0.6610 c3        1 0QA     -0.113000
      5 C9         -1.3010    2.1480    0.1540 c3        1 0QA     -0.011000
      6 C8         -0.2410    1.1640    0.7640 c3        1 0QA     -0.177000
      7 C7         -0.6390   -0.2800    0.4530 c3        1 0QA     -0.207000
      8 C6          0.4630   -1.2040    0.8660 c1        1 0QA      0.275000
      9 O1          1.1440   -0.9390    1.8040 o         1 0QA     -0.287000
     10 C5          0.6950   -2.5000    0.0940 c1        1 0QA     -0.209000
     11 C1          1.4820   -2.4900   -1.0250 c1        1 0QA     -0.124500
     12 C2          1.8130   -3.6580   -1.6400 c1        1 0QA     -0.124500
     13 C3          1.3460   -4.8860   -1.1280 c1        1 0QA     -0.043000
     14 N1          0.5610   -4.9040   -0.0130 n1        1 0QA     -0.144000
     15 C4          0.2250   -3.7190    0.6110 c1        1 0QA     -0.016000
     16 H1         -0.7470    5.3210    0.5800 h1        1 0QA      0.092333
     17 H2         -2.1500    4.7540    0.2480 h1        1 0QA      0.092333
     18 H3         -1.4580    4.3670    1.6060 h1        1 0QA      0.092333
     19 H4         -1.5610    1.8440   -0.6810 h1        1 0QA      0.098500
     20 H5         -2.0940    2.1970    0.7510 h1        1 0QA      0.098500
     21 H6         -0.2020    1.2850    1.7080 hc        1 0QA      0.099500
     22 H7          0.6300    1.3500    0.3770 hc        1 0QA      0.099500
     23 H8         -0.7970   -0.3730   -0.4850 hc        1 0QA      0.107500
     24 H9         -1.4710   -0.5140    0.9560 hc        1 0QA      0.107500
     25 H10         1.8250   -1.6020   -1.4000 ha        1 0QA      0.146500
     26 H11         2.3990   -3.6440   -2.4710 ha        1 0QA      0.146500
     27 H12         1.5900   -5.7370   -1.5810 ha        1 0QA      0.165000
     28 H13        -0.3190   -3.7270    1.3830 ha        1 0QA      0.183000
@<TRIPOS>BOND
     1    1    2 1   
     2    3    4 1   
     3    3    5 1   
     4    4   16 1   
     5    4   17 1   
     6    4   18 1   
     7    5    6 1   
     8    5   19 1   
     9    5   20 1   
    10    6    7 1   
    11    6   21 1   
    12    6   22 1   
    13    7    8 1   
    14    7   23 1   
    15    7   24 1   
    16    8    9 1   
    17   10   15 1   
    18   11   12 1   
    19   11   25 1   
    20   12   26 1   
    21   13   14 1   
    22   13   27 1   
    23   15   28 1   
@<TRIPOS>SUBSTRUCTURE
     1 0QA         1 TEMP              0 ****  ****    0 ROOT
