@<TRIPOS>MOLECULE
0QE
    5     4     1     0     0
SMALL
bcc


@<TRIPOS>ATOM
      1 C1          1.2410    0.0000    0.0000 c3        1 0QE      0.014300
      2 CL1        -0.5000   -0.0000    0.0000 cl        1 0QE     -0.190400
      3 H           1.5890   -0.0100    1.0560 h1        1 0QE      0.058700
      4 HA          1.5900   -0.9090   -0.5360 h1        1 0QE      0.058700
      5 HB          1.5890    0.9190   -0.5190 h1        1 0QE      0.058700
@<TRIPOS>BOND
     1    1    2 1   
     2    1    3 1   
     3    1    4 1   
     4    1    5 1   
@<TRIPOS>SUBSTRUCTURE
     1 0QE         1 TEMP              0 ****  ****    0 ROOT
