@<TRIPOS>MOLECULE
0QE
    5     4     1     0     0
SMALL
bcc


@<TRIPOS>ATOM
      1 C1          0.0050   -0.0000   -0.0000 c3        1 0QE      0.014300
      2 Cl1         1.7460    0.0000    0.0010 cl        1 0QE     -0.190400
      3 H          -0.3440   -0.0000    1.0550 h1        1 0QE      0.058700
      4 HA         -0.3430    0.9140   -0.5280 h1        1 0QE      0.058700
      5 HB         -0.3430   -0.9140   -0.5280 h1        1 0QE      0.058700
@<TRIPOS>BOND
     1    1    2 1   
     2    1    3 1   
     3    1    4 1   
     4    1    5 1   
@<TRIPOS>SUBSTRUCTURE
     1 0QE         1 TEMP              0 ****  ****    0 ROOT
