@<TRIPOS>MOLECULE
0QF
   96    98     1     0     0
SMALL
bcc


@<TRIPOS>ATOM
      1 O1          4.0980   -4.7820    1.9740 os        1 0QF     -0.410600
      2 C2          5.3040   -4.2590    1.4290 c3        1 0QF      0.117900
      3 C3          5.0270   -3.1350    0.4210 c3        1 0QF      0.184300
      4 N4          4.1380   -2.1230    0.9340 n3        1 0QF     -0.815500
      5 C5          2.9760   -2.6350    1.6140 c3        1 0QF      0.184300
      6 C6          3.3010   -3.7770    2.5890 c3        1 0QF      0.117900
      7 S           4.3840   -0.5260    0.6810 s6        1 0QF      1.574800
      8 O1S         3.7090    0.2090    1.6940 o         1 0QF     -0.643300
      9 O2S         5.7770   -0.3050    0.5400 o         1 0QF     -0.643300
     10 N           3.6730   -0.2040   -0.7530 n3        1 0QF     -0.898100
     11 CA          2.4110    0.4510   -0.9180 c3        1 0QF      0.189500
     12 C           1.3090   -0.5610   -1.3360 c         1 0QF      0.630100
     13 O           1.4970   -1.3930   -2.2430 o         1 0QF     -0.597100
     14 CB          2.4000    1.5420   -2.0110 c3        1 0QF     -0.043100
     15 CG          3.2830    2.6860   -1.6650 ca        1 0QF     -0.094300
     16 CD1         4.6070    2.7190   -2.1190 ca        1 0QF     -0.119500
     17 CD2         2.7930    3.7510   -0.9010 ca        1 0QF     -0.119500
     18 CE1         5.4300    3.8000   -1.8060 ca        1 0QF     -0.124500
     19 CE2         3.6170    4.8310   -0.5910 ca        1 0QF     -0.124500
     20 CZ          4.9370    4.8570   -1.0420 ca        1 0QF     -0.122000
     21 N1          0.1040   -0.4850   -0.6630 n         1 0QF     -0.555900
     22 CA1        -1.0230   -1.2870   -1.0140 c3        1 0QF      0.122800
     23 C1         -2.3470   -0.4970   -0.9620 c         1 0QF      0.656100
     24 O2         -2.9460   -0.2440   -2.0200 o         1 0QF     -0.561100
     25 S1         -1.2830   -2.7180    0.0650 ss        1 0QF     -0.381200
     26 C11        -0.2450   -3.9510   -0.6880 c3        1 0QF      0.009700
     27 C21         0.0160   -5.0220    0.3280 c3        1 0QF     -0.088100
     28 C12        -4.0150    0.6390    0.4620 c3        1 0QF      0.054700
     29 N2         -2.7460   -0.0390    0.2840 n         1 0QF     -0.545900
     30 C22        -3.8530    1.9220    1.3280 c3        1 0QF      0.102100
     31 O21        -3.2640    1.6420    2.5840 oh        1 0QF     -0.587800
     32 C31        -3.0840    3.0160    0.5640 c3        1 0QF      0.107100
     33 O3         -3.7680    3.3450   -0.6320 oh        1 0QF     -0.582800
     34 C4         -2.8690    4.2410    1.4480 c3        1 0QF     -0.111400
     35 C51        -1.9200    5.2440    0.8080 c3        1 0QF     -0.070700
     36 C61        -2.1230    6.6170    1.4150 c3        1 0QF     -0.089600
     37 C7         -0.4770    4.8130    0.9660 c3        1 0QF     -0.089600
     38 C7'        -5.1030   -0.2260    1.1170 c3        1 0QF     -0.096400
     39 C1'        -5.4400   -1.5000    0.3620 c3        1 0QF     -0.065700
     40 C2'        -6.0540   -1.2000   -0.9980 c3        1 0QF     -0.076900
     41 C6'        -6.3950   -2.3400    1.2030 c3        1 0QF     -0.076900
     42 C3'        -6.4630   -2.4700   -1.7140 c3        1 0QF     -0.074900
     43 C5'        -6.7920   -3.6120    0.4820 c3        1 0QF     -0.074900
     44 C4'        -7.4010   -3.3090   -0.8710 c3        1 0QF     -0.077400
     45 H21         5.9650   -3.8960    2.2590 h1        1 0QF      0.059450
     46 H22         5.7780   -5.1330    0.9100 h1        1 0QF      0.059450
     47 H31         6.0110   -2.6580    0.1420 h1        1 0QF      0.061950
     48 H32         4.5720   -3.5950   -0.5040 h1        1 0QF      0.061950
     49 H51         2.4890   -1.8010    2.1950 h1        1 0QF      0.061950
     50 H52         2.2390   -3.0250    0.8510 h1        1 0QF      0.061950
     51 H61         2.3570   -4.3080    2.8810 h1        1 0QF      0.059450
     52 H62         3.8260   -3.3850    3.4990 h1        1 0QF      0.059450
     53 H           4.0870   -0.4730   -1.6160 hn        1 0QF      0.454800
     54 HA          2.1450    0.9420    0.0690 h1        1 0QF      0.092700
     55 HB2         2.7080    1.0900   -2.9910 hc        1 0QF      0.069700
     56 HB3         1.3400    1.8980   -2.1220 hc        1 0QF      0.069700
     57 HD1         5.0000    1.8870   -2.7210 ha        1 0QF      0.130000
     58 HD2         1.7510    3.7400   -0.5430 ha        1 0QF      0.130000
     59 HE1         6.4710    3.8150   -2.1610 ha        1 0QF      0.134500
     60 HE2         3.2250    5.6630    0.0120 ha        1 0QF      0.134500
     61 HZ          5.5880    5.7080   -0.7940 ha        1 0QF      0.134000
     62 H1          0.0120    0.1400    0.1040 hn        1 0QF      0.323500
     63 HA1        -0.8890   -1.6660   -2.0700 h2        1 0QF      0.135700
     64 H11        -0.7700   -4.3700   -1.5810 h1        1 0QF      0.075700
     65 H12         0.7070   -3.4810   -1.0400 h1        1 0QF      0.075700
     66 H211        0.5680   -5.8700   -0.1480 hc        1 0QF      0.048700
     67 H221        0.6360   -4.6320    1.1720 hc        1 0QF      0.048700
     68 H23        -0.9430   -5.4180    0.7460 hc        1 0QF      0.048700
     69 H13        -4.3740    0.9810   -0.5580 h1        1 0QF      0.109700
     70 HN1        -2.4320   -0.5610    1.0750 hn        1 0QF      0.309500
     71 H2         -4.8830    2.3000    1.5870 h1        1 0QF      0.077700
     72 HO2        -2.3210    1.5000    2.4420 ho        1 0QF      0.400000
     73 H3         -2.0940    2.6140    0.2070 h1        1 0QF      0.079700
     74 HO3        -4.5810    3.8030   -0.3840 ho        1 0QF      0.398000
     75 H41        -3.8610    4.7310    1.6340 hc        1 0QF      0.054200
     76 H42        -2.4680    3.9120    2.4410 hc        1 0QF      0.054200
     77 H5         -2.1610    5.2970   -0.2930 hc        1 0QF      0.063700
     78 H611       -1.4120    7.3490    0.9600 hc        1 0QF      0.034033
     79 H621       -3.1640    6.9760    1.2330 hc        1 0QF      0.034033
     80 H63        -1.9450    6.5900    2.5170 hc        1 0QF      0.034033
     81 H71        -0.3160    3.8030    0.5180 hc        1 0QF      0.034033
     82 H72         0.2010    5.5360    0.4500 hc        1 0QF      0.034033
     83 H73        -0.1930    4.7710    2.0450 hc        1 0QF      0.034033
     84 H7'1       -4.7790   -0.4850    2.1610 hc        1 0QF      0.052700
     85 H7'2       -6.0290    0.4020    1.2010 hc        1 0QF      0.052700
     86 H1'        -4.5000   -2.1000    0.2000 hc        1 0QF      0.053700
     87 H2'1       -6.9500   -0.5390   -0.8640 hc        1 0QF      0.043700
     88 H2'2       -5.3080   -0.6460   -1.6290 hc        1 0QF      0.043700
     89 H6'1       -5.9060   -2.5990    2.1780 hc        1 0QF      0.043700
     90 H6'2       -7.3130   -1.7380    1.4340 hc        1 0QF      0.043700
     91 H3'1       -6.9620   -2.2060   -2.6820 hc        1 0QF      0.040450
     92 H3'2       -5.5470   -3.0690   -1.9600 hc        1 0QF      0.040450
     93 H5'1       -5.8880   -4.2630    0.3480 hc        1 0QF      0.040450
     94 H5'2       -7.5280   -4.1810    1.1080 hc        1 0QF      0.040450
     95 H4'1       -8.3700   -2.7610   -0.7310 hc        1 0QF      0.037700
     96 H4'2       -7.6310   -4.2680   -1.4040 hc        1 0QF      0.037700
@<TRIPOS>BOND
     1    1    2 1   
     2    1    6 1   
     3    2    3 1   
     4    2   45 1   
     5    2   46 1   
     6    3    4 1   
     7    3   47 1   
     8    3   48 1   
     9    4    5 1   
    10    4    7 1   
    11    5    6 1   
    12    5   49 1   
    13    5   50 1   
    14    6   51 1   
    15    6   52 1   
    16    7    8 2   
    17    7    9 2   
    18    7   10 1   
    19   10   11 1   
    20   10   53 1   
    21   11   12 1   
    22   11   14 1   
    23   11   54 1   
    24   12   13 2   
    25   12   21 1   
    26   14   15 1   
    27   14   55 1   
    28   14   56 1   
    29   15   16 ar  
    30   15   17 ar  
    31   16   18 ar  
    32   16   57 1   
    33   17   19 ar  
    34   17   58 1   
    35   18   20 ar  
    36   18   59 1   
    37   19   20 ar  
    38   19   60 1   
    39   20   61 1   
    40   21   22 1   
    41   21   62 1   
    42   22   23 1   
    43   22   25 1   
    44   22   63 1   
    45   23   24 2   
    46   23   29 1   
    47   25   26 1   
    48   26   27 1   
    49   26   64 1   
    50   26   65 1   
    51   27   66 1   
    52   27   67 1   
    53   27   68 1   
    54   28   29 1   
    55   28   30 1   
    56   28   38 1   
    57   28   69 1   
    58   29   70 1   
    59   30   31 1   
    60   30   32 1   
    61   30   71 1   
    62   31   72 1   
    63   32   33 1   
    64   32   34 1   
    65   32   73 1   
    66   33   74 1   
    67   34   35 1   
    68   34   75 1   
    69   34   76 1   
    70   35   36 1   
    71   35   37 1   
    72   35   77 1   
    73   36   78 1   
    74   36   79 1   
    75   36   80 1   
    76   37   81 1   
    77   37   82 1   
    78   37   83 1   
    79   38   39 1   
    80   38   84 1   
    81   38   85 1   
    82   39   40 1   
    83   39   41 1   
    84   39   86 1   
    85   40   42 1   
    86   40   87 1   
    87   40   88 1   
    88   41   43 1   
    89   41   89 1   
    90   41   90 1   
    91   42   44 1   
    92   42   91 1   
    93   42   92 1   
    94   43   44 1   
    95   43   93 1   
    96   43   94 1   
    97   44   95 1   
    98   44   96 1   
@<TRIPOS>SUBSTRUCTURE
     1 0QF         1 TEMP              0 ****  ****    0 ROOT
