@<TRIPOS>MOLECULE
0QG
   54    54     1     0     0
SMALL
bcc


@<TRIPOS>ATOM
      1 N          -2.5370    2.2250    2.6390 n3        1 0QG     -0.899800
      2 CA         -1.5610    2.5960    1.6720 c3        1 0QG      0.109500
      3 CB         -0.4300    3.3330    2.3540 c3        1 0QG     -0.079000
      4 CG1        -0.9730    4.5700    3.0340 c3        1 0QG     -0.095767
      5 CG2         0.2120    2.4300    3.3870 c3        1 0QG     -0.095767
      6 CG3         0.6020    3.7350    1.3250 c3        1 0QG     -0.095767
      7 C          -1.0200    1.3550    1.0000 c         1 0QG      0.683100
      8 O           0.1640    1.0940    1.0710 o         1 0QG     -0.632100
      9 N1         -1.9090    0.4510    0.3600 n         1 0QG     -0.449800
     10 CA1        -1.5880   -0.6950   -0.1970 c3        1 0QG      0.025700
     11 C1         -0.1870   -0.6140   -0.7520 c         1 0QG      0.636100
     12 O1          0.3690    0.4610   -0.8450 o         1 0QG     -0.618100
     13 CB1        -2.7350   -0.8460   -1.3100 c3        1 0QG     -0.108400
     14 CG         -3.7800    0.2020   -0.9890 c3        1 0QG     -0.085400
     15 CD         -3.4830    0.6380    0.1810 c3        1 0QG      0.097000
     16 N2          0.4690   -1.7920   -1.1960 n         1 0QG     -0.491900
     17 CA2         1.7730   -1.7130   -1.7480 c3        1 0QG     -0.062300
     18 C2          1.7330   -0.8950   -3.0210 c         1 0QG      0.897600
     19 O2          0.8310   -1.1040   -3.8760 o         1 0QG     -0.835300
     20 CB2         2.2740   -3.1060   -2.0600 c3        1 0QG     -0.043700
     21 CG11        2.9820   -3.6700   -0.8470 c3        1 0QG     -0.075400
     22 CG21        3.2390   -3.0460   -3.2240 c3        1 0QG     -0.100100
     23 CD1         3.1220   -5.1670   -0.9980 c3        1 0QG     -0.087100
     24 OXT         2.6140   -0.0210   -3.2360 o         1 0QG     -0.835300
     25 H          -3.2540    2.7920    2.5810 hn        1 0QG      0.352300
     26 H2         -2.1720    2.2780    3.4760 hn        1 0QG      0.352300
     27 HA         -1.9710    3.1770    1.0010 h1        1 0QG      0.063700
     28 HG11       -0.2270    5.1400    3.3180 hc        1 0QG      0.041033
     29 HG12       -1.5000    4.3070    3.8160 hc        1 0QG      0.041033
     30 HG13       -1.5410    5.0640    2.4070 hc        1 0QG      0.041033
     31 HG21       -0.3510    2.3990    4.1890 hc        1 0QG      0.041033
     32 HG22        0.3050    1.5270    3.0180 hc        1 0QG      0.041033
     33 HG23        1.0970    2.7790    3.6220 hc        1 0QG      0.041033
     34 HG31        0.1670    3.8540    0.4540 hc        1 0QG      0.041033
     35 HG32        1.0240    4.5780    1.5980 hc        1 0QG      0.041033
     36 HG33        1.2860    3.0350    1.2570 hc        1 0QG      0.041033
     37 HA1        -1.5300   -1.4890    0.3720 h1        1 0QG      0.082700
     38 HB2        -2.3630   -0.6880   -2.2000 hc        1 0QG      0.089700
     39 HB3        -3.1310   -1.7400   -1.2650 hc        1 0QG      0.089700
     40 HG2        -4.6740   -0.2010   -0.9840 hc        1 0QG      0.051200
     41 HG3        -3.7400    0.9310   -1.6430 hc        1 0QG      0.051200
     42 HD2        -3.9610    0.1200    0.8620 h1        1 0QG      0.037700
     43 HD3        -3.7180    1.5860    0.2540 h1        1 0QG      0.037700
     44 H1          0.0480   -2.5990   -1.1350 hn        1 0QG      0.291500
     45 HA2         2.3740   -1.2870   -1.1050 h1        1 0QG      0.076700
     46 HB          1.5200   -3.6790   -2.2920 hc        1 0QG      0.045700
     47 HG14        2.4610   -3.4700   -0.0440 hc        1 0QG      0.040700
     48 HG15        3.8680   -3.2660   -0.7700 hc        1 0QG      0.040700
     49 HG24        2.7350   -3.0070   -4.0630 hc        1 0QG      0.037367
     50 HG25        3.8000   -2.2470   -3.1420 hc        1 0QG      0.037367
     51 HG26        3.8060   -3.8450   -3.2200 hc        1 0QG      0.037367
     52 HD11        3.3790   -5.5590   -0.1380 hc        1 0QG      0.019367
     53 HD12        3.8110   -5.3650   -1.6660 hc        1 0QG      0.019367
     54 HD13        2.2670   -5.5480   -1.2870 hc        1 0QG      0.019367
@<TRIPOS>BOND
     1    1    2 1   
     2    1   25 1   
     3    1   26 1   
     4    2    3 1   
     5    2    7 1   
     6    2   27 1   
     7    3    4 1   
     8    3    5 1   
     9    3    6 1   
    10    4   28 1   
    11    4   29 1   
    12    4   30 1   
    13    5   31 1   
    14    5   32 1   
    15    5   33 1   
    16    6   34 1   
    17    6   35 1   
    18    6   36 1   
    19    7    8 2   
    20    7    9 1   
    21    9   10 1   
    22    9   15 1   
    23   10   11 1   
    24   10   13 1   
    25   10   37 1   
    26   11   12 2   
    27   11   16 1   
    28   13   14 1   
    29   13   38 1   
    30   13   39 1   
    31   14   15 1   
    32   14   40 1   
    33   14   41 1   
    34   15   42 1   
    35   15   43 1   
    36   16   17 1   
    37   16   44 1   
    38   17   18 1   
    39   17   20 1   
    40   17   45 1   
    41   18   19 1   
    42   18   24 1   
    43   20   21 1   
    44   20   22 1   
    45   20   46 1   
    46   21   23 1   
    47   21   47 1   
    48   21   48 1   
    49   22   49 1   
    50   22   50 1   
    51   22   51 1   
    52   23   52 1   
    53   23   53 1   
    54   23   54 1   
@<TRIPOS>SUBSTRUCTURE
     1 0QG         1 TEMP              0 ****  ****    0 ROOT
