@<TRIPOS>MOLECULE
0QG
   54    54     1     0     0
SMALL
bcc


@<TRIPOS>ATOM
      1 N           5.0450    0.1760   -1.4290 n3        1 0QG     -0.892800
      2 CA          4.0440    0.1860   -0.3790 c3        1 0QG      0.113500
      3 CB          3.9940    1.5290    0.4020 c3        1 0QG     -0.037000
      4 CG1         3.7300    2.7080   -0.5200 c3        1 0QG     -0.096100
      5 CG2         2.8920    1.4560    1.4500 c3        1 0QG     -0.096100
      6 CG3         5.3280    1.7330    1.1100 c3        1 0QG     -0.096100
      7 C           2.6370   -0.1490   -0.9420 c         1 0QG      0.635100
      8 O           2.2390    0.4300   -1.9780 o         1 0QG     -0.633100
      9 N1          1.8810   -1.1410   -0.3660 n         1 0QG     -0.451800
     10 CA1         0.5030   -1.4150   -0.7530 c3        1 0QG      0.023700
     11 C1         -0.5310   -0.3860   -0.2260 c         1 0QG      0.636100
     12 O1         -0.2050    0.5320    0.5530 o         1 0QG     -0.620100
     13 CB1         0.1600   -2.8030   -0.1580 c3        1 0QG     -0.109400
     14 CG          1.2070   -3.0620    0.9200 c3        1 0QG     -0.085400
     15 CD          2.2960   -1.9890    0.7330 c3        1 0QG      0.095000
     16 N2         -1.8150   -0.5230   -0.7390 n         1 0QG     -0.488900
     17 CA2        -2.9580   -0.2240    0.1200 c3        1 0QG     -0.062300
     18 C2         -3.4990   -1.5180    0.8310 c         1 0QG      0.901600
     19 O2         -3.0630   -2.6420    0.4410 o         1 0QG     -0.837800
     20 CB2        -4.0820    0.4710   -0.6790 c3        1 0QG     -0.036700
     21 CG11       -5.0210    1.1650    0.2980 c3        1 0QG     -0.092400
     22 CG21       -4.8170   -0.5240   -1.5510 c3        1 0QG     -0.087100
     23 CD1        -6.0950    1.9670   -0.3890 c3        1 0QG     -0.083100
     24 OXT        -4.3220   -1.3650    1.7700 o         1 0QG     -0.837800
     25 H           4.9690   -0.6720   -1.9570 hn        1 0QG      0.351800
     26 H2          4.8960    0.9480   -2.0530 hn        1 0QG      0.351800
     27 HA          4.3570   -0.6080    0.3640 h1        1 0QG      0.063700
     28 HG11        2.8680    2.4880   -1.1980 hc        1 0QG      0.041700
     29 HG12        3.4840    3.6140    0.0860 hc        1 0QG      0.041700
     30 HG13        4.6280    2.9420   -1.1410 hc        1 0QG      0.041700
     31 HG21        3.0660    0.5960    2.1400 hc        1 0QG      0.041700
     32 HG22        2.8850    2.3940    2.0560 hc        1 0QG      0.041700
     33 HG23        1.8860    1.3390    0.9720 hc        1 0QG      0.041700
     34 HG31        6.1610    1.8260    0.3740 hc        1 0QG      0.041700
     35 HG32        5.2890    2.6670    1.7210 hc        1 0QG      0.041700
     36 HG33        5.5450    0.8730    1.7880 hc        1 0QG      0.041700
     37 HA1         0.4500   -1.4200   -1.8800 h1        1 0QG      0.081700
     38 HB2        -0.8830   -2.8340    0.2640 hc        1 0QG      0.091200
     39 HB3         0.2240   -3.5750   -0.9630 hc        1 0QG      0.091200
     40 HG2         0.7530   -2.9740    1.9380 hc        1 0QG      0.050700
     41 HG3         1.6450   -4.0830    0.8210 hc        1 0QG      0.050700
     42 HD2         3.2840   -2.4680    0.4910 h1        1 0QG      0.035700
     43 HD3         2.4180   -1.3830    1.6740 h1        1 0QG      0.035700
     44 H1         -1.9650   -1.3900   -1.2250 hn        1 0QG      0.291500
     45 HA2        -2.6150    0.4820    0.9310 h1        1 0QG      0.074700
     46 HB         -3.6270    1.2600   -1.3430 hc        1 0QG      0.028700
     47 HG14       -5.4770    0.3880    0.9720 hc        1 0QG      0.063200
     48 HG15       -4.4150    1.8500    0.9510 hc        1 0QG      0.063200
     49 HG24       -5.6200   -0.0160   -2.1380 hc        1 0QG      0.029367
     50 HG25       -4.1130   -1.0090   -2.2690 hc        1 0QG      0.029367
     51 HG26       -5.2780   -1.3220   -0.9180 hc        1 0QG      0.029367
     52 HD11       -6.6540    2.5810    0.3590 hc        1 0QG      0.016700
     53 HD12       -5.6540    2.6560   -1.1500 hc        1 0QG      0.016700
     54 HD13       -6.8250    1.2980   -0.9040 hc        1 0QG      0.016700
@<TRIPOS>BOND
     1    1    2 1   
     2    1   25 1   
     3    1   26 1   
     4    2    3 1   
     5    2    7 1   
     6    2   27 1   
     7    3    4 1   
     8    3    5 1   
     9    3    6 1   
    10    4   28 1   
    11    4   29 1   
    12    4   30 1   
    13    5   31 1   
    14    5   32 1   
    15    5   33 1   
    16    6   34 1   
    17    6   35 1   
    18    6   36 1   
    19    7    8 2   
    20    7    9 1   
    21    9   10 1   
    22    9   15 1   
    23   10   11 1   
    24   10   13 1   
    25   10   37 1   
    26   11   12 2   
    27   11   16 1   
    28   13   14 1   
    29   13   38 1   
    30   13   39 1   
    31   14   15 1   
    32   14   40 1   
    33   14   41 1   
    34   15   42 1   
    35   15   43 1   
    36   16   17 1   
    37   16   44 1   
    38   17   18 1   
    39   17   20 1   
    40   17   45 1   
    41   18   19 1   
    42   18   24 1   
    43   20   21 1   
    44   20   22 1   
    45   20   46 1   
    46   21   23 1   
    47   21   47 1   
    48   21   48 1   
    49   22   49 1   
    50   22   50 1   
    51   22   51 1   
    52   23   52 1   
    53   23   53 1   
    54   23   54 1   
@<TRIPOS>SUBSTRUCTURE
     1 0QG         1 TEMP              0 ****  ****    0 ROOT
