@<TRIPOS>MOLECULE
0QH
   73    68     1     0     0
SMALL
bcc


@<TRIPOS>ATOM
      1 C1          1.9950    1.6600    3.0670 c1        1 0QH      0.268000
      2 C2          2.1530    0.7810    4.2700 c2        1 0QH      0.417000
      3 O           1.0090    2.3470    2.9500 o         1 0QH     -0.310000
      4 F1          1.1840    1.0750    5.1710 f         1 0QH     -0.136667
      5 F2          2.0470   -0.4860    3.9070 f         1 0QH     -0.136667
      6 F3          3.3410    0.9870    4.8150 f         1 0QH     -0.136667
      7 N           3.0750    1.7810    2.1060 n3        1 0QH     -0.361000
      8 CA          2.8820    2.5940    0.9000 c3        1 0QH      0.034000
      9 C           2.5240    1.7150   -0.2400 c2        1 0QH      0.274000
     10 O1          3.3690    0.9810   -0.7350 o         1 0QH     -0.301000
     11 CB          4.1660    3.3560    0.5800 c3        1 0QH     -0.169000
     12 CG          4.5850    4.2140    1.8330 c3        1 0QH     -0.110000
     13 CD1         6.0160    3.8090    2.2900 c3        1 0QH     -0.213500
     14 CD2         4.5680    5.7220    1.4640 c3        1 0QH     -0.213500
     15 N1          0.6990    0.8160   -1.7040 n4        1 0QH      0.126000
     16 N2          1.1770    1.8410   -0.8810 n         1 0QH     -0.324000
     17 C3          1.2980    0.9090   -2.9670 c3        1 0QH     -0.054000
     18 C11         0.5060   -0.0230   -3.9960 c2        1 0QH     -0.174000
     19 C21        -0.3800    0.5370   -4.9150 c2        1 0QH     -0.112000
     20 C31        -1.0290   -0.2890   -5.8590 c1        1 0QH     -0.122000
     21 C4         -0.7800   -1.6710   -5.8700 c1        1 0QH     -0.100000
     22 C5          0.1060   -2.2270   -4.9500 c1        1 0QH     -0.100000
     23 C6          0.7520   -1.4070   -4.0110 c1        1 0QH     -0.100000
     24 C1M         1.0130   -0.4140   -1.1320 c3        1 0QH     -0.217000
     25 CA2        -0.7560    0.9350   -1.8500 c3        1 0QH     -0.168000
     26 CA1        -1.4530   -0.2560   -1.1140 c2        1 0QH      0.300000
     27 O2         -0.9810   -1.3630   -1.1780 o         1 0QH     -0.374000
     28 C12        -3.4160   -1.1650    0.1400 c1        1 0QH      0.021000
     29 N11        -2.7120   -0.0490   -0.4500 n2        1 0QH     -0.277000
     30 C22        -2.8110   -2.3820    0.2330 c2        1 0QH     -0.126000
     31 C32        -3.4680   -3.4440    0.8690 c1        1 0QH     -0.104000
     32 C41        -4.7270   -3.2580    1.4000 c1        1 0QH     -0.051000
     33 C51        -5.3400   -2.0190    1.3030 c1        1 0QH     -0.104000
     34 C61        -4.6930   -0.9770    0.6780 c1        1 0QH     -0.152000
     35 C1'        -5.3910   -4.3990    2.2680 c3        1 0QH     -0.075000
     36 C2'        -5.6890   -5.6280    1.3700 c3        1 0QH     -0.208000
     37 C3'        -4.4340   -4.8090    3.3870 c3        1 0QH     -0.208000
     38 H           3.9000    1.4360    2.2990 hn        1 0QH      0.266000
     39 HA          2.1710    3.2220    1.0540 h1        1 0QH      0.149000
     40 HB2         4.0060    3.9670   -0.2080 hc        1 0QH      0.116500
     41 HB3         4.8910    2.7110    0.3590 hc        1 0QH      0.116500
     42 HG          3.9370    4.0480    2.5800 hc        1 0QH      0.090000
     43 HD11        6.6540    3.9830    1.5610 hc        1 0QH      0.083667
     44 HD12        6.0300    2.8440    2.5200 hc        1 0QH      0.083667
     45 HD13        6.2750    4.3500    3.0970 hc        1 0QH      0.083667
     46 HD21        3.7050    5.9580    1.1130 hc        1 0QH      0.083667
     47 HD22        4.7510    6.2550    2.2650 hc        1 0QH      0.083667
     48 HD23        5.2530    5.9010    0.7930 hc        1 0QH      0.083667
     49 HN22        0.6430    2.5660   -0.6920 hn        1 0QH      0.286000
     50 H1          1.2720    1.8540   -3.2810 hx        1 0QH      0.156500
     51 H2A         2.2220    0.6120   -2.9100 hx        1 0QH      0.156500
     52 H2         -0.5530    1.5020   -4.9060 ha        1 0QH      0.134000
     53 H3         -1.6480    0.0990   -6.5020 ha        1 0QH      0.157000
     54 H4         -1.2390   -2.2570   -6.5380 ha        1 0QH      0.160000
     55 H5          0.2780   -3.1830   -4.9580 ha        1 0QH      0.160000
     56 H6          1.3760   -1.8020   -3.3630 ha        1 0QH      0.144000
     57 H1M1        1.9650   -0.6350   -1.3260 hx        1 0QH      0.153000
     58 H1M2        0.4370   -1.1030   -1.5050 hx        1 0QH      0.153000
     59 H1M3        0.8810   -0.3670   -0.1720 hx        1 0QH      0.153000
     60 HA21       -1.0580    1.7850   -1.4600 hx        1 0QH      0.164000
     61 HA22       -0.9900    0.9100   -2.8050 hx        1 0QH      0.164000
     62 HN12       -3.0470    0.7980   -0.3630 hn        1 0QH      0.240000
     63 H21        -1.9370   -2.5120   -0.1350 ha        1 0QH      0.160000
     64 H31        -3.0260   -4.3360    0.9380 ha        1 0QH      0.149000
     65 H51        -6.2520   -1.8820    1.6870 ha        1 0QH      0.148000
     66 H61        -5.1240   -0.1070    0.6110 ha        1 0QH      0.133000
     67 H1'        -6.2420   -4.0620    2.6640 hc        1 0QH      0.097000
     68 H2'1       -6.0940   -5.3310    0.5350 hc        1 0QH      0.081000
     69 H2'2       -4.8490   -6.1050    1.1770 hc        1 0QH      0.081000
     70 H2'3       -6.3130   -6.2370    1.8410 hc        1 0QH      0.081000
     71 H3'1       -4.9240   -5.3110    4.0670 hc        1 0QH      0.081000
     72 H3'2       -3.7230   -5.3680    3.0180 hc        1 0QH      0.081000
     73 H3'3       -4.0360   -3.9950    3.7990 hc        1 0QH      0.081000
@<TRIPOS>BOND
     1    1    3 1   
     2    1    7 1   
     3    2    4 1   
     4    2    5 1   
     5    2    6 1   
     6    7    8 1   
     7    7   38 1   
     8    8    9 1   
     9    8   11 1   
    10    8   39 1   
    11    9   10 1   
    12    9   16 1   
    13   11   12 1   
    14   11   40 1   
    15   11   41 1   
    16   12   13 1   
    17   12   14 1   
    18   12   42 1   
    19   13   43 1   
    20   13   44 1   
    21   13   45 1   
    22   14   46 1   
    23   14   47 1   
    24   14   48 1   
    25   15   16 1   
    26   15   17 1   
    27   15   24 1   
    28   15   25 1   
    29   16   49 1   
    30   17   18 1   
    31   17   50 1   
    32   17   51 1   
    33   18   19 1   
    34   18   23 1   
    35   19   20 1   
    36   19   52 1   
    37   20   53 1   
    38   21   22 1   
    39   21   54 1   
    40   22   55 1   
    41   23   56 1   
    42   24   57 1   
    43   24   58 1   
    44   24   59 1   
    45   25   26 1   
    46   25   60 1   
    47   25   61 1   
    48   26   27 1   
    49   26   29 1   
    50   28   30 1   
    51   28   34 1   
    52   29   62 1   
    53   30   31 1   
    54   30   63 1   
    55   31   64 1   
    56   32   33 1   
    57   32   35 1   
    58   33   65 1   
    59   34   66 1   
    60   35   36 1   
    61   35   37 1   
    62   35   67 1   
    63   36   68 1   
    64   36   69 1   
    65   36   70 1   
    66   37   71 1   
    67   37   72 1   
    68   37   73 1   
@<TRIPOS>SUBSTRUCTURE
     1 0QH         1 TEMP              0 ****  ****    0 ROOT
