@<TRIPOS>MOLECULE
0QH
   73    74     1     0     0
SMALL
bcc


@<TRIPOS>ATOM
      1 C1         -2.3720    1.9770   -1.1490 c         1 0QH      0.637100
      2 C2         -2.8510    3.3270   -1.8080 c3        1 0QH      0.584900
      3 O          -1.4660    1.3130   -1.6820 o         1 0QH     -0.601100
      4 F1         -2.3240    3.5140   -3.0510 f         1 0QH     -0.205967
      5 F2         -4.2100    3.3960   -1.9530 f         1 0QH     -0.205967
      6 F3         -2.5000    4.4210   -1.0670 f         1 0QH     -0.205967
      7 N          -2.9870    1.6180    0.0170 n         1 0QH     -0.540900
      8 CA         -2.6120    0.4370    0.7640 c3        1 0QH      0.060700
      9 C          -2.1500   -0.6860   -0.2040 c         1 0QH      0.629100
     10 O1         -2.9440   -1.3120   -0.9120 o         1 0QH     -0.529100
     11 CB         -3.7540   -0.1440    1.6120 c3        1 0QH     -0.093400
     12 CG         -4.1030    0.7220    2.8130 c3        1 0QH     -0.068700
     13 CD1        -5.4590    0.3090    3.3530 c3        1 0QH     -0.098100
     14 CD2        -3.0550    0.6120    3.9020 c3        1 0QH     -0.098100
     15 N1         -0.1230   -1.7690   -1.1470 n4        1 0QH     -0.389800
     16 N2         -0.7490   -0.9930   -0.1320 n         1 0QH     -0.398300
     17 C3         -0.7510   -3.1770   -1.2830 c3        1 0QH      0.190100
     18 C11        -0.6970   -4.0000   -0.0470 ca        1 0QH     -0.160300
     19 C21        -1.7360   -3.9320    0.8890 ca        1 0QH     -0.100500
     20 C31        -1.7220   -4.7610    2.0100 ca        1 0QH     -0.123000
     21 C4         -0.6740   -5.6620    2.2000 ca        1 0QH     -0.083000
     22 C5          0.3620   -5.7370    1.2660 ca        1 0QH     -0.123000
     23 C6          0.3530   -4.9090    0.1470 ca        1 0QH     -0.100500
     24 C1M        -0.2000   -1.1250   -2.5160 c3        1 0QH      0.065100
     25 CA2         1.3430   -1.9960   -0.8040 c3        1 0QH      0.026800
     26 CA1         2.2050   -0.7220   -0.6970 c         1 0QH      0.653100
     27 O2          1.6690    0.4040   -0.6770 o         1 0QH     -0.602100
     28 C12         4.5520    0.0430   -0.4600 ca        1 0QH      0.012600
     29 N11         3.5530   -0.9480   -0.6390 n         1 0QH     -0.429100
     30 C22         5.8090   -0.3610    0.0430 ca        1 0QH     -0.140000
     31 C32         6.8270    0.5720    0.2020 ca        1 0QH     -0.104500
     32 C41         6.6280    1.9190   -0.1240 ca        1 0QH     -0.058300
     33 C51         5.3810    2.3140   -0.6190 ca        1 0QH     -0.104500
     34 C61         4.3480    1.3960   -0.7910 ca        1 0QH     -0.140000
     35 C1'         7.7350    2.9090    0.0560 c3        1 0QH     -0.028400
     36 C2'         8.1280    3.5330   -1.2700 c3        1 0QH     -0.090600
     37 C3'         7.3460    3.9830    1.0550 c3        1 0QH     -0.090600
     38 H          -3.7980    2.1110    0.3250 hn        1 0QH      0.357500
     39 HA         -1.7610    0.7280    1.4560 h1        1 0QH      0.092700
     40 HB2        -4.6620   -0.2920    0.9680 hc        1 0QH      0.074200
     41 HB3        -3.4290   -1.1580    1.9680 hc        1 0QH      0.074200
     42 HG         -4.1690    1.8000    2.4940 hc        1 0QH      0.048700
     43 HD11       -5.4480   -0.7630    3.6650 hc        1 0QH      0.045200
     44 HD12       -5.7230    0.9330    4.2420 hc        1 0QH      0.045200
     45 HD13       -6.2500    0.4470    2.5770 hc        1 0QH      0.045200
     46 HD21       -2.9550   -0.4460    4.2480 hc        1 0QH      0.045200
     47 HD22       -2.0600    0.9640    3.5400 hc        1 0QH      0.045200
     48 HD23       -3.3490    1.2400    4.7780 hc        1 0QH      0.045200
     49 HN22       -0.2040   -0.1390    0.0120 hn        1 0QH      0.355500
     50 H1         -1.8220   -3.0300   -1.6150 hx        1 0QH      0.112700
     51 H2A        -0.1770   -3.6770   -2.1150 hx        1 0QH      0.112700
     52 H2         -2.5710   -3.2300    0.7300 ha        1 0QH      0.135500
     53 H3         -2.5450   -4.7100    2.7400 ha        1 0QH      0.154500
     54 H4         -0.6670   -6.3210    3.0830 ha        1 0QH      0.157000
     55 H5          1.1820   -6.4570    1.4110 ha        1 0QH      0.154500
     56 H6          1.1600   -4.9870   -0.5970 ha        1 0QH      0.135500
     57 H1M1        0.2780   -0.1040   -2.4800 hx        1 0QH      0.115367
     58 H1M2        0.3320   -1.7780   -3.2530 hx        1 0QH      0.115367
     59 H1M3       -1.2800   -1.0090   -2.8050 hx        1 0QH      0.115367
     60 HA21        1.3860   -2.5410    0.1860 hx        1 0QH      0.122200
     61 HA22        1.7480   -2.6650   -1.6150 hx        1 0QH      0.122200
     62 HN12        3.8770   -1.8890   -0.6000 hn        1 0QH      0.326500
     63 H21         6.0010   -1.4110    0.3090 ha        1 0QH      0.147500
     64 H31         7.8020    0.2410    0.5930 ha        1 0QH      0.149000
     65 H51         5.2080    3.3700   -0.8810 ha        1 0QH      0.149000
     66 H61         3.3780    1.7450   -1.1800 ha        1 0QH      0.147500
     67 H1'         8.6380    2.3670    0.4650 hc        1 0QH      0.057700
     68 H2'1        7.2710    4.0990   -1.7100 hc        1 0QH      0.041533
     69 H2'2        8.9790    4.2390   -1.1190 hc        1 0QH      0.041533
     70 H2'3        8.4430    2.7440   -1.9950 hc        1 0QH      0.041533
     71 H3'1        7.0870    3.5260    2.0390 hc        1 0QH      0.041533
     72 H3'2        8.1990    4.6890    1.2020 hc        1 0QH      0.041533
     73 H3'3        6.4650    4.5640    0.6880 hc        1 0QH      0.041533
@<TRIPOS>BOND
     1    1    2 1   
     2    1    3 2   
     3    1    7 1   
     4    2    4 1   
     5    2    5 1   
     6    2    6 1   
     7    7    8 1   
     8    7   38 1   
     9    8    9 1   
    10    8   11 1   
    11    8   39 1   
    12    9   10 2   
    13    9   16 1   
    14   11   12 1   
    15   11   40 1   
    16   11   41 1   
    17   12   13 1   
    18   12   14 1   
    19   12   42 1   
    20   13   43 1   
    21   13   44 1   
    22   13   45 1   
    23   14   46 1   
    24   14   47 1   
    25   14   48 1   
    26   15   16 1   
    27   15   17 1   
    28   15   24 1   
    29   15   25 1   
    30   16   49 1   
    31   17   18 1   
    32   17   50 1   
    33   17   51 1   
    34   18   19 ar  
    35   18   23 ar  
    36   19   20 ar  
    37   19   52 1   
    38   20   21 ar  
    39   20   53 1   
    40   21   22 ar  
    41   21   54 1   
    42   22   23 ar  
    43   22   55 1   
    44   23   56 1   
    45   24   57 1   
    46   24   58 1   
    47   24   59 1   
    48   25   26 1   
    49   25   60 1   
    50   25   61 1   
    51   26   27 2   
    52   26   29 1   
    53   28   29 1   
    54   28   30 ar  
    55   28   34 ar  
    56   29   62 1   
    57   30   31 ar  
    58   30   63 1   
    59   31   32 ar  
    60   31   64 1   
    61   32   33 ar  
    62   32   35 1   
    63   33   34 ar  
    64   33   65 1   
    65   34   66 1   
    66   35   36 1   
    67   35   37 1   
    68   35   67 1   
    69   36   68 1   
    70   36   69 1   
    71   36   70 1   
    72   37   71 1   
    73   37   72 1   
    74   37   73 1   
@<TRIPOS>SUBSTRUCTURE
     1 0QH         1 TEMP              0 ****  ****    0 ROOT
