@<TRIPOS>MOLECULE
0QI
   47    47     1     0     0
SMALL
bcc


@<TRIPOS>ATOM
      1 C1          0.9640    0.7820    0.9670 c         1 0QI      0.640100
      2 O1          0.2000    1.1840    1.8710 o         1 0QI     -0.641100
      3 C2          2.3290    1.4500    0.7400 c3        1 0QI     -0.149700
      4 CH          2.4540    2.7290    1.5390 c3        1 0QI      0.040700
      5 S           1.5260    4.0910    0.8810 sh        1 0QI     -0.451900
      6 C3          3.4280    0.4620    1.1290 c3        1 0QI     -0.091400
      7 C4          4.5090    0.3390    0.0620 c3        1 0QI     -0.058700
      8 CM          5.7340   -0.3310    0.6520 c3        1 0QI     -0.100100
      9 C5          4.0020   -0.4580   -1.1230 c3        1 0QI     -0.100100
     10 N           0.6200   -0.2180    0.0710 n         1 0QI     -0.487900
     11 CA         -0.2020   -1.3360    0.5100 c3        1 0QI     -0.065300
     12 C           0.6580   -2.6310    0.7760 c         1 0QI      0.903600
     13 O           1.8960   -2.5890    0.5200 o         1 0QI     -0.831300
     14 CB         -1.2830   -1.7060   -0.5130 c3        1 0QI     -0.032100
     15 CG         -2.3650   -0.6940   -0.6330 ca        1 0QI     -0.068300
     16 CD1        -2.5740   -0.0070   -1.8360 ca        1 0QI     -0.098500
     17 CD2        -3.2070   -0.4270    0.4540 ca        1 0QI     -0.098500
     18 CE1        -3.5990    0.9250   -1.9620 ca        1 0QI     -0.178000
     19 CE2        -4.2400    0.5020    0.3500 ca        1 0QI     -0.178000
     20 CZ         -4.4330    1.1760   -0.8610 ca        1 0QI      0.091100
     21 OH         -5.4430    2.1020   -1.0880 os        1 0QI     -0.340900
     22 OXT         0.0440   -3.6270    1.2360 o         1 0QI     -0.831300
     23 C6         -6.1340    2.5520    0.0690 c3        1 0QI      0.118700
     24 H2          2.4200    1.7070   -0.3550 hc        1 0QI      0.077700
     25 HH1         2.1440    2.5420    2.5960 h1        1 0QI      0.075200
     26 HH2         3.5140    3.0830    1.5240 h1        1 0QI      0.075200
     27 HS          0.2970    3.6000    1.0240 hs        1 0QI      0.247800
     28 H31         3.8980    0.7910    2.0940 hc        1 0QI      0.072200
     29 H32         2.9970   -0.5650    1.3100 hc        1 0QI      0.072200
     30 H4          4.7990    1.3710   -0.2850 hc        1 0QI      0.025700
     31 HM1         5.4730   -1.3520    1.0210 hc        1 0QI      0.037867
     32 HM2         6.5340   -0.4250   -0.1200 hc        1 0QI      0.037867
     33 HM3         6.1350    0.2660    1.5070 hc        1 0QI      0.037867
     34 H51         3.5410   -1.4210   -0.7760 hc        1 0QI      0.037867
     35 H52         3.2290    0.1220   -1.6830 hc        1 0QI      0.037867
     36 H53         4.8410   -0.6900   -1.8230 hc        1 0QI      0.037867
     37 H           1.3950   -0.5470   -0.4820 hn        1 0QI      0.299500
     38 HA         -0.7040   -1.0610    1.4820 h1        1 0QI      0.073700
     39 HB2        -0.8110   -1.8900   -1.5140 hc        1 0QI      0.062200
     40 HB3        -1.7230   -2.6820   -0.1610 hc        1 0QI      0.062200
     41 HD1        -1.9110   -0.2010   -2.6930 ha        1 0QI      0.137000
     42 HD2        -3.0410   -0.9550    1.4060 ha        1 0QI      0.137000
     43 HE1        -3.7630    1.4670   -2.9020 ha        1 0QI      0.128500
     44 HE2        -4.8840    0.6990    1.2170 ha        1 0QI      0.128500
     45 HC1        -6.7490    1.7250    0.5030 h1        1 0QI      0.035033
     46 HC2        -5.4230    2.9480    0.8330 h1        1 0QI      0.035033
     47 HC3        -6.7950    3.3690   -0.3160 h1        1 0QI      0.035033
@<TRIPOS>BOND
     1    1    2 2   
     2    1    3 1   
     3    1   10 1   
     4    3    4 1   
     5    3    6 1   
     6    3   24 1   
     7    4    5 1   
     8    4   25 1   
     9    4   26 1   
    10    5   27 1   
    11    6    7 1   
    12    6   28 1   
    13    6   29 1   
    14    7    8 1   
    15    7    9 1   
    16    7   30 1   
    17    8   31 1   
    18    8   32 1   
    19    8   33 1   
    20    9   34 1   
    21    9   35 1   
    22    9   36 1   
    23   10   11 1   
    24   10   37 1   
    25   11   12 1   
    26   11   14 1   
    27   11   38 1   
    28   12   13 1   
    29   12   22 1   
    30   14   15 1   
    31   14   39 1   
    32   14   40 1   
    33   15   16 ar  
    34   15   17 ar  
    35   16   18 ar  
    36   16   41 1   
    37   17   19 ar  
    38   17   42 1   
    39   18   20 ar  
    40   18   43 1   
    41   19   20 ar  
    42   19   44 1   
    43   20   21 1   
    44   21   23 1   
    45   23   45 1   
    46   23   46 1   
    47   23   47 1   
@<TRIPOS>SUBSTRUCTURE
     1 0QI         1 TEMP              0 ****  ****    0 ROOT
