@<TRIPOS>MOLECULE
0QI
   47    44     1     0     0
SMALL
bcc


@<TRIPOS>ATOM
      1 C1          1.1090   -1.1230    0.1070 c1        1 0QI      0.290000
      2 O1          0.5770   -2.2100    0.3650 o         1 0QI     -0.387000
      3 C2          2.5880   -0.9420    0.3240 c2        1 0QI     -0.136000
      4 CH          2.8310   -0.3700    1.7030 c3        1 0QI     -0.231000
      5 S           2.3960    1.3750    1.7160 sh        1 0QI     -0.161000
      6 C3          3.3050   -2.3150    0.2000 c3        1 0QI     -0.146000
      7 C4          4.8460   -2.1120    0.3420 c3        1 0QI     -0.111000
      8 CM          5.5540   -2.6430   -0.9300 c3        1 0QI     -0.205000
      9 C5          5.3410   -2.8700    1.5700 c3        1 0QI     -0.205000
     10 N           0.3530   -0.0990   -0.5710 n3        1 0QI     -0.301000
     11 CA         -1.0440   -0.0170   -0.3840 c3        1 0QI     -0.075000
     12 C          -1.5860   -1.3730   -0.0460 c2        1 0QI      0.321000
     13 O          -1.7050   -1.7200    1.1590 o         1 0QI     -0.576500
     14 CB         -1.6990    0.4870   -1.6760 c3        1 0QI     -0.117000
     15 CG         -2.9310    1.3180   -1.3370 c2        1 0QI     -0.077000
     16 CD1        -2.9890    2.6750   -1.7190 c2        1 0QI     -0.109000
     17 CD2        -4.0190    0.7260   -0.7040 c1        1 0QI     -0.093000
     18 CE1        -4.1290    3.4190   -1.4630 c1        1 0QI     -0.172000
     19 CE2        -5.1830    1.4860   -0.4430 c1        1 0QI     -0.207000
     20 CZ         -5.2370    2.8190   -0.8190 c1        1 0QI      0.046000
     21 OH         -6.3810    3.5730   -0.5560 os        1 0QI     -0.226000
     22 OXT        -2.0340   -2.1240   -0.9730 o         1 0QI     -0.576500
     23 C6         -6.5760    3.8680    0.8280 c3        1 0QI     -0.070000
     24 H2          2.9470   -0.3200   -0.3590 ha        1 0QI      0.115000
     25 HH1         3.8020   -0.4770    1.9460 h1        1 0QI      0.129500
     26 HH2         2.2680   -0.8550    2.3700 h1        1 0QI      0.129500
     27 HS          2.6430    1.8270    2.7550 hs        1 0QI      0.139000
     28 H31         3.1070   -2.7100   -0.6710 hc        1 0QI      0.096000
     29 H32         2.9800   -2.9300    0.9270 hc        1 0QI      0.096000
     30 H4          5.0440   -1.1510    0.4500 hc        1 0QI      0.090000
     31 HM1         5.2420   -3.5160   -1.1250 hc        1 0QI      0.068000
     32 HM2         5.3530   -2.0460   -1.6890 hc        1 0QI      0.068000
     33 HM3         6.5190   -2.6670   -0.7820 hc        1 0QI      0.068000
     34 H51         6.3000   -2.8440    1.5990 hc        1 0QI      0.068000
     35 H52         4.9930   -2.4630    2.3460 hc        1 0QI      0.068000
     36 H53         5.0410   -3.7950    1.5270 hc        1 0QI      0.068000
     37 H           0.7780    0.5370   -1.0290 hn        1 0QI      0.206000
     38 HA         -1.2440    0.6250    0.3700 h1        1 0QI      0.091000
     39 HB2        -1.9640   -0.2870   -2.2330 hc        1 0QI      0.111500
     40 HB3        -1.0280    1.0700   -2.1940 hc        1 0QI      0.111500
     41 HD1        -2.2230    3.0930   -2.1680 ha        1 0QI      0.129000
     42 HD2        -3.9800   -0.1970   -0.4440 ha        1 0QI      0.199000
     43 HE1        -4.1670    4.3610   -1.7290 ha        1 0QI      0.129000
     44 HE2        -5.9470    1.0730    0.0010 ha        1 0QI      0.125000
     45 HC1        -6.8370    3.0660    1.2940 h1        1 0QI      0.073000
     46 HC2        -5.7160    4.2210    1.2220 h1        1 0QI      0.073000
     47 HC3        -7.2970    4.5580    0.9240 h1        1 0QI      0.073000
@<TRIPOS>BOND
     1    1    2 1   
     2    1   10 1   
     3    3    4 1   
     4    3    6 1   
     5    3   24 1   
     6    4    5 1   
     7    4   25 1   
     8    4   26 1   
     9    5   27 1   
    10    6    7 1   
    11    6   28 1   
    12    6   29 1   
    13    7    8 1   
    14    7    9 1   
    15    7   30 1   
    16    8   31 1   
    17    8   32 1   
    18    8   33 1   
    19    9   34 1   
    20    9   35 1   
    21    9   36 1   
    22   10   11 1   
    23   10   37 1   
    24   11   12 1   
    25   11   14 1   
    26   11   38 1   
    27   12   13 1   
    28   12   22 1   
    29   14   15 1   
    30   14   39 1   
    31   14   40 1   
    32   15   16 1   
    33   15   17 1   
    34   16   18 1   
    35   16   41 1   
    36   17   42 1   
    37   18   43 1   
    38   19   20 1   
    39   19   44 1   
    40   20   21 1   
    41   21   23 1   
    42   23   45 1   
    43   23   46 1   
    44   23   47 1   
@<TRIPOS>SUBSTRUCTURE
     1 0QI         1 TEMP              0 ****  ****    0 ROOT
