@<TRIPOS>MOLECULE
0QJ
   73    74     1     0     0
SMALL
bcc


@<TRIPOS>ATOM
      1 C2          2.5070   -4.0240   -0.4510 c1        1 0QJ     -0.027000
      2 C4          4.1340   -2.8480    0.9170 c2        1 0QJ      0.235000
      3 C5          3.2240   -2.9810    2.0300 c2        1 0QJ     -0.228000
      4 C6          1.9510   -3.6580    1.7930 c2        1 0QJ      0.242000
      5 C8          3.8330   -2.0940    4.3480 c1        1 0QJ      0.061000
      6 CBA        11.4880  -10.8500   -3.1520 c3        1 0QJ     -0.207333
      7 CBB        11.7570  -11.6620   -0.8290 c3        1 0QJ     -0.207333
      8 CBC        13.6440  -10.5180   -1.9490 c3        1 0QJ     -0.207333
      9 CAY        11.6500   -9.2000   -1.3200 c2        1 0QJ     -0.008000
     10 CBD        11.8850   -8.0690   -2.0450 c2        1 0QJ     -0.203000
     11 CBE        11.4270   -6.7860   -1.6190 c2        1 0QJ      0.020000
     12 CAX        10.9090   -9.1030   -0.0380 c3        1 0QJ     -0.194000
     13 CAW        10.4640   -7.7950    0.3960 c1        1 0QJ     -0.119000
     14 CAV        10.7230   -6.6680   -0.4350 c2        1 0QJ     -0.103000
     15 NAU        10.1620   -5.4490    0.0350 n         1 0QJ     -0.245000
     16 CAT        10.7010   -4.2260   -0.2500 c2        1 0QJ      0.321000
     17 OBF        11.5900   -3.9550   -1.0730 o         1 0QJ     -0.297000
     18 NAS        10.1040   -3.0180    0.4510 n4        1 0QJ     -0.101000
     19 CAR        10.6900   -2.8240    1.8110 c3        1 0QJ     -0.115000
     20 CAQ         9.8760   -1.8640    2.6640 c3        1 0QJ     -0.201000
     21 CAP        10.0380   -0.3950    2.2360 c3        1 0QJ     -0.043000
     22 NAN         8.8090    0.3450    2.4220 n3        1 0QJ     -0.291000
     23 CAO         8.9610    1.5300    3.2350 c3        1 0QJ     -0.106000
     24 CAM         7.9910    0.5930    1.2430 c3        1 0QJ     -0.072000
     25 CAL         7.9930   -0.4530    0.1340 c3        1 0QJ      0.053000
     26 OBG         7.6120   -1.7900    0.6480 os        1 0QJ     -0.399000
     27 CAJ         7.0270   -0.1070   -0.9510 c1        1 0QJ     -0.427000
     28 OAK         7.9670    2.4510   -1.6210 oh        1 0QJ     -0.480000
     29 CAH         6.1240   -1.0980   -1.0160 c2        1 0QJ     -0.193000
     30 OAI         5.0760   -1.3160   -1.8810 oh        1 0QJ     -0.284000
     31 CAG         6.3680   -2.1840    0.0320 c3        1 0QJ      0.168000
     32 N9          5.3910   -2.3090    1.1010 n3        1 0QJ     -0.327000
     33 N7          3.5530   -2.4970    3.2730 n2        1 0QJ     -0.251000
     34 N3          3.7200   -3.3720   -0.3030 n3        1 0QJ     -0.231000
     35 N1          1.6480   -4.1680    0.5550 n2        1 0QJ     -0.311000
     36 N6          1.0550   -3.8240    2.8200 n3        1 0QJ     -0.360000
     37 H1          4.2590   -3.1930   -1.1290 hn        1 0QJ      0.277000
     38 H2          5.5240   -1.6850    1.8680 hn        1 0QJ      0.243000
     39 H3         11.7700  -10.0740   -3.9020 hc        1 0QJ      0.084000
     40 H4         10.3760  -10.8770   -3.0610 hc        1 0QJ      0.084000
     41 H5         11.8410  -11.8440   -3.5180 hc        1 0QJ      0.084000
     42 H6         10.6500  -11.7330   -0.7050 hc        1 0QJ      0.084000
     43 H7         12.1260  -12.6380   -1.2300 hc        1 0QJ      0.084000
     44 H8         12.2260  -11.4950    0.1690 hc        1 0QJ      0.084000
     45 H9         14.1290  -10.2960   -0.9690 hc        1 0QJ      0.084000
     46 H10        13.9520   -9.7410   -2.6880 hc        1 0QJ      0.084000
     47 H11        14.0030  -11.5130   -2.3080 hc        1 0QJ      0.084000
     48 H13        12.4360   -8.1110   -2.9990 ha        1 0QJ      0.154000
     49 H14         9.9810   -9.7560   -0.0820 hc        1 0QJ      0.185500
     50 H15        11.5360   -9.5350    0.8030 hc        1 0QJ      0.185500
     51 H16         9.5220   -5.5670    0.7990 hn        1 0QJ      0.276000
     52 H17        10.3080   -2.1910   -0.1310 hn        1 0QJ      0.284500
     53 H18         9.0660   -3.0820    0.5230 hn        1 0QJ      0.284500
     54 H19        11.7440   -2.4470    1.6770 hx        1 0QJ      0.128500
     55 H20        10.7260   -3.8300    2.3170 hx        1 0QJ      0.128500
     56 H21         8.7890   -2.1580    2.6500 hc        1 0QJ      0.133500
     57 H22        10.2330   -1.9790    3.7220 hc        1 0QJ      0.133500
     58 H23        10.3980   -0.3500    1.1680 h1        1 0QJ      0.067500
     59 H25        10.8650    0.0510    2.8610 h1        1 0QJ      0.067500
     60 H26         9.4090    1.2430    4.2230 h1        1 0QJ      0.073667
     61 H27         9.6100    2.3150    2.7590 h1        1 0QJ      0.073667
     62 H28         7.9460    1.9720    3.4160 h1        1 0QJ      0.073667
     63 H29         6.9340    0.6920    1.6250 h1        1 0QJ      0.108500
     64 H30         8.2720    1.5680    0.7370 h1        1 0QJ      0.108500
     65 H31         9.0210   -0.5960   -0.2950 h1        1 0QJ      0.051000
     66 H32         7.6750    1.5090   -1.5210 ho        1 0QJ      0.217000
     67 H33         7.1520    2.9110   -1.8220 ho        1 0QJ      0.217000
     68 H34         4.8810   -0.4570   -2.2810 ho        1 0QJ      0.226000
     69 H35         6.5370   -3.2040   -0.4160 h2        1 0QJ      0.086000
     70 H36         0.1660   -4.2210    2.6290 hn        1 0QJ      0.234000
     71 H37         1.1810   -3.3500    3.6770 hn        1 0QJ      0.234000
     72 H12        11.6640   -5.9160   -2.2590 ha        1 0QJ      0.169000
     73 CAZ        12.1240  -10.5440   -1.7970 c3        1 0QJ     -0.039000
@<TRIPOS>BOND
     1    1   34 1   
     2    1   35 1   
     3    2    3 1   
     4    2   32 1   
     5    2   34 1   
     6    3    4 1   
     7    3   33 1   
     8    4   35 1   
     9    4   36 1   
    10    5   33 1   
    11    6   39 1   
    12    6   40 1   
    13    6   41 1   
    14    6   73 1   
    15    7   42 1   
    16    7   43 1   
    17    7   44 1   
    18    7   73 1   
    19    8   45 1   
    20    8   46 1   
    21    8   47 1   
    22    8   73 1   
    23    9   10 1   
    24    9   12 1   
    25    9   73 1   
    26   10   11 1   
    27   10   48 1   
    28   11   14 1   
    29   11   72 1   
    30   12   13 1   
    31   12   49 1   
    32   12   50 1   
    33   13   14 1   
    34   14   15 1   
    35   15   16 1   
    36   15   51 1   
    37   16   17 1   
    38   16   18 1   
    39   18   19 1   
    40   18   52 1   
    41   18   53 1   
    42   19   20 1   
    43   19   54 1   
    44   19   55 1   
    45   20   21 1   
    46   20   56 1   
    47   20   57 1   
    48   21   22 1   
    49   21   58 1   
    50   21   59 1   
    51   22   23 1   
    52   22   24 1   
    53   23   60 1   
    54   23   61 1   
    55   23   62 1   
    56   24   25 1   
    57   24   63 1   
    58   24   64 1   
    59   25   26 1   
    60   25   27 1   
    61   25   65 1   
    62   26   31 1   
    63   27   29 1   
    64   28   66 1   
    65   28   67 1   
    66   29   30 1   
    67   29   31 1   
    68   30   68 1   
    69   31   32 1   
    70   31   69 1   
    71   32   38 1   
    72   34   37 1   
    73   36   70 1   
    74   36   71 1   
@<TRIPOS>SUBSTRUCTURE
     1 0QJ         1 TEMP              0 ****  ****    0 ROOT
