@<TRIPOS>MOLECULE
0QJ
   73    76     1     0     0
SMALL
bcc


@<TRIPOS>ATOM
      1 C2          8.7380    0.4390    1.5220 ca        1 0QJ      0.688900
      2 C4          6.5220    0.3660    1.0760 ca        1 0QJ      0.447800
      3 C5          6.2220    0.5720    2.4880 ca        1 0QJ     -0.227200
      4 C6          7.3390    0.7000    3.3800 ca        1 0QJ      0.763200
      5 C8          4.3010    0.4340    1.4640 cc        1 0QJ      0.422700
      6 CBA       -11.3300    0.2920   -0.1780 c3        1 0QJ     -0.085767
      7 CBB       -10.7090    1.8850    1.6320 c3        1 0QJ     -0.085767
      8 CBC       -10.5330   -0.5520    2.0030 c3        1 0QJ     -0.085767
      9 CAY        -8.9540    0.6180    0.4320 ca        1 0QJ     -0.086300
     10 CBD        -7.9460   -0.2540    0.8510 ca        1 0QJ     -0.106500
     11 CBE        -6.6530   -0.1720    0.3390 ca        1 0QJ     -0.157500
     12 CAX        -8.6300    1.5860   -0.5300 ca        1 0QJ     -0.106500
     13 CAW        -7.3510    1.6810   -1.0590 ca        1 0QJ     -0.157500
     14 CAV        -6.3300    0.8000   -0.6280 ca        1 0QJ      0.055600
     15 NAU        -5.0240    0.9750   -1.1290 n         1 0QJ     -0.457100
     16 CAT        -4.1160   -0.0910   -1.3100 c         1 0QJ      0.744100
     17 OBF        -4.3040   -1.2210   -0.8040 o         1 0QJ     -0.618100
     18 NAS        -2.9760    0.1520   -2.1160 n         1 0QJ     -0.531900
     19 CAR        -1.8860   -0.7900   -2.0530 c3        1 0QJ      0.070000
     20 CAQ        -0.8560   -0.5260   -0.9530 c3        1 0QJ     -0.116400
     21 CAP         0.2360   -1.5910   -1.0340 c3        1 0QJ      0.175800
     22 NAN         1.3420   -1.3480   -0.1160 n3        1 0QJ     -0.738600
     23 CAO         1.0130   -1.6570    1.2580 c3        1 0QJ      0.154100
     24 CAM         2.5840   -1.9710   -0.5440 c3        1 0QJ      0.155800
     25 CAL         3.2930   -1.2260   -1.6870 c3        1 0QJ      0.094100
     26 OBG         3.6730    0.0970   -1.2830 os        1 0QJ     -0.390600
     27 CAJ         4.5740   -1.9810   -2.1090 c3        1 0QJ      0.125100
     28 OAK         4.5920   -2.2320   -3.4920 oh        1 0QJ     -0.575800
     29 CAH         5.7440   -1.1000   -1.6170 c3        1 0QJ      0.082100
     30 OAI         6.5030   -0.6960   -2.7360 oh        1 0QJ     -0.593800
     31 CAG         5.0670    0.1600   -0.9820 c3        1 0QJ      0.221800
     32 N9          5.2730    0.2710    0.4450 na        1 0QJ     -0.293000
     33 N7          4.8320    0.6070    2.6830 nd        1 0QJ     -0.553100
     34 N3          7.7900    0.2940    0.5670 nb        1 0QJ     -0.759000
     35 N1          8.6130    0.6350    2.8610 nb        1 0QJ     -0.795000
     36 N6          7.1330    0.8610    4.7240 nh        1 0QJ     -0.957500
     37 H1          9.7890    0.3920    1.1600 h5        1 0QJ      0.051100
     38 H2          3.2290    0.4110    1.2140 h5        1 0QJ      0.098800
     39 H3        -11.0840   -0.6750   -0.6780 hc        1 0QJ      0.036367
     40 H4        -12.3740    0.2380    0.2130 hc        1 0QJ      0.036367
     41 H5        -11.2760    1.1100   -0.9350 hc        1 0QJ      0.036367
     42 H6        -11.7490    1.8450    2.0370 hc        1 0QJ      0.036367
     43 H7        -10.0050    2.0960    2.4710 hc        1 0QJ      0.036367
     44 H8        -10.6480    2.7200    0.8950 hc        1 0QJ      0.036367
     45 H9        -10.3120   -1.5490    1.5540 hc        1 0QJ      0.036367
     46 H10        -9.8570   -0.3860    2.8760 hc        1 0QJ      0.036367
     47 H11       -11.5880   -0.5580    2.3720 hc        1 0QJ      0.036367
     48 H13        -5.8890   -0.8850    0.6910 ha        1 0QJ      0.147500
     49 H14        -9.4030    2.2870   -0.8820 ha        1 0QJ      0.134500
     50 H15        -7.1410    2.4530   -1.8150 ha        1 0QJ      0.147500
     51 H16        -4.9250    1.7620   -1.7340 hn        1 0QJ      0.305500
     52 H17        -2.6840    1.1020   -2.2010 hn        1 0QJ      0.287500
     53 H18        -2.3130   -1.8250   -1.9180 h1        1 0QJ      0.070200
     54 H19        -1.3720   -0.7470   -3.0570 h1        1 0QJ      0.070200
     55 H20        -0.4070    0.4940   -1.0750 hc        1 0QJ      0.055700
     56 H21        -1.3580   -0.5590    0.0490 hc        1 0QJ      0.055700
     57 H22        -0.2350   -2.6020   -0.8490 h1        1 0QJ      0.034700
     58 H23         0.6400   -1.6000   -2.0860 h1        1 0QJ      0.034700
     59 H25         0.8500   -2.7550    1.4400 h1        1 0QJ      0.036367
     60 H26         1.8460   -1.3050    1.9230 h1        1 0QJ      0.036367
     61 H27         0.0770   -1.1080    1.5400 h1        1 0QJ      0.036367
     62 H28         3.2900   -1.9960    0.3360 h1        1 0QJ      0.044200
     63 H29         2.4220   -3.0350   -0.8900 h1        1 0QJ      0.044200
     64 H30         2.6110   -1.0680   -2.5670 h1        1 0QJ      0.093700
     65 H31         4.6240   -3.0010   -1.6380 h1        1 0QJ      0.092700
     66 H32         4.8120   -1.4080   -3.9480 ho        1 0QJ      0.425000
     67 H33         6.3820   -1.6600   -0.8850 h1        1 0QJ      0.083700
     68 H34         7.3450   -0.3620   -2.3970 ho        1 0QJ      0.434000
     69 H35         5.4430    1.1080   -1.4750 h2        1 0QJ      0.102700
     70 H36         6.2080    0.9850    5.0520 hn        1 0QJ      0.449300
     71 H37         7.8960    1.0160    5.3360 hn        1 0QJ      0.449300
     72 H12        -8.1520   -1.0320    1.6020 ha        1 0QJ      0.134500
     73 CAZ       -10.3580    0.5540    0.9700 c3        1 0QJ     -0.006700
@<TRIPOS>BOND
     1    1   34 ar  
     2    1   35 ar  
     3    1   37 1   
     4    2    3 ar  
     5    2   32 1   
     6    2   34 ar  
     7    3    4 ar  
     8    3   33 1   
     9    4   35 ar  
    10    4   36 1   
    11    5   32 1   
    12    5   33 2   
    13    5   38 1   
    14    6   39 1   
    15    6   40 1   
    16    6   41 1   
    17    6   73 1   
    18    7   42 1   
    19    7   43 1   
    20    7   44 1   
    21    7   73 1   
    22    8   45 1   
    23    8   46 1   
    24    8   47 1   
    25    8   73 1   
    26    9   10 ar  
    27    9   12 ar  
    28    9   73 1   
    29   10   11 ar  
    30   10   72 1   
    31   11   14 ar  
    32   11   48 1   
    33   12   13 ar  
    34   12   49 1   
    35   13   14 ar  
    36   13   50 1   
    37   14   15 1   
    38   15   16 1   
    39   15   51 1   
    40   16   17 2   
    41   16   18 1   
    42   18   19 1   
    43   18   52 1   
    44   19   20 1   
    45   19   53 1   
    46   19   54 1   
    47   20   21 1   
    48   20   55 1   
    49   20   56 1   
    50   21   22 1   
    51   21   57 1   
    52   21   58 1   
    53   22   23 1   
    54   22   24 1   
    55   23   59 1   
    56   23   60 1   
    57   23   61 1   
    58   24   25 1   
    59   24   62 1   
    60   24   63 1   
    61   25   26 1   
    62   25   27 1   
    63   25   64 1   
    64   26   31 1   
    65   27   28 1   
    66   27   29 1   
    67   27   65 1   
    68   28   66 1   
    69   29   30 1   
    70   29   31 1   
    71   29   67 1   
    72   30   68 1   
    73   31   32 1   
    74   31   69 1   
    75   36   70 1   
    76   36   71 1   
@<TRIPOS>SUBSTRUCTURE
     1 0QJ         1 TEMP              0 ****  ****    0 ROOT
