@<TRIPOS>MOLECULE
0QJ
   73    68     1     0     0
SMALL
bcc


@<TRIPOS>ATOM
      1 C2         -9.3680    5.8670   -0.4320 c1        1 0QJ      0.027000
      2 C4         -7.0930    5.6080    0.1010 c1        1 0QJ      0.086000
      3 C5         -7.2660    6.3700    1.2050 c1        1 0QJ     -0.248000
      4 C6         -8.5260    6.8940    1.4970 c1        1 0QJ      0.241000
      5 C8         -5.1220    5.7840    1.1060 c1        1 0QJ     -0.058000
      6 CBA         7.9900   -7.6420    0.0350 c3        1 0QJ     -0.203667
      7 CAZ         8.1980   -6.1940    0.5770 c3        1 0QJ     -0.014000
      8 CBB         8.7700   -6.2540    1.9940 c3        1 0QJ     -0.203667
      9 CBC         9.1610   -5.4560   -0.3180 c3        1 0QJ     -0.203667
     10 CAY         6.8200   -5.4400    0.6000 c2        1 0QJ     -0.079000
     11 CBD         6.7890   -4.0640    0.7470 c1        1 0QJ     -0.107000
     12 CBE         5.5660   -3.4030    0.8670 c1        1 0QJ     -0.179000
     13 CAX         5.6400   -6.1580    0.5730 c2        1 0QJ     -0.107000
     14 CAW         4.4190   -5.4980    0.6930 c1        1 0QJ     -0.137000
     15 CAV         4.3890   -4.1190    0.8390 c1        1 0QJ      0.063000
     16 NAU         3.1050   -3.4320    1.0640 n         1 0QJ     -0.311000
     17 CAT         2.3080   -2.9860   -0.0770 c2        1 0QJ      0.377000
     18 OBF         2.7120   -3.1860   -1.2280 o         1 0QJ     -0.380000
     19 NAS         1.0200   -2.4080    0.1390 n         1 0QJ     -0.362000
     20 CAR         0.3580   -1.7050   -0.9270 c3        1 0QJ     -0.035000
     21 CAQ        -0.9140   -1.0360   -0.3910 c3        1 0QJ     -0.168000
     22 CAP        -0.9940    0.3910   -0.9140 c3        1 0QJ     -0.065000
     23 NAN        -2.0010    1.1300   -0.1670 n3        1 0QJ     -0.261000
     24 CAO        -1.6320    1.1570    1.2630 c3        1 0QJ     -0.130000
     25 CAM        -2.0740    2.5060   -0.6780 c3        1 0QJ     -0.075000
     26 CAL        -3.5270    2.7960   -1.2120 c3        1 0QJ     -0.015000
     27 OBG        -4.2710    3.2530   -0.2650 os        1 0QJ     -0.267000
     28 CAJ        -3.4940    3.9190   -2.2730 c3        1 0QJ     -0.029000
     29 OAK        -3.7650    3.4090   -3.5130 oh        1 0QJ     -0.313000
     30 CAH        -4.5870    4.9110   -1.8580 c3        1 0QJ     -0.036000
     31 OAI        -5.4580    5.2380   -3.0250 oh        1 0QJ     -0.314000
     32 CAG        -5.2690    4.2940   -0.9470 c3        1 0QJ      0.158000
     33 N9         -5.7540    5.2420    0.0390 n2        1 0QJ     -0.200000
     34 N7         -6.0480    6.4850    1.8370 n1        1 0QJ     -0.110000
     35 N3         -8.1400    5.3560   -0.7170 n1        1 0QJ     -0.205000
     36 N1         -9.5500    6.6440    0.6910 n1        1 0QJ     -0.268000
     37 N6         -8.9330    7.7710    2.6180 n3        1 0QJ     -0.356000
     38 H1        -10.1030    5.6880   -1.0100 ha        1 0QJ      0.191000
     39 H2         -4.2000    5.6960    1.3120 DU        1 0QJ      0.197000
     40 H3          7.5130   -8.1770    0.7060 hc        1 0QJ      0.075667
     41 H4          8.8800   -8.0610   -0.1530 hc        1 0QJ      0.075667
     42 H5          7.4510   -7.6080   -0.8120 hc        1 0QJ      0.075667
     43 H6          8.7540   -5.3330    2.4020 hc        1 0QJ      0.075667
     44 H7          9.6840   -6.5750    1.9580 hc        1 0QJ      0.075667
     45 H8          8.2390   -6.8550    2.5340 hc        1 0QJ      0.075667
     46 H9          9.4270   -4.6250    0.1090 hc        1 0QJ      0.075667
     47 H10         9.9400   -6.0030   -0.4720 hc        1 0QJ      0.075667
     48 H11         8.7230   -5.2570   -1.1790 hc        1 0QJ      0.075667
     49 H12         7.6180   -3.5580    0.7650 ha        1 0QJ      0.132000
     50 H13         5.5440   -2.4300    0.9710 ha        1 0QJ      0.126000
     51 H14         5.6610   -7.1170    0.4730 ha        1 0QJ      0.138000
     52 H15         3.5970   -5.9980    0.6730 ha        1 0QJ      0.170000
     53 H16         2.8470   -3.1990    1.9300 hn        1 0QJ      0.218000
     54 H17         0.6370   -2.4370    0.9800 hn        1 0QJ      0.205000
     55 H18         0.9680   -1.0090   -1.2940 h1        1 0QJ      0.096500
     56 H19         0.1100   -2.3650   -1.6660 h1        1 0QJ      0.096500
     57 H20        -0.8900   -1.0250    0.5870 hc        1 0QJ      0.095000
     58 H21        -1.7320   -1.5590   -0.7050 hc        1 0QJ      0.095000
     59 H22        -1.2370    0.3780   -1.8570 h1        1 0QJ      0.075500
     60 H23        -0.0890    0.8440   -0.8030 h1        1 0QJ      0.075500
     61 H25        -1.8330    0.3140    1.6600 h1        1 0QJ      0.079333
     62 H26        -0.6640    1.3400    1.3510 h1        1 0QJ      0.079333
     63 H27        -2.1380    1.8590    1.7150 h1        1 0QJ      0.079333
     64 H28        -1.8570    3.1460    0.0550 h1        1 0QJ      0.078500
     65 H29        -1.4020    2.6200   -1.4380 h1        1 0QJ      0.078500
     66 H30        -3.9250    1.9690   -1.5960 h1        1 0QJ      0.143000
     67 H31        -2.6000    4.3680   -2.2700 h1        1 0QJ      0.134000
     68 H32        -3.0410    3.4370   -4.0060 ho        1 0QJ      0.219000
     69 H33        -4.1770    5.7460   -1.4810 h1        1 0QJ      0.107000
     70 H34        -5.0140    5.8160   -3.5890 ho        1 0QJ      0.224000
     71 H35        -6.0200    3.8200   -1.3530 h2        1 0QJ      0.183000
     72 H36        -8.2950    8.0220    3.2840 hn        1 0QJ      0.243000
     73 H37        -9.8320    8.0870    2.6750 hn        1 0QJ      0.243000
@<TRIPOS>BOND
     1    1   36 1   
     2    1   38 1   
     3    2   35 1   
     4    3    4 1   
     5    4   37 1   
     6    5   33 1   
     7    5   34 1   
     8    6    7 1   
     9    6   40 1   
    10    6   41 1   
    11    6   42 1   
    12    7    8 1   
    13    7    9 1   
    14    7   10 1   
    15    8   43 1   
    16    8   44 1   
    17    8   45 1   
    18    9   46 1   
    19    9   47 1   
    20    9   48 1   
    21   10   11 1   
    22   10   13 1   
    23   11   49 1   
    24   12   15 1   
    25   12   50 1   
    26   13   14 1   
    27   13   51 1   
    28   14   52 1   
    29   15   16 1   
    30   16   17 1   
    31   16   53 1   
    32   17   18 1   
    33   17   19 1   
    34   19   20 1   
    35   19   54 1   
    36   20   21 1   
    37   20   55 1   
    38   20   56 1   
    39   21   22 1   
    40   21   57 1   
    41   21   58 1   
    42   22   23 1   
    43   22   59 1   
    44   22   60 1   
    45   23   24 1   
    46   23   25 1   
    47   24   61 1   
    48   24   62 1   
    49   24   63 1   
    50   25   26 1   
    51   25   64 1   
    52   25   65 1   
    53   26   27 1   
    54   26   28 1   
    55   26   66 1   
    56   27   32 1   
    57   28   29 1   
    58   28   30 1   
    59   28   67 1   
    60   29   68 1   
    61   30   31 1   
    62   30   32 1   
    63   30   69 1   
    64   31   70 1   
    65   32   33 1   
    66   32   71 1   
    67   37   72 1   
    68   37   73 1   
@<TRIPOS>SUBSTRUCTURE
     1 0QJ         1 TEMP              0 ****  ****    0 ROOT
