@<TRIPOS>MOLECULE
0QK
   80    74     1     0     0
SMALL
bcc


@<TRIPOS>ATOM
      1 C2         -7.1500    2.4660   -2.7190 c1        1 0QK      0.016000
      2 C4         -6.1820    1.7470   -0.6660 c1        1 0QK      0.098000
      3 C5         -7.0720    2.5000    0.0150 c1        1 0QK     -0.236000
      4 C6         -8.0310    3.2590   -0.6830 c1        1 0QK      0.199000
      5 CBI         7.1080    3.3180   -4.0580 c3        1 0QK     -0.204000
      6 CBH         7.7360    2.6390   -2.8340 c3        1 0QK     -0.014000
      7 CBJ         9.0370    1.9500   -3.2440 c3        1 0QK     -0.204000
      8 CBK         8.0330    3.6890   -1.7630 c3        1 0QK     -0.204000
      9 CBE         6.7370    1.5670   -2.2570 c2        1 0QK     -0.075000
     10 CBF         5.9240    0.8280   -3.1270 c2        1 0QK     -0.106000
     11 CBG         5.0920   -0.1640   -2.6250 c1        1 0QK     -0.176000
     12 CBD         6.7100    1.3050   -0.8880 c1        1 0QK     -0.106000
     13 CBC         5.8660    0.3010   -0.3820 c1        1 0QK     -0.134000
     14 CBB         5.0640   -0.4280   -1.2410 c1        1 0QK      0.060000
     15 NAZ         4.2720   -1.5640   -0.7240 n         1 0QK     -0.308000
     16 CAY         2.9360   -1.3460   -0.2390 c2        1 0QK      0.381000
     17 OBA         2.4660   -0.2430   -0.2550 o         1 0QK     -0.412000
     18 NAX         2.1250   -2.4730    0.1910 n         1 0QK     -0.338000
     19 CAW         1.3280   -2.3790    1.4440 c3        1 0QK     -0.044000
     20 CAV        -0.0240   -3.0670    1.2430 c3        1 0QK     -0.210000
     21 CAT        -0.8610   -2.9900    2.5860 c3        1 0QK     -0.037000
     22 NAS        -2.2750   -2.9360    2.2720 n3        1 0QK     -0.299000
     23 CAU        -3.0410   -3.7430    3.2660 c3        1 0QK      0.006000
     24 CBM        -3.0480   -5.1850    2.8420 c3        1 0QK     -0.229000
     25 CBL        -2.3610   -3.6160    4.6920 c3        1 0QK     -0.229000
     26 CAR        -2.7280   -1.5620    2.3140 c3        1 0QK     -0.059000
     27 CAN        -3.0380   -1.0910    0.9100 c3        1 0QK      0.010000
     28 OAO        -4.3130   -0.9660    0.7590 os        1 0QK     -0.270000
     29 CAM        -2.4070    0.3710    0.6640 c3        1 0QK     -0.025000
     30 OAQ        -1.0010    0.2510    0.2630 oh        1 0QK     -0.327000
     31 CAL        -3.0970    0.9010   -0.2920 c3        1 0QK     -0.027000
     32 OAP        -2.4590    0.6060   -1.6230 oh        1 0QK     -0.307000
     33 CAK        -4.4860    0.2240   -0.2030 c3        1 0QK      0.118000
     34 NAG        -5.3790    1.0680    0.2700 n2        1 0QK     -0.164000
     35 CAH        -5.7920    1.4170    1.5060 c1        1 0QK     -0.098000
     36 CAI        -6.8460    2.3080    1.3700 c1        1 0QK     -0.162000
     37 N3         -6.2130    1.7230   -2.0380 n1        1 0QK     -0.203000
     38 N1         -8.0590    3.2340   -2.0240 n1        1 0QK     -0.262000
     39 NAJ        -9.2420    4.0120   -0.3610 n3        1 0QK     -0.341000
     40 H1         -7.1720    2.4480   -3.7110 ha        1 0QK      0.187000
     41 H2          6.1530    3.5040   -3.8790 hc        1 0QK      0.076667
     42 H3          7.1850    2.7260   -4.8340 hc        1 0QK      0.076667
     43 H4          7.5790    4.1650   -4.2430 hc        1 0QK      0.076667
     44 H5          8.9020    1.4730   -4.0890 hc        1 0QK      0.076667
     45 H6          9.3050    1.3080   -2.5420 hc        1 0QK      0.076667
     46 H7          9.7390    2.6200   -3.3570 hc        1 0QK      0.076667
     47 H8          8.5450    3.2790   -1.0400 hc        1 0QK      0.076667
     48 H9          8.5620    4.4320   -2.1640 hc        1 0QK      0.076667
     49 H10         7.1950    4.0400   -1.4100 hc        1 0QK      0.076667
     50 H11         5.9430    1.0120   -4.0970 ha        1 0QK      0.133000
     51 H12         4.5200   -0.6830   -3.2370 ha        1 0QK      0.127000
     52 H13         7.2800    1.8230   -0.2760 ha        1 0QK      0.142000
     53 H14         5.8460    0.1120    0.5990 ha        1 0QK      0.160000
     54 H15         4.6350   -2.4020   -0.6990 hn        1 0QK      0.223000
     55 H16         2.1000   -3.2420   -0.3120 hn        1 0QK      0.203000
     56 H17         1.1850   -1.4410    1.6680 h1        1 0QK      0.102000
     57 H18         1.8090   -2.8150    2.1660 h1        1 0QK      0.102000
     58 H19         0.1180   -3.9970    1.0050 hc        1 0QK      0.103000
     59 H20        -0.5100   -2.6220    0.5320 hc        1 0QK      0.103000
     60 H21        -0.6080   -2.1900    3.0830 h1        1 0QK      0.069500
     61 H22        -0.6800   -3.7730    3.1230 h1        1 0QK      0.069500
     62 H24        -3.9520   -3.4160    3.3140 h1        1 0QK      0.098000
     63 H25        -2.4230   -5.6890    3.3950 hc        1 0QK      0.078167
     64 H26        -2.7790   -5.2500    1.9030 hc        1 0QK      0.078167
     65 H27        -3.9590   -5.5560    2.9500 hc        1 0QK      0.078167
     66 H28        -1.7150   -4.3560    4.8180 hc        1 0QK      0.078167
     67 H29        -1.8910   -2.7590    4.7550 hc        1 0QK      0.078167
     68 H30        -3.0640   -3.6640    5.4010 hc        1 0QK      0.078167
     69 H31        -3.5380   -1.5020    2.8630 h1        1 0QK      0.086000
     70 H32        -2.0260   -0.9960    2.7030 h1        1 0QK      0.086000
     71 H33        -2.6840   -1.7240    0.2580 h1        1 0QK      0.145000
     72 H34        -2.4830    0.9160    1.4800 h1        1 0QK      0.109000
     73 H35        -0.5120    0.8450    0.7120 ho        1 0QK      0.234000
     74 H36        -3.1780    1.8550   -0.1590 h1        1 0QK      0.141000
     75 H37        -2.0160    1.3180   -1.9030 ho        1 0QK      0.221000
     76 H38        -4.7570   -0.0910   -1.0760 h2        1 0QK      0.170000
     77 H39        -5.4030    1.1120    2.3480 DU        1 0QK      0.159000
     78 H40        -7.3380    2.7260    2.0970 DU        1 0QK      0.159000
     79 H41        -9.4690    4.1740    0.5320 hn        1 0QK      0.218000
     80 H42        -9.7700    4.3480   -1.0390 hn        1 0QK      0.218000
@<TRIPOS>BOND
     1    1   38 1   
     2    1   40 1   
     3    2   37 1   
     4    3    4 1   
     5    4   39 1   
     6    5    6 1   
     7    5   41 1   
     8    5   42 1   
     9    5   43 1   
    10    6    7 1   
    11    6    8 1   
    12    6    9 1   
    13    7   44 1   
    14    7   45 1   
    15    7   46 1   
    16    8   47 1   
    17    8   48 1   
    18    8   49 1   
    19    9   10 1   
    20    9   12 1   
    21   10   11 1   
    22   10   50 1   
    23   11   51 1   
    24   12   52 1   
    25   13   14 1   
    26   13   53 1   
    27   14   15 1   
    28   15   16 1   
    29   15   54 1   
    30   16   17 1   
    31   16   18 1   
    32   18   19 1   
    33   18   55 1   
    34   19   20 1   
    35   19   56 1   
    36   19   57 1   
    37   20   21 1   
    38   20   58 1   
    39   20   59 1   
    40   21   22 1   
    41   21   60 1   
    42   21   61 1   
    43   22   23 1   
    44   22   26 1   
    45   23   24 1   
    46   23   25 1   
    47   23   62 1   
    48   24   63 1   
    49   24   64 1   
    50   24   65 1   
    51   25   66 1   
    52   25   67 1   
    53   25   68 1   
    54   26   27 1   
    55   26   69 1   
    56   26   70 1   
    57   27   28 1   
    58   27   29 1   
    59   27   71 1   
    60   28   33 1   
    61   29   30 1   
    62   29   31 1   
    63   29   72 1   
    64   30   73 1   
    65   31   32 1   
    66   31   33 1   
    67   31   74 1   
    68   32   75 1   
    69   33   34 1   
    70   33   76 1   
    71   34   35 1   
    72   35   36 1   
    73   39   79 1   
    74   39   80 1   
@<TRIPOS>SUBSTRUCTURE
     1 0QK         1 TEMP              0 ****  ****    0 ROOT
