@<TRIPOS>MOLECULE
0QK
   82    82     1     0     0
SMALL
bcc


@<TRIPOS>ATOM
      1 C2        -43.9810   47.4930    4.0950 c1        1 0QK     -0.115000
      2 C4        -46.3210   47.6110    3.4700 c2        1 0QK      0.206000
      3 C5        -46.5230   46.3850    4.1570 c2        1 0QK     -0.207000
      4 C6        -45.3620   45.7270    4.7510 c2        1 0QK      0.256000
      5 CBI        98.6130  -87.2790   -2.0790 c3        1 0QK     -0.208333
      6 CBJ        98.3820  -87.2590   -4.5570 c3        1 0QK     -0.208333
      7 CBK       100.0970  -85.8410   -3.4560 c3        1 0QK     -0.208333
      8 CBE       100.3160  -88.3480   -3.4970 c2        1 0QK     -0.117000
      9 CBF        99.7140  -89.6470   -3.4510 c1        1 0QK     -0.034000
     10 CBG       100.5400  -90.8370   -3.5380 c3        1 0QK     -0.195000
     11 CBD       101.6690  -88.2190   -3.6220 c2        1 0QK     -0.045000
     12 CBC       102.5340  -89.3660   -3.7120 c2        1 0QK     -0.154000
     13 CBB       102.0160  -90.6310   -3.6750 c2        1 0QK     -0.018000
     14 NAZ       102.8980  -91.7460   -3.7670 n         1 0QK     -0.265000
     15 CAY       102.4500  -93.0310   -3.7360 c2        1 0QK      0.339000
     16 OBA       101.3090  -93.4860   -3.6320 o         1 0QK     -0.227000
     17 NAX       103.5110  -94.1500   -3.8450 n4        1 0QK     -0.145000
     18 CAW       -43.7800   53.3210    3.3990 cx        1 0QK     -0.181500
     19 CAV       -42.4360   52.8460    3.8570 cx        1 0QK     -0.181500
     20 CAT       -43.6690   52.5130    4.6760 cx        1 0QK     -0.200000
     21 NAS       -44.1380   51.1210    4.7380 n4        1 0QK     -0.008000
     22 CAU       -42.2250   49.8000    7.3270 c2        1 0QK     -0.176000
     23 CBM       -41.8950   49.2760    6.1460 c2        1 0QK     -0.269000
     24 CBL       -41.5750   50.9830    7.9250 c3        1 0QK     -0.203000
     25 CAR       -45.5430   50.9940    5.2100 c3        1 0QK     -0.142000
     26 CAN       -46.5800   51.3430    4.1320 c3        1 0QK      0.060000
     27 OAO       -46.4050   50.4700    2.9900 os        1 0QK     -0.301000
     28 CAM       -47.9750   51.1170    4.6340 c2        1 0QK     -0.319000
     29 OAQ       -42.3980   49.6740    3.0980 oh        1 0QK     -0.486000
     30 CAL       -48.5640   50.1740    3.8670 c2        1 0QK      0.021000
     31 OAP       -49.7950   49.6200    3.8870 oh        1 0QK     -0.209000
     32 CAK       -47.5980   49.6680    2.7800 c3        1 0QK      0.184000
     33 NAG       -47.3760   48.2390    2.7960 n3        1 0QK     -0.315000
     34 CAH       -48.8790   45.3050    4.3400 c1        1 0QK     -0.171000
     35 CAI       -47.7950   45.8090    4.2530 c1        1 0QK     -0.158000
     36 N3        -45.0300   48.1260    3.4390 n3        1 0QK     -0.251000
     37 N1        -44.1210   46.3440    4.7320 n2        1 0QK     -0.280000
     38 NAJ       -45.5110   44.5170    5.3510 n3        1 0QK     -0.321000
     39 H1        -44.8200   48.9060    2.8530 hn        1 0QK      0.255000
     40 H2         98.0930  -88.2650   -2.0120 hc        1 0QK      0.084222
     41 H3         97.8520  -86.4640   -2.0200 hc        1 0QK      0.084222
     42 H4         99.3130  -87.1760   -1.2170 hc        1 0QK      0.084222
     43 H5         97.6240  -86.4440   -4.4600 hc        1 0QK      0.084222
     44 H6         98.9100  -87.1410   -5.5320 hc        1 0QK      0.084222
     45 H7         97.8560  -88.2450   -4.5420 hc        1 0QK      0.084222
     46 H8        100.6470  -85.7270   -4.4200 hc        1 0QK      0.084222
     47 H9         99.3510  -85.0120   -3.3800 hc        1 0QK      0.084222
     48 H10       100.8170  -85.7410   -2.6090 hc        1 0QK      0.084222
     49 H13       102.1670  -87.2340   -3.6600 ha        1 0QK      0.162000
     50 H14       103.6140  -89.1650   -3.8120 ha        1 0QK      0.145000
     51 H15       103.8730  -91.5420   -3.8570 hn        1 0QK      0.260000
     52 H16       104.0180  -94.0940   -4.7320 hn        1 0QK      0.267333
     53 H17       103.0040  -95.0460   -3.8040 hn        1 0QK      0.267333
     54 H18       -44.2300   52.8640    2.4970 hc        1 0QK      0.149250
     55 H19       -44.0470   54.3910    3.4940 hc        1 0QK      0.149250
     56 H20       -41.7140   53.5650    4.2870 hc        1 0QK      0.149250
     57 H21       -41.9310   52.0350    3.2930 hc        1 0QK      0.149250
     58 H22       -43.8250   53.0220    5.6540 hx        1 0QK      0.170000
     59 H24       -43.5050   50.5900    5.3720 hn        1 0QK      0.276000
     60 H25       -42.9970   49.3260    7.9580 ha        1 0QK      0.125000
     61 H26       -42.3640   48.3580    5.7520 ha        1 0QK      0.138500
     62 H27       -41.1030   49.6950    5.5080 ha        1 0QK      0.138500
     63 H28       -40.8520   51.4650    7.2220 hc        1 0QK      0.089000
     64 H29       -42.3380   51.7410    8.2310 hc        1 0QK      0.089000
     65 H30       -41.0110   50.6760    8.8440 hc        1 0QK      0.089000
     66 H31       -45.6900   49.9260    5.5400 hx        1 0QK      0.148500
     67 H32       -45.6990   51.6760    6.0930 hx        1 0QK      0.148500
     68 H33       -48.3900   51.6850    5.4640 ha        1 0QK      0.182000
     69 H34       -46.4230   52.3870    3.7420 h1        1 0QK      0.139000
     70 H35       -42.3770   48.8220    3.5700 ho        1 0QK      0.240500
     71 H36       -42.0700   49.4660    2.2200 ho        1 0QK      0.240500
     72 H37       -50.3220   50.0560    4.5800 ho        1 0QK      0.251000
     73 H38       -47.9710   49.9380    1.7450 h2        1 0QK      0.169000
     74 H39       -48.2440   47.7320    2.8340 hn        1 0QK      0.258000
     75 H40       -49.8390   44.8560    4.4150 ha        1 0QK      0.240000
     76 H41       -46.3970   44.0720    5.3470 hn        1 0QK      0.254500
     77 H42       -44.7310   44.0470    5.7480 hn        1 0QK      0.254500
     78 H11       100.3100  -91.4540   -2.6150 hc        1 0QK      0.182000
     79 CBH        99.3740  -87.1780   -3.3990 c3        1 0QK     -0.005000
     80 HAX2      104.1760  -94.1070   -3.0690 hn        1 0QK      0.267333
     81 HAS1      -44.0500   50.6940    3.7960 hn        1 0QK      0.276000
     82 H12       100.1420  -91.4390   -4.4130 hc        1 0QK      0.182000
@<TRIPOS>BOND
     1    1   36 1   
     2    1   37 1   
     3    2    3 1   
     4    2   33 1   
     5    2   36 1   
     6    3    4 1   
     7    3   35 1   
     8    4   37 1   
     9    4   38 1   
    10    5   40 1   
    11    5   41 1   
    12    5   42 1   
    13    5   79 1   
    14    6   43 1   
    15    6   44 1   
    16    6   45 1   
    17    6   79 1   
    18    7   46 1   
    19    7   47 1   
    20    7   48 1   
    21    7   79 1   
    22    8    9 1   
    23    8   11 1   
    24    8   79 1   
    25    9   10 1   
    26   10   13 1   
    27   10   78 1   
    28   10   82 1   
    29   11   12 1   
    30   11   49 1   
    31   12   13 1   
    32   12   50 1   
    33   13   14 1   
    34   14   15 1   
    35   14   51 1   
    36   15   16 1   
    37   15   17 1   
    38   17   52 1   
    39   17   53 1   
    40   17   80 1   
    41   18   19 1   
    42   18   20 1   
    43   18   54 1   
    44   18   55 1   
    45   19   20 1   
    46   19   56 1   
    47   19   57 1   
    48   20   21 1   
    49   20   58 1   
    50   21   25 1   
    51   21   59 1   
    52   21   81 1   
    53   22   23 1   
    54   22   24 1   
    55   22   60 1   
    56   23   61 1   
    57   23   62 1   
    58   24   63 1   
    59   24   64 1   
    60   24   65 1   
    61   25   26 1   
    62   25   66 1   
    63   25   67 1   
    64   26   27 1   
    65   26   28 1   
    66   26   69 1   
    67   27   32 1   
    68   28   30 1   
    69   28   68 1   
    70   29   70 1   
    71   29   71 1   
    72   30   31 1   
    73   30   32 1   
    74   31   72 1   
    75   32   33 1   
    76   32   73 1   
    77   33   74 1   
    78   34   35 1   
    79   34   75 1   
    80   36   39 1   
    81   38   76 1   
    82   38   77 1   
@<TRIPOS>SUBSTRUCTURE
     1 0QK         1 TEMP              0 ****  ****    0 ROOT
