@<TRIPOS>MOLECULE
0QK
   80    83     1     0     0
SMALL
bcc


@<TRIPOS>ATOM
      1 C2          8.9640    1.0740    0.9220 ca        1 0QK      0.681900
      2 C4          7.0240    0.1170    0.2390 ca        1 0QK      0.463800
      3 C5          7.6040   -0.1490   -1.0660 ca        1 0QK     -0.370400
      4 C6          8.9520    0.2780   -1.2720 ca        1 0QK      0.729200
      5 CBI       -10.9060   -1.1990    1.8660 c3        1 0QK     -0.085767
      6 CBJ       -11.3830   -0.9080   -0.5600 c3        1 0QK     -0.085767
      7 CBK       -11.8260    0.9350    1.0250 c3        1 0QK     -0.085767
      8 CBE        -9.4640    0.2570    0.4790 ca        1 0QK     -0.086300
      9 CBF        -8.4670   -0.6790    0.1720 ca        1 0QK     -0.107000
     10 CBG        -7.1470   -0.3000   -0.0390 ca        1 0QK     -0.158000
     11 CBD        -9.0960    1.6030    0.5660 ca        1 0QK     -0.107000
     12 CBC        -7.7820    2.0060    0.3510 ca        1 0QK     -0.158000
     13 CBB        -6.7780    1.0580    0.0480 ca        1 0QK      0.056600
     14 NAZ        -5.4450    1.4960   -0.0860 n         1 0QK     -0.458100
     15 CAY        -4.5110    0.8780   -0.9460 c         1 0QK      0.745100
     16 OBA        -4.7160   -0.2470   -1.4550 o         1 0QK     -0.618100
     17 NAX        -3.3240    1.5940   -1.2420 n         1 0QK     -0.532900
     18 CAW        -2.2120    0.8690   -1.8080 c3        1 0QK      0.069000
     19 CAV        -1.1720    0.3830   -0.7970 c3        1 0QK     -0.117400
     20 CAT        -0.0700   -0.3670   -1.5470 c3        1 0QK      0.182800
     21 NAS         0.9840   -0.8560   -0.6710 n3        1 0QK     -0.744600
     22 CAU         1.6180   -2.0960   -1.1240 c3        1 0QK      0.178500
     23 CBM         0.7020   -3.3100   -0.9570 c3        1 0QK     -0.108600
     24 CBL         2.1450   -2.0770   -2.5610 c3        1 0QK     -0.108600
     25 CAR         1.9310    0.1750   -0.2850 c3        1 0QK      0.167800
     26 CAN         2.5070   -0.0350    1.1270 c3        1 0QK      0.094100
     27 OAO         3.5870   -0.9820    1.0770 os        1 0QK     -0.411600
     28 CAM         3.0420    1.2870    1.7190 c3        1 0QK      0.128100
     29 OAQ         2.3430    1.6580    2.8810 oh        1 0QK     -0.576800
     30 CAL         4.5520    1.0600    1.9470 c3        1 0QK      0.082100
     31 OAP         4.8020    1.0660    3.3360 oh        1 0QK     -0.595800
     32 CAK         4.8410   -0.3700    1.3840 c3        1 0QK      0.222800
     33 NAG         5.7090   -0.3690    0.2250 na        1 0QK     -0.191100
     34 CAH         5.4680   -0.9390   -1.0360 cc        1 0QK     -0.102100
     35 CAI         6.5940   -0.8150   -1.8440 cd        1 0QK     -0.164200
     36 N3          7.7000    0.7390    1.2590 nb        1 0QK     -0.762000
     37 N1          9.6360    0.8860   -0.2480 nb        1 0QK     -0.789000
     38 NAJ         9.5390    0.1260   -2.5150 nh        1 0QK     -0.946500
     39 H1          9.5560    1.5750    1.7180 h5        1 0QK      0.049100
     40 H2        -10.2640   -2.0850    1.6470 hc        1 0QK      0.036589
     41 H3        -10.5350   -0.7090    2.7970 hc        1 0QK      0.036589
     42 H4        -11.9510   -1.5520    2.0390 hc        1 0QK      0.036589
     43 H5        -12.4320   -1.2580   -0.4060 hc        1 0QK      0.036589
     44 H6        -11.3640   -0.2020   -1.4240 hc        1 0QK      0.036589
     45 H7        -10.7460   -1.7900   -0.8060 hc        1 0QK      0.036589
     46 H8        -11.5070    1.4580    1.9580 hc        1 0QK      0.036589
     47 H9        -11.8570    1.6700    0.1860 hc        1 0QK      0.036589
     48 H10       -12.8570    0.5360    1.1810 hc        1 0QK      0.036589
     49 H12        -6.3950   -1.0680   -0.2860 ha        1 0QK      0.147500
     50 H13        -9.8420    2.3760    0.8040 ha        1 0QK      0.134500
     51 H14        -7.5370    3.0760    0.4270 ha        1 0QK      0.147500
     52 H15        -5.3170    2.4680    0.1000 hn        1 0QK      0.305500
     53 H16        -3.0560    2.3040   -0.5950 hn        1 0QK      0.286500
     54 H17        -2.6070   -0.0130   -2.3890 h1        1 0QK      0.069700
     55 H18        -1.7130    1.5730   -2.5360 h1        1 0QK      0.069700
     56 H19        -0.7460    1.2530   -0.2350 hc        1 0QK      0.053200
     57 H20        -1.6500   -0.3010   -0.0490 hc        1 0QK      0.053200
     58 H21        -0.5440   -1.2490   -2.0650 h1        1 0QK      0.035700
     59 H22         0.3440    0.3090   -2.3530 h1        1 0QK      0.035700
     60 H24         2.5060   -2.2580   -0.4340 h1        1 0QK      0.072700
     61 H25         1.3010   -4.2340   -1.1390 hc        1 0QK      0.038700
     62 H26         0.2810   -3.3520    0.0750 hc        1 0QK      0.038700
     63 H27        -0.1430   -3.2880   -1.6860 hc        1 0QK      0.038700
     64 H28         1.3040   -2.0200   -3.2920 hc        1 0QK      0.038700
     65 H29         2.8200   -1.2050   -2.7320 hc        1 0QK      0.038700
     66 H30         2.7190   -3.0140   -2.7540 hc        1 0QK      0.038700
     67 H31         2.7970    0.2500   -1.0070 h1        1 0QK      0.043200
     68 H32         1.3970    1.1680   -0.2810 h1        1 0QK      0.043200
     69 H33         1.7450   -0.4960    1.8150 h1        1 0QK      0.101700
     70 H34         2.8850    2.1480    1.0120 h1        1 0QK      0.089700
     71 H35         2.6230    1.0770    3.6010 ho        1 0QK      0.425000
     72 H36         5.1540    1.8550    1.4330 h1        1 0QK      0.083700
     73 H37         5.7600    1.1480    3.4450 ho        1 0QK      0.434000
     74 H38         5.3130   -1.0220    2.1810 h2        1 0QK      0.100700
     75 H39         4.4950   -1.3960   -1.2440 h4        1 0QK      0.186000
     76 H40         6.6930   -1.1530   -2.8710 ha        1 0QK      0.155000
     77 H41         9.1200   -0.5340   -3.1230 hn        1 0QK      0.428800
     78 H42        10.5170    0.2730   -2.6020 hn        1 0QK      0.428800
     79 H11        -8.7270   -1.7470    0.0940 ha        1 0QK      0.134500
     80 CBH       -10.8760   -0.2120    0.7010 c3        1 0QK     -0.006700
@<TRIPOS>BOND
     1    1   36 ar  
     2    1   37 ar  
     3    1   39 1   
     4    2    3 ar  
     5    2   33 1   
     6    2   36 ar  
     7    3    4 ar  
     8    3   35 1   
     9    4   37 ar  
    10    4   38 1   
    11    5   40 1   
    12    5   41 1   
    13    5   42 1   
    14    5   80 1   
    15    6   43 1   
    16    6   44 1   
    17    6   45 1   
    18    6   80 1   
    19    7   46 1   
    20    7   47 1   
    21    7   48 1   
    22    7   80 1   
    23    8    9 ar  
    24    8   11 ar  
    25    8   80 1   
    26    9   10 ar  
    27    9   79 1   
    28   10   13 ar  
    29   10   49 1   
    30   11   12 ar  
    31   11   50 1   
    32   12   13 ar  
    33   12   51 1   
    34   13   14 1   
    35   14   15 1   
    36   14   52 1   
    37   15   16 2   
    38   15   17 1   
    39   17   18 1   
    40   17   53 1   
    41   18   19 1   
    42   18   54 1   
    43   18   55 1   
    44   19   20 1   
    45   19   56 1   
    46   19   57 1   
    47   20   21 1   
    48   20   58 1   
    49   20   59 1   
    50   21   22 1   
    51   21   25 1   
    52   22   23 1   
    53   22   24 1   
    54   22   60 1   
    55   23   61 1   
    56   23   62 1   
    57   23   63 1   
    58   24   64 1   
    59   24   65 1   
    60   24   66 1   
    61   25   26 1   
    62   25   67 1   
    63   25   68 1   
    64   26   27 1   
    65   26   28 1   
    66   26   69 1   
    67   27   32 1   
    68   28   29 1   
    69   28   30 1   
    70   28   70 1   
    71   29   71 1   
    72   30   31 1   
    73   30   32 1   
    74   30   72 1   
    75   31   73 1   
    76   32   33 1   
    77   32   74 1   
    78   33   34 1   
    79   34   35 2   
    80   34   75 1   
    81   35   76 1   
    82   38   77 1   
    83   38   78 1   
@<TRIPOS>SUBSTRUCTURE
     1 0QK         1 TEMP              0 ****  ****    0 ROOT
