@<TRIPOS>MOLECULE
0QK
   80    81     1     0     0
SMALL
bcc


@<TRIPOS>ATOM
      1 C2          3.5840    0.1570    1.7620 c1        1 0QK      0.001000
      2 C4          5.4250    0.4560    0.2570 c2        1 0QK      0.225000
      3 C5          5.0460    1.8780    0.1390 c2        1 0QK     -0.395000
      4 C6          3.8960    2.3230    0.8940 c2        1 0QK      0.298000
      5 CBI        18.9270   -3.8510    0.6200 c3        1 0QK     -0.202333
      6 CBJ        17.6060   -2.2220   -0.7210 c3        1 0QK     -0.202333
      7 CBK        17.8940   -4.5580   -1.5330 c3        1 0QK     -0.202333
      8 CBE        16.5130   -4.0760    0.4120 c1        1 0QK     -0.138000
      9 CBF        15.5190   -4.3970    0.9970 c1        1 0QK     -0.172000
     10 CBG        14.3170   -4.7330    1.6980 c3        1 0QK      0.002000
     11 CBD        16.1030   -7.8920    1.6280 c2        1 0QK     -0.118000
     12 CBC        15.1080   -7.0730    1.7510 c1        1 0QK     -0.234000
     13 CBB        14.1030   -6.2210    1.8340 c2        1 0QK      0.080000
     14 NAZ        12.7760   -6.6840    2.0220 n         1 0QK     -0.304000
     15 CAY        11.8920   -6.0280    2.9050 c2        1 0QK      0.381000
     16 OBA        12.1530   -4.8880    3.3680 o         1 0QK     -0.430000
     17 NAX        10.6990   -6.6870    3.2650 n         1 0QK     -0.340000
     18 CAW         9.6640   -5.9190    3.9150 c3        1 0QK     -0.041000
     19 CAV         8.8300   -5.0270    2.9960 c3        1 0QK     -0.205000
     20 CAT         7.7150   -4.3790    3.8170 c3        1 0QK     -0.057000
     21 NAS         6.8430   -3.5190    3.0330 n3        1 0QK     -0.272000
     22 CAU         5.5740   -3.2000    3.6930 c3        1 0QK     -0.011000
     23 CBM         4.6800   -4.4270    3.8790 c3        1 0QK     -0.226500
     24 CBL         5.7010   -2.4800    5.0370 c3        1 0QK     -0.226500
     25 CAR         7.5240   -2.3560    2.4850 c3        1 0QK     -0.074000
     26 CAN         7.8920   -2.5350    1.0000 c3        1 0QK      0.063000
     27 OAO         6.8110   -2.0440    0.1560 os        1 0QK     -0.291000
     28 CAM         9.1060   -1.7330    0.6280 c2        1 0QK     -0.281000
     29 OAQ        11.4390   -2.4700    2.7110 oh        1 0QK     -0.422000
     30 CAL         8.7730   -0.8470   -0.3310 c2        1 0QK     -0.022000
     31 OAP         9.5120    0.0760   -1.0020 oh        1 0QK     -0.233000
     32 CAK         7.2900   -0.9810   -0.6990 c3        1 0QK      0.207000
     33 NAG         6.5200    0.2250   -0.5440 n3        1 0QK     -0.298000
     34 CAH         6.8990    1.5050   -1.1960 c3        1 0QK     -0.089000
     35 CAI         5.9110    2.5490   -0.7320 c1        1 0QK     -0.074000
     36 N3          4.6860   -0.3670    1.0560 n3        1 0QK     -0.237000
     37 N1          3.2060    1.4260    1.6910 n2        1 0QK     -0.334000
     38 NAJ         3.5270    3.6250    0.7980 n3        1 0QK     -0.324000
     39 H1          4.9070   -1.3370    1.1430 hn        1 0QK      0.266000
     40 H2         18.8200   -3.2130    1.5290 hc        1 0QK      0.079111
     41 H3         19.0300   -4.9160    0.9390 hc        1 0QK      0.079111
     42 H4         19.8520   -3.5480    0.0740 hc        1 0QK      0.079111
     43 H5         17.4820   -1.5640    0.1710 hc        1 0QK      0.079111
     44 H6         16.7310   -2.0790   -1.3990 hc        1 0QK      0.079111
     45 H7         18.5340   -1.9210   -1.2640 hc        1 0QK      0.079111
     46 H8         17.0210   -4.4450   -2.2180 hc        1 0QK      0.079111
     47 H9         18.8200   -4.2520   -2.0760 hc        1 0QK      0.079111
     48 H10        17.9860   -5.6310   -1.2410 hc        1 0QK      0.079111
     49 H12        14.3410   -4.2880    2.7370 hc        1 0QK      0.123500
     50 H13        16.7360   -8.1780    2.4820 ha        1 0QK      0.129500
     51 H14        16.3820   -8.3420    0.6630 ha        1 0QK      0.129500
     52 H15        12.6690   -7.6720    1.9220 hn        1 0QK      0.224000
     53 H16        11.1000   -2.9740    3.4580 ho        1 0QK      0.209500
     54 H17        10.3650   -7.3900    2.6420 hn        1 0QK      0.210000
     55 H18        10.1490   -5.2760    4.7050 h1        1 0QK      0.108000
     56 H19         8.9900   -6.6640    4.4280 h1        1 0QK      0.108000
     57 H20         8.3870   -5.6280    2.1590 hc        1 0QK      0.096000
     58 H21         9.4880   -4.2390    2.5400 hc        1 0QK      0.096000
     59 H22         8.1900   -3.8180    4.6760 h1        1 0QK      0.073500
     60 H24         7.0820   -5.1990    4.2600 h1        1 0QK      0.073500
     61 H25         3.6450   -4.0760    4.1110 hc        1 0QK      0.079667
     62 H26         4.6470   -5.0460    2.9510 hc        1 0QK      0.079667
     63 H27         5.0320   -5.0640    4.7250 hc        1 0QK      0.079667
     64 H28         4.6840   -2.1950    5.3970 hc        1 0QK      0.079667
     65 H29         6.3140   -1.5520    4.9340 hc        1 0QK      0.079667
     66 H30         6.1780   -3.1400    5.8000 hc        1 0QK      0.079667
     67 H31         5.0240   -2.5060    2.9840 h1        1 0QK      0.106000
     68 H32         6.8790   -1.4350    2.5710 h1        1 0QK      0.095000
     69 H33         8.4860   -2.1440    3.0400 h1        1 0QK      0.095000
     70 H34         8.0090   -3.6190    0.7220 h1        1 0QK      0.129000
     71 H35        10.0710   -1.9040    1.1120 ha        1 0QK      0.199000
     72 H36        12.2930   -2.8800    2.5350 ho        1 0QK      0.209500
     73 H37        10.4170    0.0370   -0.6510 ho        1 0QK      0.233000
     74 H38         7.1700   -1.3440   -1.7640 h2        1 0QK      0.132000
     75 H39         7.9480    1.7870   -0.9050 h1        1 0QK      0.140000
     76 H40         6.8450    1.3830   -2.3120 h1        1 0QK      0.140000
     77 H41         4.0560    4.2260    0.2100 hn        1 0QK      0.250000
     78 H42         2.7440    3.9750    1.2940 hn        1 0QK      0.250000
     79 H11        13.4360   -4.2700    1.1640 hc        1 0QK      0.123500
     80 CBH        17.7130   -3.6840   -0.2920 c3        1 0QK      0.056000
@<TRIPOS>BOND
     1    1   36 1   
     2    1   37 1   
     3    2    3 1   
     4    2   33 1   
     5    2   36 1   
     6    3    4 1   
     7    3   35 1   
     8    4   37 1   
     9    4   38 1   
    10    5   40 1   
    11    5   41 1   
    12    5   42 1   
    13    5   80 1   
    14    6   43 1   
    15    6   44 1   
    16    6   45 1   
    17    6   80 1   
    18    7   46 1   
    19    7   47 1   
    20    7   48 1   
    21    7   80 1   
    22    8    9 1   
    23    8   80 1   
    24    9   10 1   
    25   10   13 1   
    26   10   49 1   
    27   10   79 1   
    28   11   12 1   
    29   11   50 1   
    30   11   51 1   
    31   12   13 1   
    32   13   14 1   
    33   14   15 1   
    34   14   52 1   
    35   15   16 1   
    36   15   17 1   
    37   17   18 1   
    38   17   54 1   
    39   18   19 1   
    40   18   55 1   
    41   18   56 1   
    42   19   20 1   
    43   19   57 1   
    44   19   58 1   
    45   20   21 1   
    46   20   59 1   
    47   20   60 1   
    48   21   22 1   
    49   21   25 1   
    50   22   23 1   
    51   22   24 1   
    52   22   67 1   
    53   23   61 1   
    54   23   62 1   
    55   23   63 1   
    56   24   64 1   
    57   24   65 1   
    58   24   66 1   
    59   25   26 1   
    60   25   68 1   
    61   25   69 1   
    62   26   27 1   
    63   26   28 1   
    64   26   70 1   
    65   27   32 1   
    66   28   30 1   
    67   28   71 1   
    68   29   53 1   
    69   29   72 1   
    70   30   31 1   
    71   30   32 1   
    72   31   73 1   
    73   32   33 1   
    74   32   74 1   
    75   33   34 1   
    76   34   35 1   
    77   34   75 1   
    78   34   76 1   
    79   36   39 1   
    80   38   77 1   
    81   38   78 1   
@<TRIPOS>SUBSTRUCTURE
     1 0QK         1 TEMP              0 ****  ****    0 ROOT
