@<TRIPOS>MOLECULE
0QL
   22    21     1     0     0
SMALL
bcc


@<TRIPOS>ATOM
      1 N          -3.9320    0.2110   -2.0550 n3        1 0QL     -0.884800
      2 CA         -2.5710   -0.2560   -1.9780 c3        1 0QL      0.017500
      3 CB         -1.9780    0.1360   -0.6380 c3        1 0QL      0.026700
      4 SG         -0.1960   -0.2180   -0.6370 ss        1 0QL     -0.224100
      5 SD          0.6510    0.4960    1.1250 ss        1 0QL     -0.243100
      6 C1          2.4230    0.2180    1.0970 c3        1 0QL     -0.054300
      7 C2          3.0370    0.7110    2.4130 c3        1 0QL      0.179800
      8 N3          4.4680    0.4350    2.4180 n3        1 0QL     -0.903800
      9 C          -2.5440   -1.7450   -2.1210 c         1 0QL      0.892600
     10 O          -3.3400   -2.4570   -1.4500 o         1 0QL     -0.845300
     11 OXT        -1.6760   -2.2880   -2.8450 o         1 0QL     -0.845300
     12 H1         -4.3370   -0.1460   -2.7980 hn        1 0QL      0.334800
     13 H2         -3.9380    1.1270   -2.1140 hn        1 0QL      0.334800
     14 H4         -2.0480    0.1480   -2.6950 h1        1 0QL      0.064700
     15 H5         -2.4150   -0.3800    0.0780 h1        1 0QL      0.081700
     16 H6         -2.1210    1.0970   -0.4840 h1        1 0QL      0.081700
     17 H7          2.8170    0.7070    0.3520 h1        1 0QL      0.092700
     18 H8          2.6020   -0.7370    0.9910 h1        1 0QL      0.092700
     19 H9          2.8920    1.6640    2.5000 h1        1 0QL      0.034200
     20 H10         2.6070    0.2410    3.1750 h1        1 0QL      0.034200
     21 H11         4.9300    1.2180    2.5620 hn        1 0QL      0.366800
     22 H12         4.6680   -0.1790    3.1050 hn        1 0QL      0.366800
@<TRIPOS>BOND
     1    1    2 1   
     2    1   12 1   
     3    1   13 1   
     4    2    3 1   
     5    2    9 1   
     6    2   14 1   
     7    3    4 1   
     8    3   15 1   
     9    3   16 1   
    10    4    5 1   
    11    5    6 1   
    12    6    7 1   
    13    6   17 1   
    14    6   18 1   
    15    7    8 1   
    16    7   19 1   
    17    7   20 1   
    18    8   21 1   
    19    8   22 1   
    20    9   10 1   
    21    9   11 1   
@<TRIPOS>SUBSTRUCTURE
     1 0QL         1 TEMP              0 ****  ****    0 ROOT
