@<TRIPOS>MOLECULE
0QL
   22    21     1     0     0
SMALL
bcc


@<TRIPOS>ATOM
      1 N           1.9000   -1.0280   -1.3170 n3        1 0QL     -0.881800
      2 CA          2.0410    0.1300   -0.4460 c3        1 0QL      0.012500
      3 CB          0.8350    0.3800    0.4380 c3        1 0QL      0.034700
      4 SG         -0.5840    1.1210   -0.3230 ss        1 0QL     -0.230100
      5 SD         -1.7670   -0.3580   -1.2470 ss        1 0QL     -0.181100
      6 C1         -2.8580   -0.9270    0.0160 c3        1 0QL     -0.029300
      7 C2         -3.7750    0.1690    0.5350 c3        1 0QL      0.146800
      8 N3         -4.6400   -0.2560    1.6160 n3        1 0QL     -0.913800
      9 C           3.3100    0.0870    0.4870 c         1 0QL      0.890600
     10 O           4.1690   -0.8080    0.2640 o         1 0QL     -0.833300
     11 OXT         3.3940    0.9640    1.3890 o         1 0QL     -0.833300
     12 H1          2.8040   -1.1980   -1.7290 hn        1 0QL      0.333800
     13 H2          1.6920   -1.8330   -0.7520 hn        1 0QL      0.333800
     14 H4          2.1830    1.0250   -1.1190 h1        1 0QL      0.060700
     15 H5          0.5420   -0.5390    0.9960 h1        1 0QL      0.089200
     16 H6          1.1270    1.1760    1.1840 h1        1 0QL      0.089200
     17 H7         -3.4510   -1.7370   -0.4810 h1        1 0QL      0.072200
     18 H8         -2.2800   -1.3880    0.8540 h1        1 0QL      0.072200
     19 H9         -3.1230    1.0480    0.8270 h1        1 0QL      0.043200
     20 H10        -4.4440    0.5150   -0.3050 h1        1 0QL      0.043200
     21 H11        -4.1220   -0.7670    2.3040 hn        1 0QL      0.340800
     22 H12        -5.0500    0.5450    2.0550 hn        1 0QL      0.340800
@<TRIPOS>BOND
     1    1    2 1   
     2    1   12 1   
     3    1   13 1   
     4    2    3 1   
     5    2    9 1   
     6    2   14 1   
     7    3    4 1   
     8    3   15 1   
     9    3   16 1   
    10    4    5 1   
    11    5    6 1   
    12    6    7 1   
    13    6   17 1   
    14    6   18 1   
    15    7    8 1   
    16    7   19 1   
    17    7   20 1   
    18    8   21 1   
    19    8   22 1   
    20    9   10 1   
    21    9   11 1   
@<TRIPOS>SUBSTRUCTURE
     1 0QL         1 TEMP              0 ****  ****    0 ROOT
