@<TRIPOS>MOLECULE
0QN
   48    48     1     0     0
SMALL
bcc


@<TRIPOS>ATOM
      1 C1         -5.6390    0.2660   -0.0010 c         1 0QN      0.633100
      2 C2         -6.7960    0.7370   -0.9670 c3        1 0QN      0.560900
      3 O          -5.8320    0.2710    1.2210 o         1 0QN     -0.536100
      4 F1         -7.8540    1.2850   -0.3000 f         1 0QN     -0.220300
      5 F2         -6.3990    1.6840   -1.8740 f         1 0QN     -0.220300
      6 F3         -7.3160   -0.2840   -1.7170 f         1 0QN     -0.220300
      7 N          -4.5060   -0.1780   -0.6310 n         1 0QN     -0.525900
      8 CA         -3.3220   -0.5460    0.1070 c3        1 0QN      0.037700
      9 C          -2.2170    0.5340   -0.0420 c         1 0QN      0.637100
     10 O1         -2.0860    1.1940   -1.0910 o         1 0QN     -0.606100
     11 CB         -2.7120   -1.8950   -0.3440 c3        1 0QN     -0.068700
     12 CG1        -3.5780   -3.0460    0.1200 c3        1 0QN     -0.100600
     13 CG2        -2.4890   -1.9580   -1.8390 c3        1 0QN     -0.100600
     14 N1         -1.4070    0.7450    1.0560 n         1 0QN     -0.545900
     15 CA1        -0.2590    1.6140    0.9970 c3        1 0QN      0.036700
     16 C3          1.0600    0.7890    0.9350 c         1 0QN      0.640100
     17 O2          1.1800   -0.2590    1.5940 o         1 0QN     -0.588100
     18 CB1        -0.1390    2.5280    2.2180 c3        1 0QN     -0.108100
     19 N2          2.0630    1.3170    0.1390 n         1 0QN     -0.463100
     20 C11         3.3480    0.7970   -0.0740 ca        1 0QN      0.098600
     21 C21         4.1820    1.4400   -1.0250 ca        1 0QN     -0.178000
     22 C31         5.4670    0.9730   -1.2640 ca        1 0QN     -0.052500
     23 C4          5.9510   -0.1380   -0.5690 ca        1 0QN     -0.200300
     24 C5          5.1420   -0.7820    0.3670 ca        1 0QN     -0.052500
     25 C6          3.8520   -0.3260    0.6190 ca        1 0QN     -0.178000
     26 C7          7.3670   -0.6330   -0.8230 c3        1 0QN      0.692200
     27 F11         8.3210   -0.0470   -0.0260 f         1 0QN     -0.238300
     28 F21         7.5480   -1.9800   -0.6220 f         1 0QN     -0.238300
     29 F31         7.8270   -0.4200   -2.1010 f         1 0QN     -0.238300
     30 H          -4.3840    0.0010   -1.6050 hn        1 0QN      0.343500
     31 HA         -3.6150   -0.6420    1.1990 h1        1 0QN      0.104700
     32 HB         -1.7110   -1.9730    0.1720 hc        1 0QN      0.062700
     33 HG11       -4.5850   -3.0070   -0.3580 hc        1 0QN      0.046533
     34 HG12       -3.0950   -4.0150   -0.1570 hc        1 0QN      0.046533
     35 HG13       -3.7090   -3.0190    1.2290 hc        1 0QN      0.046533
     36 HG21       -2.0170   -1.0130   -2.2060 hc        1 0QN      0.046533
     37 HG22       -1.8140   -2.8140   -2.0840 hc        1 0QN      0.046533
     38 HG23       -3.4520   -2.1120   -2.3830 hc        1 0QN      0.046533
     39 H1         -1.4320    0.1010    1.8130 hn        1 0QN      0.328500
     40 HA1        -0.3670    2.2550    0.0690 h1        1 0QN      0.100700
     41 HB1         0.7480    3.1930    2.0870 hc        1 0QN      0.057700
     42 HB2        -1.0530    3.1620    2.3190 hc        1 0QN      0.057700
     43 HB3        -0.0080    1.9330    3.1530 hc        1 0QN      0.057700
     44 HN2         1.8400    2.1340   -0.3890 hn        1 0QN      0.324500
     45 H2          3.8220    2.3160   -1.5860 ha        1 0QN      0.160000
     46 H3          6.1060    1.4750   -2.0070 ha        1 0QN      0.154000
     47 H5          5.5250   -1.6620    0.9090 ha        1 0QN      0.154000
     48 H6          3.2340   -0.8560    1.3630 ha        1 0QN      0.160000
@<TRIPOS>BOND
     1    1    2 1   
     2    1    3 2   
     3    1    7 1   
     4    2    4 1   
     5    2    5 1   
     6    2    6 1   
     7    7    8 1   
     8    7   30 1   
     9    8    9 1   
    10    8   11 1   
    11    8   31 1   
    12    9   10 2   
    13    9   14 1   
    14   11   12 1   
    15   11   13 1   
    16   11   32 1   
    17   12   33 1   
    18   12   34 1   
    19   12   35 1   
    20   13   36 1   
    21   13   37 1   
    22   13   38 1   
    23   14   15 1   
    24   14   39 1   
    25   15   16 1   
    26   15   18 1   
    27   15   40 1   
    28   16   17 2   
    29   16   19 1   
    30   18   41 1   
    31   18   42 1   
    32   18   43 1   
    33   19   20 1   
    34   19   44 1   
    35   20   21 ar  
    36   20   25 ar  
    37   21   22 ar  
    38   21   45 1   
    39   22   23 ar  
    40   22   46 1   
    41   23   24 ar  
    42   23   26 1   
    43   24   25 ar  
    44   24   47 1   
    45   25   48 1   
    46   26   27 1   
    47   26   28 1   
    48   26   29 1   
@<TRIPOS>SUBSTRUCTURE
     1 0QN         1 TEMP              0 ****  ****    0 ROOT
