@<TRIPOS>MOLECULE
0QN
   48    45     1     0     0
SMALL
bcc


@<TRIPOS>ATOM
      1 C1          4.4140    2.3340    0.3310 c1        1 0QN      0.276000
      2 C2          5.9010    2.4920    0.1040 c2        1 0QN      0.400000
      3 O           3.9790    2.2350    1.4610 o         1 0QN     -0.314000
      4 F1          6.2880    1.6880   -0.8940 f         1 0QN     -0.146667
      5 F2          6.1710    3.7640   -0.2160 f         1 0QN     -0.146667
      6 F3          6.5600    2.1630    1.2230 f         1 0QN     -0.146667
      7 N           3.5300    2.2680   -0.7780 n3        1 0QN     -0.349000
      8 CA          2.1310    2.1530   -0.5640 c3        1 0QN      0.017000
      9 C           1.6000    0.9630   -1.3290 c2        1 0QN      0.287000
     10 O1          1.6560    0.9470   -2.5430 o         1 0QN     -0.385000
     11 CB          1.4410    3.4110   -1.0460 c3        1 0QN     -0.103000
     12 CG1         2.4740    4.3810   -1.5780 c3        1 0QN     -0.218500
     13 CG2         0.6950    4.0500    0.1050 c3        1 0QN     -0.218500
     14 N1          0.9940   -0.1160   -0.6330 n         1 0QN     -0.370000
     15 CA1         0.0500   -0.9460   -1.2930 c3        1 0QN      0.012000
     16 C3         -0.8290   -1.6260   -0.2660 c2        1 0QN      0.286000
     17 O2         -0.3430   -2.0540    0.7620 o         1 0QN     -0.339000
     18 CB1         0.7790   -1.9920   -2.1040 c3        1 0QN     -0.219000
     19 N2         -2.2160   -1.7890   -0.5150 n         1 0QN     -0.323000
     20 C11        -3.0350   -2.4510    0.4350 c2        1 0QN      0.110000
     21 C21        -3.1230   -3.8340    0.4280 c2        1 0QN     -0.170000
     22 C31        -3.9800   -4.4780    1.3060 c1        1 0QN     -0.053000
     23 C4         -4.7490   -3.7400    2.1910 c1        1 0QN     -0.198000
     24 C5         -4.6600   -2.3570    2.1980 c1        1 0QN     -0.054000
     25 C6         -3.8040   -1.7130    1.3200 c1        1 0QN     -0.192000
     26 C7         -5.6890   -4.4420    3.1420 c3        1 0QN      0.471000
     27 F11        -6.8650   -4.6490    2.5360 f         1 0QN     -0.168667
     28 F21        -5.8750   -3.6820    4.2290 f         1 0QN     -0.168667
     29 F31        -5.1620   -5.6180    3.5050 f         1 0QN     -0.168667
     30 H           3.8640    2.2480   -1.6260 hn        1 0QN      0.257000
     31 HA          1.9560    2.0310    0.3900 h1        1 0QN      0.134000
     32 HB          0.8110    3.1850   -1.7560 hc        1 0QN      0.122000
     33 HG11        3.0360    3.9280   -2.2400 hc        1 0QN      0.084667
     34 HG12        2.0210    5.1420   -1.9990 hc        1 0QN      0.084667
     35 HG13        3.0320    4.7010   -0.8390 hc        1 0QN      0.084667
     36 HG21        0.1200    4.7670   -0.2360 hc        1 0QN      0.084667
     37 HG22        0.1430    3.3740    0.5530 hc        1 0QN      0.084667
     38 HG23        1.3370    4.4230    0.7440 hc        1 0QN      0.084667
     39 H1          1.1920   -0.2600    0.2460 hn        1 0QN      0.259000
     40 HA1        -0.5040   -0.4010   -1.8870 h1        1 0QN      0.127000
     41 HB1         1.7050   -1.7070   -2.2490 hc        1 0QN      0.100000
     42 HB2         0.3330   -2.1040   -2.9700 hc        1 0QN      0.100000
     43 HB3         0.7720   -2.8450   -1.6200 hc        1 0QN      0.100000
     44 HN2        -2.5830   -1.4610   -1.2830 hn        1 0QN      0.260000
     45 H2         -2.5820   -4.3550   -0.1960 ha        1 0QN      0.180000
     46 H3         -4.0420   -5.4530    1.3010 ha        1 0QN      0.153000
     47 H5         -5.2020   -1.8370    2.8220 ha        1 0QN      0.150000
     48 H6         -3.7420   -0.7390    1.3260 ha        1 0QN      0.144000
@<TRIPOS>BOND
     1    1    3 1   
     2    1    7 1   
     3    2    4 1   
     4    2    5 1   
     5    2    6 1   
     6    7    8 1   
     7    7   30 1   
     8    8    9 1   
     9    8   11 1   
    10    8   31 1   
    11    9   10 1   
    12    9   14 1   
    13   11   12 1   
    14   11   13 1   
    15   11   32 1   
    16   12   33 1   
    17   12   34 1   
    18   12   35 1   
    19   13   36 1   
    20   13   37 1   
    21   13   38 1   
    22   14   15 1   
    23   14   39 1   
    24   15   16 1   
    25   15   18 1   
    26   15   40 1   
    27   16   17 1   
    28   16   19 1   
    29   18   41 1   
    30   18   42 1   
    31   18   43 1   
    32   19   20 1   
    33   19   44 1   
    34   20   21 1   
    35   20   25 1   
    36   21   22 1   
    37   21   45 1   
    38   22   46 1   
    39   23   24 1   
    40   23   26 1   
    41   24   47 1   
    42   25   48 1   
    43   26   27 1   
    44   26   28 1   
    45   26   29 1   
@<TRIPOS>SUBSTRUCTURE
     1 0QN         1 TEMP              0 ****  ****    0 ROOT
