@<TRIPOS>MOLECULE
0QR
   28    29     1     0     0
SMALL
bcc


@<TRIPOS>ATOM
      1 CAD        -0.0040   -0.3270    0.0140 ca        1 0QR      0.022000
      2 CAE         1.3850   -0.3570    0.0080 ca        1 0QR     -0.203000
      3 CAF         2.0830   -0.1180    1.2080 ca        1 0QR      0.192900
      4 FAG         3.4340   -0.1390    1.2160 f         1 0QR     -0.130900
      5 CAH         1.3780    0.1390    2.4010 ca        1 0QR     -0.203000
      6 CAI        -0.0090    0.1600    2.3750 ca        1 0QR      0.022000
      7 CAC        -0.7210   -0.0650    1.1880 ca        1 0QR     -0.397500
      8 SAB        -2.4010   -0.0750    1.1880 sy        1 0QR      1.525200
      9 OAA        -2.8700   -0.7900    0.0780 o         1 0QR     -0.644800
     10 OAR        -2.8480   -0.5230    2.4530 o         1 0QR     -0.644800
     11 NA2        -2.8160    1.5140    1.1350 nu        1 0QR     -0.866800
     12 CAK        -2.6130    2.4160    0.0790 ca        1 0QR      0.713200
     13 NA3        -1.8950    1.9640   -0.9890 nb        1 0QR     -0.798000
     14 CAQ        -3.1360    3.7370    0.1590 ca        1 0QR     -0.333300
     15 CAP        -2.9110    4.5960   -0.9120 ca        1 0QR     -0.026000
     16 CAO        -2.2020    4.1630   -2.0230 ca        1 0QR     -0.334300
     17 CAM        -1.7140    2.8190   -2.0430 ca        1 0QR      0.686200
     18 NA1        -1.0870    2.3380   -3.1940 nv        1 0QR     -0.936500
     19 H1         -0.5600   -0.5190   -0.9230 ha        1 0QR      0.163000
     20 H2          1.9430   -0.5680   -0.9150 ha        1 0QR      0.156000
     21 H3          1.9310    0.3140    3.3350 ha        1 0QR      0.156000
     22 H4         -0.5670    0.3390    3.3120 ha        1 0QR      0.163000
     23 H5         -3.2860    1.9250    1.9120 hn        1 0QR      0.461800
     24 H6         -3.7030    4.0690    1.0370 ha        1 0QR      0.145000
     25 H7         -3.3020    5.6250   -0.8770 ha        1 0QR      0.140000
     26 H8         -2.0320    4.8300   -2.8770 ha        1 0QR      0.146000
     27 H9         -0.6220    1.4610   -3.1290 hn        1 0QR      0.413800
     28 H10        -0.6220    3.0280   -3.7360 hn        1 0QR      0.413800
@<TRIPOS>BOND
     1    1    2 ar  
     2    1    7 ar  
     3    1   19 1   
     4    2    3 ar  
     5    2   20 1   
     6    3    4 1   
     7    3    5 ar  
     8    5    6 ar  
     9    5   21 1   
    10    6    7 ar  
    11    6   22 1   
    12    7    8 1   
    13    8    9 2   
    14    8   10 2   
    15    8   11 1   
    16   11   12 1   
    17   11   23 1   
    18   12   13 ar  
    19   12   14 ar  
    20   13   17 ar  
    21   14   15 ar  
    22   14   24 1   
    23   15   16 ar  
    24   15   25 1   
    25   16   17 ar  
    26   16   26 1   
    27   17   18 1   
    28   18   27 1   
    29   18   28 1   
@<TRIPOS>SUBSTRUCTURE
     1 0QR         1 TEMP              0 ****  ****    0 ROOT
