@<TRIPOS>MOLECULE
0QR
   28    29     1     0     0
SMALL
bcc


@<TRIPOS>ATOM
      1 CAD        -1.4510    0.4650    0.9740 ca        1 0QR      0.023000
      2 CAE        -2.4490    1.4030    0.7360 ca        1 0QR     -0.200500
      3 CAF        -3.3530    1.1910   -0.3220 ca        1 0QR      0.194900
      4 FAG        -4.3250    2.0960   -0.5690 f         1 0QR     -0.130900
      5 CAH        -3.2510    0.0360   -1.1230 ca        1 0QR     -0.200500
      6 CAI        -2.2440   -0.8820   -0.8610 ca        1 0QR      0.023000
      7 CAC        -1.3280   -0.6840    0.1820 ca        1 0QR     -0.402500
      8 SAB        -0.1420   -1.8290    0.5000 sy        1 0QR      1.525200
      9 OAA         0.2760   -1.7270    1.8330 o         1 0QR     -0.645800
     10 OAR        -0.6190   -3.0960    0.0910 o         1 0QR     -0.645800
     11 NA2         1.0590   -1.4680   -0.5660 nh        1 0QR     -0.865800
     12 CAK         1.8960   -0.3430   -0.5580 ca        1 0QR      0.711200
     13 NA3         1.6540    0.5960    0.4030 nb        1 0QR     -0.794000
     14 CAQ         2.9430   -0.2230   -1.5130 ca        1 0QR     -0.330300
     15 CAP         3.7580    0.9040   -1.4520 ca        1 0QR     -0.028000
     16 CAO         3.5440    1.8750   -0.4840 ca        1 0QR     -0.331300
     17 CAM         2.4650    1.6980    0.4370 ca        1 0QR      0.677200
     18 NA1         2.1780    2.7100    1.3610 nh        1 0QR     -0.927500
     19 H1         -0.7420    0.6220    1.8080 ha        1 0QR      0.162000
     20 H2         -2.5390    2.3030    1.3600 ha        1 0QR      0.157000
     21 H3         -3.9670   -0.1260   -1.9420 ha        1 0QR      0.157000
     22 H4         -2.1720   -1.7990   -1.4730 ha        1 0QR      0.162000
     23 H5          1.2600   -2.0990   -1.3110 hn        1 0QR      0.461800
     24 H6          3.1090   -0.9960   -2.2720 ha        1 0QR      0.146000
     25 H7          4.5800    1.0220   -2.1760 ha        1 0QR      0.140000
     26 H8          4.1810    2.7660   -0.4310 ha        1 0QR      0.146000
     27 H9          1.5750    2.4640    2.1150 hn        1 0QR      0.408800
     28 H10         2.9720    3.2460    1.6310 hn        1 0QR      0.408800
@<TRIPOS>BOND
     1    1    2 ar  
     2    1    7 ar  
     3    1   19 1   
     4    2    3 ar  
     5    2   20 1   
     6    3    4 1   
     7    3    5 ar  
     8    5    6 ar  
     9    5   21 1   
    10    6    7 ar  
    11    6   22 1   
    12    7    8 1   
    13    8    9 2   
    14    8   10 2   
    15    8   11 1   
    16   11   12 1   
    17   11   23 1   
    18   12   13 ar  
    19   12   14 ar  
    20   13   17 ar  
    21   14   15 ar  
    22   14   24 1   
    23   15   16 ar  
    24   15   25 1   
    25   16   17 ar  
    26   16   26 1   
    27   17   18 1   
    28   18   27 1   
    29   18   28 1   
@<TRIPOS>SUBSTRUCTURE
     1 0QR         1 TEMP              0 ****  ****    0 ROOT
