@<TRIPOS>MOLECULE
0QR
   30    30     1     0     0
SMALL
bcc


@<TRIPOS>ATOM
      1 CAD       549.5130 -408.6580  421.3800 ca        1 0QR      0.068000
      2 CAE       549.3060 -408.8010  422.7310 ca        1 0QR     -0.198000
      3 CAF       548.0290 -409.2050  423.2070 ca        1 0QR      0.326900
      4 FAG       547.8170 -409.3460  424.5160 f         1 0QR     -0.054900
      5 CAH       546.9800 -409.4560  422.2830 ca        1 0QR     -0.198000
      6 CAI       547.2090 -409.3070  420.9370 ca        1 0QR      0.068000
      7 CAC       548.4800 -408.9020  420.4230 ca        1 0QR     -0.674500
      8 SAB       548.7240 -408.7380  418.9170 s4        1 0QR      1.664300
      9 OAA       549.9490 -408.3530  418.5010 o         1 0QR     -0.391400
     10 OAR       547.7020 -408.9850  418.0690 o         1 0QR     -0.391400
     11 NA2      -483.7200  362.7350 -368.2660 nh        1 0QR     -0.948500
     12 CAK      -482.8290  361.7770 -368.6610 ca        1 0QR      0.730200
     13 NA3      -482.2800  360.9480 -367.7130 nb        1 0QR     -0.766000
     14 CAQ      -482.4740  361.6460 -370.0600 ca        1 0QR     -0.261300
     15 CAP      -481.5750  360.6770 -370.4420 ca        1 0QR     -0.029000
     16 CAO      -481.0020  359.8170 -369.4820 ca        1 0QR     -0.268300
     17 CAM      -481.3990  360.0120 -368.1560 ca        1 0QR      0.504200
     18 NA1      -480.8320  359.1370 -367.0970 n4        1 0QR     -0.823300
     19 H1        550.5120 -408.3430  421.0150 ha        1 0QR      0.186000
     20 H2        550.1170 -408.6080  423.4560 ha        1 0QR      0.205000
     21 H3        545.9890 -409.7700  422.6620 ha        1 0QR      0.205000
     22 H4        546.3850 -409.5050  420.2210 ha        1 0QR      0.186000
     23 H5       -484.1170  363.3340 -368.9490 hn        1 0QR      0.463800
     24 H6       -482.9260  362.3220 -370.8030 ha        1 0QR      0.178000
     25 H7       -481.2910  360.5600 -371.5020 ha        1 0QR      0.179000
     26 H8       -480.2850  359.0450 -369.7930 ha        1 0QR      0.168000
     27 H9       -480.1770  358.4760 -367.5250 hn        1 0QR      0.469800
     28 H10      -480.3400  359.7090 -366.3990 hn        1 0QR      0.469800
     29 HA22     -483.9780  362.8440 -367.3150 hn        1 0QR      0.463800
     30 HA13     -481.5870  358.6220 -366.6290 hn        1 0QR      0.469800
@<TRIPOS>BOND
     1    1    2 ar  
     2    1    7 ar  
     3    1   19 1   
     4    2    3 ar  
     5    2   20 1   
     6    3    4 1   
     7    3    5 ar  
     8    5    6 ar  
     9    5   21 1   
    10    6    7 ar  
    11    6   22 1   
    12    7    8 1   
    13    8    9 1   
    14    8   10 1   
    15   11   12 1   
    16   11   23 1   
    17   11   29 1   
    18   12   13 ar  
    19   12   14 ar  
    20   13   17 ar  
    21   14   15 ar  
    22   14   24 1   
    23   15   16 ar  
    24   15   25 1   
    25   16   17 ar  
    26   16   26 1   
    27   17   18 1   
    28   18   27 1   
    29   18   28 1   
    30   18   30 1   
@<TRIPOS>SUBSTRUCTURE
     1 0QR         1 TEMP              0 ****  ****    0 ROOT
