@<TRIPOS>MOLECULE
0QR
   28    20     1     0     0
SMALL
bcc


@<TRIPOS>ATOM
      1 CAD         1.7230   -2.7350    1.1510 c1        1 0QR      0.007000
      2 CAE         1.9180   -3.6160    2.2030 c1        1 0QR     -0.197000
      3 CAF         0.9210   -3.7980    3.1490 c1        1 0QR      0.156000
      4 FAG         1.1090   -4.6500    4.1640 f         1 0QR     -0.094000
      5 CAH        -0.2710   -3.0990    3.0420 c1        1 0QR     -0.121500
      6 CAI        -0.4660   -2.2180    1.9900 c1        1 0QR     -0.121500
      7 CAC         0.5310   -2.0360    1.0440 c1        1 0QR     -0.852000
      8 SAB         0.2890   -0.8950   -0.2920 ss        1 0QR      2.882000
      9 OAA         1.3750   -0.9530   -1.2310 o         1 0QR     -0.918500
     10 OAR        -0.8170   -1.2890   -1.1190 o         1 0QR     -0.918500
     11 NA2         0.0850    0.6270    0.2900 n2        1 0QR     -0.809000
     12 CAK        -0.1980    1.6950   -0.6010 c1        1 0QR      0.182000
     13 NA3        -0.8410    1.4490   -1.7770 n1        1 0QR     -0.267000
     14 CAQ         0.1260    2.9960   -0.2470 c1        1 0QR     -0.268000
     15 CAP        -0.2000    4.0290   -1.0770 c1        1 0QR     -0.121500
     16 CAO        -0.8430    3.7810   -2.2540 c1        1 0QR     -0.121500
     17 CAM        -1.1660    2.4800   -2.6060 c1        1 0QR      0.170000
     18 NA1        -1.8130    2.2190   -3.8410 n2        1 0QR     -0.330000
     19 H1          2.4250   -2.6070    0.4860 ha        1 0QR      0.163000
     20 H2          2.7580   -4.1080    2.2780 ha        1 0QR      0.159000
     21 H3         -0.9730   -3.2270    3.7080 ha        1 0QR      0.151500
     22 H4         -1.3060   -1.7260    1.9150 ha        1 0QR      0.151500
     23 H5          0.1220    0.7800    1.1880 hn        1 0QR      0.253000
     24 H6          0.5870    3.1720    0.5950 ha        1 0QR      0.143000
     25 H7          0.0280    4.9450   -0.8280 ha        1 0QR      0.151500
     26 H8         -1.0770    4.5200   -2.8480 ha        1 0QR      0.151500
     27 H9         -2.2740    1.4390   -3.9600 hn        1 0QR      0.211000
     28 H10        -1.7560    2.8250   -4.5240 hn        1 0QR      0.211000
@<TRIPOS>BOND
     1    1    7 1   
     2    1   19 1   
     3    2    3 1   
     4    2   20 1   
     5    3    4 1   
     6    5    6 1   
     7    5   21 1   
     8    6   22 1   
     9    8    9 1   
    10    8   10 1   
    11   11   12 1   
    12   11   23 1   
    13   12   14 1   
    14   13   17 1   
    15   14   24 1   
    16   15   16 1   
    17   15   25 1   
    18   16   26 1   
    19   18   27 1   
    20   18   28 1   
@<TRIPOS>SUBSTRUCTURE
     1 0QR         1 TEMP              0 ****  ****    0 ROOT
