@<TRIPOS>MOLECULE
0QR
   28    29     1     0     0
SMALL
bcc


@<TRIPOS>ATOM
      1 CAD        -0.0050   -0.3280    0.0150 ca        1 0QR      0.022000
      2 CAE         1.3840   -0.3620    0.0120 ca        1 0QR     -0.203000
      3 CAF         2.0810   -0.1270    1.2130 ca        1 0QR      0.192900
      4 FAG         3.4320   -0.1510    1.2240 f         1 0QR     -0.130900
      5 CAH         1.3740    0.1300    2.4050 ca        1 0QR     -0.203000
      6 CAI        -0.0130    0.1540    2.3770 ca        1 0QR      0.022000
      7 CAC        -0.7230   -0.0670    1.1890 ca        1 0QR     -0.397500
      8 SAB        -2.4040   -0.0730    1.1860 sy        1 0QR      1.525200
      9 OAA        -2.8720   -0.7850    0.0750 o         1 0QR     -0.644800
     10 OAR        -2.8530   -0.5210    2.4500 o         1 0QR     -0.644800
     11 NA2        -2.8140    1.5180    1.1340 nh        1 0QR     -0.866800
     12 CAK        -2.6070    2.4210    0.0800 ca        1 0QR      0.713200
     13 NA3        -1.8890    1.9670   -0.9890 nb        1 0QR     -0.798000
     14 CAQ        -3.1270    3.7430    0.1600 ca        1 0QR     -0.333300
     15 CAP        -2.8990    4.6030   -0.9100 ca        1 0QR     -0.026000
     16 CAO        -2.1890    4.1690   -2.0200 ca        1 0QR     -0.334300
     17 CAM        -1.7050    2.8240   -2.0410 ca        1 0QR      0.686200
     18 NA1        -1.0770    2.3420   -3.1920 nh        1 0QR     -0.936500
     19 H1         -0.5600   -0.5180   -0.9230 ha        1 0QR      0.163000
     20 H2          1.9430   -0.5730   -0.9110 ha        1 0QR      0.156000
     21 H3          1.9260    0.3020    3.3400 ha        1 0QR      0.156000
     22 H4         -0.5720    0.3330    3.3130 ha        1 0QR      0.163000
     23 H5         -3.2850    1.9290    1.9110 hn        1 0QR      0.461800
     24 H6         -3.6950    4.0760    1.0380 ha        1 0QR      0.145000
     25 H7         -3.2870    5.6330   -0.8740 ha        1 0QR      0.140000
     26 H8         -2.0170    4.8370   -2.8730 ha        1 0QR      0.146000
     27 H9         -0.6150    1.4640   -3.1280 hn        1 0QR      0.413800
     28 H10        -0.6100    3.0320   -3.7320 hn        1 0QR      0.413800
@<TRIPOS>BOND
     1    1    2 ar  
     2    1    7 ar  
     3    1   19 1   
     4    2    3 ar  
     5    2   20 1   
     6    3    4 1   
     7    3    5 ar  
     8    5    6 ar  
     9    5   21 1   
    10    6    7 ar  
    11    6   22 1   
    12    7    8 1   
    13    8    9 2   
    14    8   10 2   
    15    8   11 1   
    16   11   12 1   
    17   11   23 1   
    18   12   13 ar  
    19   12   14 ar  
    20   13   17 ar  
    21   14   15 ar  
    22   14   24 1   
    23   15   16 ar  
    24   15   25 1   
    25   16   17 ar  
    26   16   26 1   
    27   17   18 1   
    28   18   27 1   
    29   18   28 1   
@<TRIPOS>SUBSTRUCTURE
     1 0QR         1 TEMP              0 ****  ****    0 ROOT
