@<TRIPOS>MOLECULE
0QV
   34    36     1     0     0
SMALL
bcc


@<TRIPOS>ATOM
      1 CAJ        -0.2890    0.0370    0.0830 c3        1 0QV      0.069000
      2 CAH         1.1820   -0.3760    0.1220 c3        1 0QV     -0.115400
      3 CAQ         1.7170   -0.3290    1.5490 c3        1 0QV      0.140100
      4 OAA         3.1070   -0.6130    1.4680 oh        1 0QV     -0.596800
      5 CAI         1.4640    1.0390    2.1720 c3        1 0QV     -0.115400
      6 CAK        -0.0120    1.4150    2.0750 c3        1 0QV      0.069000
      7 NAR        -0.5590    1.3030    0.7340 n         1 0QV     -0.384800
      8 CAM        -1.0310    2.4110    0.0780 c         1 0QV      0.486600
      9 SAB        -1.0250    3.8900    0.7020 s         1 0QV     -0.540400
     10 CAN        -1.6170    2.2550   -1.2470 cc        1 0QV     -0.200400
     11 CAP        -2.6220    1.3100   -1.6950 ca        1 0QV     -0.067800
     12 CAF        -3.3100    0.2520   -1.0970 ca        1 0QV     -0.094000
     13 CAD        -4.2520   -0.4440   -1.8390 ca        1 0QV     -0.147000
     14 CAC        -4.5280   -0.1050   -3.1750 ca        1 0QV     -0.115000
     15 CAE        -3.8760    0.9430   -3.8070 ca        1 0QV     -0.136000
     16 CAO        -2.9230    1.6580   -3.0660 ca        1 0QV     -0.055200
     17 NAL        -2.1230    2.7520   -3.4230 na        1 0QV     -0.184400
     18 CAG        -1.3620    3.1200   -2.3220 cd        1 0QV     -0.026100
     19 H1         -0.9020   -0.7510    0.6110 h1        1 0QV      0.072450
     20 H2         -0.6210    0.0720   -0.9930 h1        1 0QV      0.072450
     21 H3          1.8000    0.2960   -0.5260 hc        1 0QV      0.064200
     22 H4          1.2740   -1.4170   -0.2810 hc        1 0QV      0.064200
     23 H5          1.2160   -1.1250    2.1710 h1        1 0QV      0.032700
     24 H6          3.4690   -0.4870    2.3530 ho        1 0QV      0.402000
     25 H7          2.0980    1.8050    1.6540 hc        1 0QV      0.064200
     26 H8          1.7550    1.0290    3.2530 hc        1 0QV      0.064200
     27 H9         -0.6110    0.7220    2.7340 h1        1 0QV      0.072450
     28 H10        -0.1500    2.4750    2.4490 h1        1 0QV      0.072450
     29 H11        -3.1050   -0.0160   -0.0500 ha        1 0QV      0.139000
     30 H12        -4.8020   -1.2780   -1.3770 ha        1 0QV      0.132000
     31 H13        -5.2840   -0.6830   -3.7290 ha        1 0QV      0.133000
     32 H14        -4.0990    1.2080   -4.8490 ha        1 0QV      0.135000
     33 H15        -2.1620    3.2270   -4.2850 hn        1 0QV      0.304700
     34 H16        -0.6830    3.9780   -2.3560 h4        1 0QV      0.188000
@<TRIPOS>BOND
     1    1    2 1   
     2    1    7 1   
     3    1   19 1   
     4    1   20 1   
     5    2    3 1   
     6    2   21 1   
     7    2   22 1   
     8    3    4 1   
     9    3    5 1   
    10    3   23 1   
    11    4   24 1   
    12    5    6 1   
    13    5   25 1   
    14    5   26 1   
    15    6    7 1   
    16    6   27 1   
    17    6   28 1   
    18    7    8 1   
    19    8    9 2   
    20    8   10 1   
    21   10   11 1   
    22   10   18 2   
    23   11   12 ar  
    24   11   16 ar  
    25   12   13 ar  
    26   12   29 1   
    27   13   14 ar  
    28   13   30 1   
    29   14   15 ar  
    30   14   31 1   
    31   15   16 ar  
    32   15   32 1   
    33   16   17 1   
    34   17   18 1   
    35   17   33 1   
    36   18   34 1   
@<TRIPOS>SUBSTRUCTURE
     1 0QV         1 TEMP              0 ****  ****    0 ROOT
