@<TRIPOS>MOLECULE
0QV
   34    36     1     0     0
SMALL
bcc


@<TRIPOS>ATOM
      1 CAJ        -0.2780    0.0400    0.0720 c3        1 0QV      0.069000
      2 CAH         1.1960   -0.3660    0.0930 c3        1 0QV     -0.115400
      3 CAQ         1.7470   -0.3210    1.5140 c3        1 0QV      0.140100
      4 OAA         3.1380   -0.5960    1.4160 oh        1 0QV     -0.596800
      5 CAI         1.4940    1.0450    2.1440 c3        1 0QV     -0.115400
      6 CAK         0.0150    1.4130    2.0660 c3        1 0QV      0.069000
      7 NAR        -0.5470    1.3020    0.7300 n         1 0QV     -0.384800
      8 CAM        -1.0330    2.4090    0.0830 c         1 0QV      0.486600
      9 SAB        -1.0280    3.8870    0.7120 s         1 0QV     -0.540400
     10 CAN        -1.6330    2.2530   -1.2360 cc        1 0QV     -0.200400
     11 CAP        -2.6390    1.3040   -1.6740 ca        1 0QV     -0.067800
     12 CAF        -3.3130    0.2410   -1.0710 ca        1 0QV     -0.094000
     13 CAD        -4.2610   -0.4580   -1.8040 ca        1 0QV     -0.147000
     14 CAC        -4.5540   -0.1170   -3.1360 ca        1 0QV     -0.115000
     15 CAE        -3.9150    0.9360   -3.7720 ca        1 0QV     -0.136000
     16 CAO        -2.9570    1.6550   -3.0410 ca        1 0QV     -0.055200
     17 NAL        -2.1680    2.7540   -3.4040 na        1 0QV     -0.184400
     18 CAG        -1.3960    3.1230   -2.3110 cd        1 0QV     -0.026100
     19 H1         -0.8810   -0.7540    0.6050 h1        1 0QV      0.072450
     20 H2         -0.6230    0.0750   -1.0000 h1        1 0QV      0.072450
     21 H3          1.2890   -1.4050   -0.3140 hc        1 0QV      0.064200
     22 H4          1.8030    0.3120   -0.5600 hc        1 0QV      0.064200
     23 H5          1.2570   -1.1210    2.1390 h1        1 0QV      0.032700
     24 H6          3.5090   -0.4710    2.2980 ho        1 0QV      0.402000
     25 H7          1.7980    1.0330    3.2220 hc        1 0QV      0.064200
     26 H8          2.1180    1.8150    1.6210 hc        1 0QV      0.064200
     27 H9         -0.1240    2.4710    2.4430 h1        1 0QV      0.072450
     28 H10        -0.5730    0.7150    2.7290 h1        1 0QV      0.072450
     29 H11        -3.0940   -0.0290   -0.0270 ha        1 0QV      0.139000
     30 H12        -4.8000   -1.2960   -1.3390 ha        1 0QV      0.132000
     31 H13        -5.3120   -0.6980   -3.6830 ha        1 0QV      0.133000
     32 H14        -4.1520    1.2030   -4.8110 ha        1 0QV      0.135000
     33 H15        -2.2190    3.2310   -4.2640 hn        1 0QV      0.304700
     34 H16        -0.7230    3.9850   -2.3500 h4        1 0QV      0.188000
@<TRIPOS>BOND
     1    1    2 1   
     2    1    7 1   
     3    1   19 1   
     4    1   20 1   
     5    2    3 1   
     6    2   21 1   
     7    2   22 1   
     8    3    4 1   
     9    3    5 1   
    10    3   23 1   
    11    4   24 1   
    12    5    6 1   
    13    5   25 1   
    14    5   26 1   
    15    6    7 1   
    16    6   27 1   
    17    6   28 1   
    18    7    8 1   
    19    8    9 2   
    20    8   10 1   
    21   10   11 1   
    22   10   18 2   
    23   11   12 ar  
    24   11   16 ar  
    25   12   13 ar  
    26   12   29 1   
    27   13   14 ar  
    28   13   30 1   
    29   14   15 ar  
    30   14   31 1   
    31   15   16 ar  
    32   15   32 1   
    33   16   17 1   
    34   17   18 1   
    35   17   33 1   
    36   18   34 1   
@<TRIPOS>SUBSTRUCTURE
     1 0QV         1 TEMP              0 ****  ****    0 ROOT
