@<TRIPOS>MOLECULE
0QV
   34    36     1     0     0
SMALL
bcc


@<TRIPOS>ATOM
      1 CAJ        -0.2820    0.0420    0.0800 c3        1 0QV      0.069000
      2 CAH         1.1910   -0.3670    0.1070 c3        1 0QV     -0.115400
      3 CAQ         1.7390   -0.3120    1.5290 c3        1 0QV      0.140100
      4 OAA         3.1300   -0.5920    1.4370 oh        1 0QV     -0.596800
      5 CAI         1.4870    1.0580    2.1490 c3        1 0QV     -0.115400
      6 CAK         0.0090    1.4290    2.0640 c3        1 0QV      0.069000
      7 NAR        -0.5500    1.3090    0.7290 n         1 0QV     -0.384800
      8 CAM        -1.0310    2.4130    0.0720 c         1 0QV      0.486600
      9 SAB        -1.0250    3.8950    0.6910 s         1 0QV     -0.540400
     10 CAN        -1.6280    2.2490   -1.2470 cc        1 0QV     -0.200400
     11 CAP        -2.6350    1.3000   -1.6810 ca        1 0QV     -0.067800
     12 CAF        -3.3130    0.2420   -1.0730 ca        1 0QV     -0.094000
     13 CAD        -4.2600   -0.4600   -1.8040 ca        1 0QV     -0.147000
     14 CAC        -4.5490   -0.1280   -3.1390 ca        1 0QV     -0.115000
     15 CAE        -3.9060    0.9200   -3.7810 ca        1 0QV     -0.136000
     16 CAO        -2.9490    1.6410   -3.0520 ca        1 0QV     -0.055200
     17 NAL        -2.1560    2.7360   -3.4200 na        1 0QV     -0.184400
     18 CAG        -1.3860    3.1110   -2.3270 cd        1 0QV     -0.026100
     19 H1         -0.8870   -0.7460    0.6170 h1        1 0QV      0.072450
     20 H2         -0.6240    0.0710   -0.9930 h1        1 0QV      0.072450
     21 H3          1.2830   -1.4090   -0.2920 hc        1 0QV      0.064200
     22 H4          1.8020    0.3050   -0.5490 hc        1 0QV      0.064200
     23 H5          1.2460   -1.1070    2.1590 h1        1 0QV      0.032700
     24 H6          3.4990   -0.4620    2.3180 ho        1 0QV      0.402000
     25 H7          2.1140    1.8240    1.6220 hc        1 0QV      0.064200
     26 H8          1.7880    1.0530    3.2280 hc        1 0QV      0.064200
     27 H9         -0.1290    2.4900    2.4350 h1        1 0QV      0.072450
     28 H10        -0.5820    0.7370    2.7320 h1        1 0QV      0.072450
     29 H11        -3.0980   -0.0210   -0.0270 ha        1 0QV      0.139000
     30 H12        -4.8030   -1.2940   -1.3340 ha        1 0QV      0.132000
     31 H13        -5.3070   -0.7110   -3.6830 ha        1 0QV      0.133000
     32 H14        -4.1400    1.1790   -4.8220 ha        1 0QV      0.135000
     33 H15        -2.2030    3.2070   -4.2840 hn        1 0QV      0.304700
     34 H16        -0.7110    3.9710   -2.3710 h4        1 0QV      0.188000
@<TRIPOS>BOND
     1    1    2 1   
     2    1    7 1   
     3    1   19 1   
     4    1   20 1   
     5    2    3 1   
     6    2   21 1   
     7    2   22 1   
     8    3    4 1   
     9    3    5 1   
    10    3   23 1   
    11    4   24 1   
    12    5    6 1   
    13    5   25 1   
    14    5   26 1   
    15    6    7 1   
    16    6   27 1   
    17    6   28 1   
    18    7    8 1   
    19    8    9 2   
    20    8   10 1   
    21   10   11 1   
    22   10   18 2   
    23   11   12 ar  
    24   11   16 ar  
    25   12   13 ar  
    26   12   29 1   
    27   13   14 ar  
    28   13   30 1   
    29   14   15 ar  
    30   14   31 1   
    31   15   16 ar  
    32   15   32 1   
    33   16   17 1   
    34   17   18 1   
    35   17   33 1   
    36   18   34 1   
@<TRIPOS>SUBSTRUCTURE
     1 0QV         1 TEMP              0 ****  ****    0 ROOT
