@<TRIPOS>MOLECULE
0QV
   34    30     1     0     0
SMALL
bcc


@<TRIPOS>ATOM
      1 CAJ         0.9310    2.2010   -0.2330 c3        1 0QV      0.072000
      2 CAH         2.4530    2.2080   -0.2400 c3        1 0QV     -0.107900
      3 CAQ         3.0270    2.2360    1.1330 c3        1 0QV      0.138100
      4 OAA         2.7450    3.5300    1.7350 oh        1 0QV     -0.598800
      5 CAI         2.4630    1.1710    2.0000 c3        1 0QV     -0.107900
      6 CAK         0.9420    1.1690    1.9990 c3        1 0QV      0.072000
      7 NAR         0.3770    1.1470    0.6320 n         1 0QV     -0.380800
      8 CAM        -0.9570    0.6650    0.4140 c2        1 0QV      0.350300
      9 SAB        -2.2400    1.3610    1.2240 s         1 0QV     -0.424300
     10 CAN        -1.2020   -0.4800   -0.5600 ce        1 0QV     -0.118400
     11 CAP        -1.5640   -1.8100   -0.6470 cg        1 0QV     -0.091300
     12 CAF        -1.3220   -2.9150    0.1970 c1        1 0QV     -0.066250
     13 CAD        -1.8220   -4.1700   -0.1400 c1        1 0QV     -0.066250
     14 CAC        -2.5620   -4.3360   -1.3130 c1        1 0QV     -0.066250
     15 CAE        -2.7990   -3.2550   -2.1400 c1        1 0QV     -0.066250
     16 CAO        -2.2910   -1.9740   -1.7980 c1        1 0QV     -0.007000
     17 NAL        -2.3810   -0.7470   -2.4270 n1        1 0QV     -0.534800
     18 CAG        -1.7110    0.1720   -1.6650 cg        1 0QV      0.281500
     19 H1          0.6060    2.0570   -1.1620 h1        1 0QV      0.075950
     20 H2          0.6110    3.0700    0.0840 h1        1 0QV      0.075950
     21 H3          2.7710    1.4050   -0.6980 hc        1 0QV      0.059950
     22 H4          2.7650    2.9960   -0.7300 hc        1 0QV      0.059950
     23 H5          3.9980    2.1180    1.0750 h1        1 0QV      0.035700
     24 H6          3.5060    3.9900    1.8210 ho        1 0QV      0.400000
     25 H7          2.7810    0.3010    1.6800 hc        1 0QV      0.059950
     26 H8          2.7840    1.3100    2.9300 hc        1 0QV      0.059950
     27 H9          0.6230    1.9740    2.4600 h1        1 0QV      0.075950
     28 H10         0.6270    0.3800    2.4840 h1        1 0QV      0.075950
     29 H11        -0.8030   -2.7980    1.0200 ha        1 0QV      0.076000
     30 H12        -1.6530   -4.9400    0.4480 ha        1 0QV      0.076000
     31 H13        -2.9150   -5.2230   -1.5510 ha        1 0QV      0.076000
     32 H14        -3.3210   -3.3730   -2.9660 ha        1 0QV      0.076000
     33 H15        -2.8160   -0.5770   -3.2200 DU        1 0QV      0.219000
     34 H16        -1.6500    1.1360   -1.8450 DU        1 0QV      0.219000
@<TRIPOS>BOND
     1    1    2 1   
     2    1    7 1   
     3    1   19 1   
     4    1   20 1   
     5    2    3 1   
     6    2   21 1   
     7    2   22 1   
     8    3    4 1   
     9    3    5 1   
    10    3   23 1   
    11    4   24 1   
    12    5    6 1   
    13    5   25 1   
    14    5   26 1   
    15    6    7 1   
    16    6   27 1   
    17    6   28 1   
    18    7    8 1   
    19    8    9 1   
    20    8   10 2   
    21   10   11 1   
    22   10   18 1   
    23   11   16 3   
    24   12   13 3   
    25   12   29 1   
    26   13   30 1   
    27   14   15 3   
    28   14   31 1   
    29   15   32 1   
    30   17   18 3   
@<TRIPOS>SUBSTRUCTURE
     1 0QV         1 TEMP              0 ****  ****    0 ROOT
