@<TRIPOS>MOLECULE
0QV
   34    36     1     0     0
SMALL
bcc


@<TRIPOS>ATOM
      1 CAJ         1.1590   -0.7870    0.7690 c3        1 0QV      0.070000
      2 CAH         2.3760   -1.6760    0.5100 c3        1 0QV     -0.114900
      3 CAQ         3.6660   -0.9610    0.8990 c3        1 0QV      0.140100
      4 OAA         4.8060   -1.7070    0.4960 oh        1 0QV     -0.594800
      5 CAI         3.7590    0.3910    0.1990 c3        1 0QV     -0.114900
      6 CAK         2.5090    1.2230    0.4710 c3        1 0QV      0.070000
      7 NAR         1.2650    0.5310    0.1800 n         1 0QV     -0.384800
      8 CAM         0.4110    1.0040   -0.7830 c         1 0QV      0.484600
      9 SAB         0.6860    2.3230   -1.6550 s         1 0QV     -0.535400
     10 CAN        -0.8490    0.3080   -1.0180 cc        1 0QV     -0.200400
     11 CAP        -1.8520   -0.1110   -0.0570 ca        1 0QV     -0.067800
     12 CAF        -1.9580   -0.0620    1.3350 ca        1 0QV     -0.094000
     13 CAD        -3.1070   -0.5490    1.9400 ca        1 0QV     -0.147000
     14 CAC        -4.1630   -1.0870    1.1820 ca        1 0QV     -0.116000
     15 CAE        -4.1030   -1.1480   -0.2020 ca        1 0QV     -0.136000
     16 CAO        -2.9480   -0.6550   -0.8280 ca        1 0QV     -0.055200
     17 NAL        -2.6080   -0.5760   -2.1840 na        1 0QV     -0.184400
     18 CAG        -1.3610    0.0250   -2.2930 cd        1 0QV     -0.028100
     19 H1          0.2410   -1.3160    0.3880 h1        1 0QV      0.072200
     20 H2          1.0440   -0.6500    1.8850 h1        1 0QV      0.072200
     21 H3          2.2610   -2.6150    1.1110 hc        1 0QV      0.064200
     22 H4          2.4270   -1.9660   -0.5710 hc        1 0QV      0.064200
     23 H5          3.6930   -0.8160    2.0170 h1        1 0QV      0.032700
     24 H6          4.7240   -2.5790    0.8990 ho        1 0QV      0.400000
     25 H7          4.6530    0.9490    0.5770 hc        1 0QV      0.064200
     26 H8          3.8980    0.2300   -0.9010 hc        1 0QV      0.064200
     27 H9          2.4820    1.5020    1.5640 h1        1 0QV      0.072200
     28 H10         2.5610    2.1740   -0.1410 h1        1 0QV      0.072200
     29 H11        -1.1400    0.3630    1.9340 ha        1 0QV      0.139000
     30 H12        -3.2030   -0.5120    3.0350 ha        1 0QV      0.132000
     31 H13        -5.0570   -1.4620    1.7020 ha        1 0QV      0.133000
     32 H14        -4.9330   -1.5630   -0.7900 ha        1 0QV      0.135000
     33 H15        -3.1990   -0.8220   -2.9330 hn        1 0QV      0.304700
     34 H16        -0.9050    0.2260   -3.2670 h4        1 0QV      0.188000
@<TRIPOS>BOND
     1    1    2 1   
     2    1    7 1   
     3    1   19 1   
     4    1   20 1   
     5    2    3 1   
     6    2   21 1   
     7    2   22 1   
     8    3    4 1   
     9    3    5 1   
    10    3   23 1   
    11    4   24 1   
    12    5    6 1   
    13    5   25 1   
    14    5   26 1   
    15    6    7 1   
    16    6   27 1   
    17    6   28 1   
    18    7    8 1   
    19    8    9 2   
    20    8   10 1   
    21   10   11 1   
    22   10   18 2   
    23   11   12 ar  
    24   11   16 ar  
    25   12   13 ar  
    26   12   29 1   
    27   13   14 ar  
    28   13   30 1   
    29   14   15 ar  
    30   14   31 1   
    31   15   16 ar  
    32   15   32 1   
    33   16   17 1   
    34   17   18 1   
    35   17   33 1   
    36   18   34 1   
@<TRIPOS>SUBSTRUCTURE
     1 0QV         1 TEMP              0 ****  ****    0 ROOT
