@<TRIPOS>MOLECULE
0QW
   27    28     1     0     0
SMALL
bcc


@<TRIPOS>ATOM
      1 C8          2.8350   -0.3120    0.0720 c3        1 0QW      0.074000
      2 C9          3.7380    0.9150   -0.1170 c3        1 0QW     -0.091900
      3 C10         2.8180    2.0930   -0.4270 c3        1 0QW     -0.091900
      4 C11         1.3870    1.5350   -0.4640 c3        1 0QW      0.074000
      5 N1          1.4580    0.1280   -0.1030 n         1 0QW     -0.370800
      6 C7          0.4000   -0.6480    0.2480 c         1 0QW      0.447000
      7 S1          0.5570   -2.1390    0.8210 s         1 0QW     -0.543400
      8 C6         -0.9550   -0.0810    0.0670 ca        1 0QW     -0.198600
      9 C5         -1.3720    0.3240   -1.2110 ca        1 0QW     -0.077000
     10 C4         -2.6440    0.8470   -1.4130 ca        1 0QW     -0.170000
     11 C3         -3.5250    0.9800   -0.3350 ca        1 0QW     -0.083000
     12 C2         -3.1480    0.5660    0.9340 ca        1 0QW     -0.164000
     13 C1         -1.8660    0.0160    1.1370 ca        1 0QW      0.178100
     14 O1         -1.5820   -0.3640    2.4220 oh        1 0QW     -0.507100
     15 H1          3.0660   -1.1110   -0.6870 h1        1 0QW      0.067950
     16 H2          2.9600   -0.7680    1.0950 h1        1 0QW      0.067950
     17 H3          4.3310    1.1040    0.8110 hc        1 0QW      0.057950
     18 H4          4.4570    0.7380   -0.9540 hc        1 0QW      0.057950
     19 H5          2.9030    2.8830    0.3580 hc        1 0QW      0.057950
     20 H6          3.0760    2.5570   -1.4110 hc        1 0QW      0.057950
     21 H7          0.7160    2.0840    0.2530 h1        1 0QW      0.067950
     22 H8          0.9490    1.6350   -1.4960 h1        1 0QW      0.067950
     23 H9         -0.6860    0.2120   -2.0650 ha        1 0QW      0.136000
     24 H10        -2.9580    1.1540   -2.4210 ha        1 0QW      0.137000
     25 H11        -4.5280    1.4030   -0.4970 ha        1 0QW      0.137000
     26 H12        -3.8320    0.6480    1.7910 ha        1 0QW      0.155000
     27 H13        -0.8750   -1.0400    2.3900 ho        1 0QW      0.452000
@<TRIPOS>BOND
     1    1    2 1   
     2    1    5 1   
     3    1   15 1   
     4    1   16 1   
     5    2    3 1   
     6    2   17 1   
     7    2   18 1   
     8    3    4 1   
     9    3   19 1   
    10    3   20 1   
    11    4    5 1   
    12    4   21 1   
    13    4   22 1   
    14    5    6 1   
    15    6    7 2   
    16    6    8 1   
    17    8    9 ar  
    18    8   13 ar  
    19    9   10 ar  
    20    9   23 1   
    21   10   11 ar  
    22   10   24 1   
    23   11   12 ar  
    24   11   25 1   
    25   12   13 ar  
    26   12   26 1   
    27   13   14 1   
    28   14   27 1   
@<TRIPOS>SUBSTRUCTURE
     1 0QW         1 TEMP              0 ****  ****    0 ROOT
