@<TRIPOS>MOLECULE
0QW
   27    25     1     0     0
SMALL
bcc


@<TRIPOS>ATOM
      1 C8         -0.0900    2.0680    0.3170 c3        1 0QW      0.078000
      2 C9          0.7980    3.2110   -0.2980 c3        1 0QW     -0.089900
      3 C10         1.4240    2.6110   -1.5570 c3        1 0QW     -0.089900
      4 C11         1.1770    1.3060   -1.4770 c3        1 0QW      0.078000
      5 N1         -0.1560    1.1540   -0.6050 n         1 0QW     -0.374800
      6 C7         -1.0390    0.0440   -0.6180 c         1 0QW      0.401600
      7 S1         -2.3650    0.0410   -1.6380 s         1 0QW     -0.514400
      8 C6         -0.7950   -1.1260    0.3080 cg        1 0QW     -0.082200
      9 C5         -1.0320   -0.9940    1.6670 c1        1 0QW     -0.072000
     10 C4         -0.8790   -2.0860    2.5060 c1        1 0QW     -0.072000
     11 C3         -0.4880   -3.3090    1.9870 c1        1 0QW     -0.072000
     12 C2         -0.2510   -3.4420    0.6290 c1        1 0QW     -0.072000
     13 C1         -0.4050   -2.3510   -0.2110 c1        1 0QW      0.124600
     14 O1         -0.1500   -2.4810   -1.5880 oh        1 0QW     -0.482600
     15 H1          0.3320    1.7070    1.1250 h1        1 0QW      0.065950
     16 H2         -0.9860    2.4080    0.5230 h1        1 0QW      0.065950
     17 H3          0.2430    3.9820   -0.5310 hc        1 0QW      0.055200
     18 H4          1.4960    3.4740    0.3340 hc        1 0QW      0.055200
     19 H5          2.3900    2.7740   -1.5680 hc        1 0QW      0.055200
     20 H6          1.0050    2.9880   -2.3580 hc        1 0QW      0.055200
     21 H7          1.9220    0.8490   -1.0340 h1        1 0QW      0.065950
     22 H8          1.0370    0.9350   -2.3720 h1        1 0QW      0.065950
     23 H9         -1.3080   -0.1320    2.0320 ha        1 0QW      0.083250
     24 H10        -1.0460   -1.9930    3.4630 ha        1 0QW      0.083250
     25 H11        -0.3800   -4.0780    2.5780 ha        1 0QW      0.083250
     26 H12         0.0240   -4.3040    0.2630 ha        1 0QW      0.083250
     27 H13        -0.4790   -3.2540   -1.8780 ho        1 0QW      0.424000
@<TRIPOS>BOND
     1    1    2 1   
     2    1    5 1   
     3    1   15 1   
     4    1   16 1   
     5    2    3 1   
     6    2   17 1   
     7    2   18 1   
     8    3    4 1   
     9    3   19 1   
    10    3   20 1   
    11    4    5 1   
    12    4   21 1   
    13    4   22 1   
    14    5    6 1   
    15    6    7 2   
    16    6    8 1   
    17    8   13 3   
    18    9   10 3   
    19    9   23 1   
    20   10   24 1   
    21   11   12 3   
    22   11   25 1   
    23   12   26 1   
    24   13   14 1   
    25   14   27 1   
@<TRIPOS>SUBSTRUCTURE
     1 0QW         1 TEMP              0 ****  ****    0 ROOT
