@<TRIPOS>MOLECULE
0QW
   27    28     1     0     0
SMALL
bcc


@<TRIPOS>ATOM
      1 C8         -0.0410    0.2130    0.0890 c3        1 0QW      0.078000
      2 C9          1.4870    0.0930   -0.0160 c3        1 0QW     -0.089900
      3 C10         1.9600   -0.6170    1.2490 c3        1 0QW     -0.089900
      4 C11         0.7000   -0.9370    2.0700 c3        1 0QW      0.078000
      5 N1         -0.4400   -0.4020    1.3460 n         1 0QW     -0.374800
      6 C7         -1.7400   -0.5170    1.7190 c         1 0QW      0.453000
      7 S1         -2.9640    0.0710    0.8790 s         1 0QW     -0.514400
      8 C6         -2.0290   -1.2060    3.0000 ca        1 0QW     -0.133600
      9 C5         -2.5330   -0.4700    4.0790 ca        1 0QW     -0.060000
     10 C4         -2.8820   -1.1020    5.2700 ca        1 0QW     -0.164000
     11 C3         -2.7440   -2.4840    5.3980 ca        1 0QW     -0.081000
     12 C2         -2.2460   -3.2390    4.3400 ca        1 0QW     -0.213000
     13 C1         -1.8810   -2.5990    3.1460 ca        1 0QW      0.141100
     14 O1         -1.3510   -3.2980    2.0840 oh        1 0QW     -0.499100
     15 H1         -0.3700    1.2890    0.0800 h1        1 0QW      0.065950
     16 H2         -0.5560   -0.3080   -0.7670 h1        1 0QW      0.065950
     17 H3          1.7640   -0.4900   -0.9290 hc        1 0QW      0.055200
     18 H4          1.9480    1.1070   -0.1030 hc        1 0QW      0.055200
     19 H5          2.5050   -1.5600    1.0000 hc        1 0QW      0.055200
     20 H6          2.6500    0.0340    1.8390 hc        1 0QW      0.055200
     21 H7          0.5800   -2.0490    2.2030 h1        1 0QW      0.065950
     22 H8          0.7540   -0.4640    3.0900 h1        1 0QW      0.065950
     23 H9         -2.6690    0.6180    3.9700 ha        1 0QW      0.151000
     24 H10        -3.2780   -0.5080    6.1070 ha        1 0QW      0.140000
     25 H11        -3.0310   -2.9820    6.3360 ha        1 0QW      0.136000
     26 H12        -2.1420   -4.3290    4.4330 ha        1 0QW      0.136000
     27 H13        -1.4920   -4.2420    2.2480 ho        1 0QW      0.424000
@<TRIPOS>BOND
     1    1    2 1   
     2    1    5 1   
     3    1   15 1   
     4    1   16 1   
     5    2    3 1   
     6    2   17 1   
     7    2   18 1   
     8    3    4 1   
     9    3   19 1   
    10    3   20 1   
    11    4    5 1   
    12    4   21 1   
    13    4   22 1   
    14    5    6 1   
    15    6    7 2   
    16    6    8 1   
    17    8    9 ar  
    18    8   13 ar  
    19    9   10 ar  
    20    9   23 1   
    21   10   11 ar  
    22   10   24 1   
    23   11   12 ar  
    24   11   25 1   
    25   12   13 ar  
    26   12   26 1   
    27   13   14 1   
    28   14   27 1   
@<TRIPOS>SUBSTRUCTURE
     1 0QW         1 TEMP              0 ****  ****    0 ROOT
