@<TRIPOS>MOLECULE
0QW
   27    28     1     0     0
SMALL
bcc


@<TRIPOS>ATOM
      1 C8         -0.0550    0.2140    0.0850 c3        1 0QW      0.078000
      2 C9          1.4740    0.1110   -0.0190 c3        1 0QW     -0.089900
      3 C10         1.9540   -0.5890    1.2490 c3        1 0QW     -0.089900
      4 C11         0.6980   -0.9210    2.0710 c3        1 0QW      0.078000
      5 N1         -0.4470   -0.4010    1.3440 n         1 0QW     -0.374800
      6 C7         -1.7460   -0.5300    1.7160 c         1 0QW      0.453000
      7 S1         -2.9760    0.0410    0.8740 s         1 0QW     -0.514400
      8 C6         -2.0280   -1.2190    3.0000 ca        1 0QW     -0.133600
      9 C5         -2.5410   -0.4850    4.0760 ca        1 0QW     -0.060000
     10 C4         -2.8840   -1.1180    5.2690 ca        1 0QW     -0.164000
     11 C3         -2.7300   -2.4980    5.4010 ca        1 0QW     -0.081000
     12 C2         -2.2230   -3.2500    4.3460 ca        1 0QW     -0.213000
     13 C1         -1.8640   -2.6100    3.1490 ca        1 0QW      0.141100
     14 O1         -1.3260   -3.3050    2.0900 oh        1 0QW     -0.499100
     15 H1         -0.3960    1.2870    0.0730 h1        1 0QW      0.065950
     16 H2         -0.5630   -0.3150   -0.7690 h1        1 0QW      0.065950
     17 H3          1.9240    1.1300   -0.1080 hc        1 0QW      0.055200
     18 H4          1.7590   -0.4710   -0.9290 hc        1 0QW      0.055200
     19 H5          2.5110   -1.5260    1.0030 hc        1 0QW      0.055200
     20 H6          2.6360    0.0720    1.8370 hc        1 0QW      0.055200
     21 H7          0.5900   -2.0340    2.2070 h1        1 0QW      0.065950
     22 H8          0.7460   -0.4450    3.0880 h1        1 0QW      0.065950
     23 H9         -2.6890    0.6010    3.9640 ha        1 0QW      0.151000
     24 H10        -3.2870   -0.5270    6.1040 ha        1 0QW      0.140000
     25 H11        -3.0110   -2.9970    6.3400 ha        1 0QW      0.136000
     26 H12        -2.1060   -4.3390    4.4410 ha        1 0QW      0.136000
     27 H13        -1.4560   -4.2510    2.2570 ho        1 0QW      0.424000
@<TRIPOS>BOND
     1    1    2 1   
     2    1    5 1   
     3    1   15 1   
     4    1   16 1   
     5    2    3 1   
     6    2   17 1   
     7    2   18 1   
     8    3    4 1   
     9    3   19 1   
    10    3   20 1   
    11    4    5 1   
    12    4   21 1   
    13    4   22 1   
    14    5    6 1   
    15    6    7 2   
    16    6    8 1   
    17    8    9 ar  
    18    8   13 ar  
    19    9   10 ar  
    20    9   23 1   
    21   10   11 ar  
    22   10   24 1   
    23   11   12 ar  
    24   11   25 1   
    25   12   13 ar  
    26   12   26 1   
    27   13   14 1   
    28   14   27 1   
@<TRIPOS>SUBSTRUCTURE
     1 0QW         1 TEMP              0 ****  ****    0 ROOT
