@<TRIPOS>MOLECULE
0QW
   27    28     1     0     0
SMALL
bcc


@<TRIPOS>ATOM
      1 C8         -0.0270    0.2450    0.1120 c3        1 0QW      0.078000
      2 C9          1.4980    0.1010   -0.0020 c3        1 0QW     -0.089900
      3 C10         1.9630   -0.6410    1.2470 c3        1 0QW     -0.089900
      4 C11         0.7020   -0.9560    2.0670 c3        1 0QW      0.078000
      5 N1         -0.4310   -0.3880    1.3590 n         1 0QW     -0.374800
      6 C7         -1.7320   -0.4870    1.7350 c         1 0QW      0.453000
      7 S1         -2.9490    0.1380    0.9120 s         1 0QW     -0.514400
      8 C6         -2.0270   -1.1960    3.0040 ca        1 0QW     -0.133600
      9 C5         -2.5140   -0.4730    4.0990 ca        1 0QW     -0.060000
     10 C4         -2.8700   -1.1220    5.2790 ca        1 0QW     -0.164000
     11 C3         -2.7550   -2.5090    5.3800 ca        1 0QW     -0.081000
     12 C2         -2.2750   -3.2510    4.3050 ca        1 0QW     -0.213000
     13 C1         -1.9030   -2.5950    3.1220 ca        1 0QW      0.141100
     14 O1         -1.3900   -3.2810    2.0440 oh        1 0QW     -0.499100
     15 H1         -0.3380    1.3270    0.1260 h1        1 0QW      0.065950
     16 H2         -0.5540   -0.2510   -0.7510 h1        1 0QW      0.065950
     17 H3          1.9760    1.1090   -0.0700 hc        1 0QW      0.055200
     18 H4          1.7620   -0.4680   -0.9260 hc        1 0QW      0.055200
     19 H5          2.6660   -0.0130    1.8470 hc        1 0QW      0.055200
     20 H6          2.4930   -1.5870    0.9780 hc        1 0QW      0.055200
     21 H7          0.5630   -2.0680    2.1780 h1        1 0QW      0.065950
     22 H8          0.7670   -0.5060    3.0960 h1        1 0QW      0.065950
     23 H9         -2.6320    0.6190    4.0120 ha        1 0QW      0.151000
     24 H10        -3.2520   -0.5380    6.1300 ha        1 0QW      0.140000
     25 H11        -3.0470   -3.0200    6.3090 ha        1 0QW      0.136000
     26 H12        -2.1880   -4.3440    4.3760 ha        1 0QW      0.136000
     27 H13        -1.5470   -4.2260    2.1910 ho        1 0QW      0.424000
@<TRIPOS>BOND
     1    1    2 1   
     2    1    5 1   
     3    1   15 1   
     4    1   16 1   
     5    2    3 1   
     6    2   17 1   
     7    2   18 1   
     8    3    4 1   
     9    3   19 1   
    10    3   20 1   
    11    4    5 1   
    12    4   21 1   
    13    4   22 1   
    14    5    6 1   
    15    6    7 2   
    16    6    8 1   
    17    8    9 ar  
    18    8   13 ar  
    19    9   10 ar  
    20    9   23 1   
    21   10   11 ar  
    22   10   24 1   
    23   11   12 ar  
    24   11   25 1   
    25   12   13 ar  
    26   12   26 1   
    27   13   14 1   
    28   14   27 1   
@<TRIPOS>SUBSTRUCTURE
     1 0QW         1 TEMP              0 ****  ****    0 ROOT
