@<TRIPOS>MOLECULE
0QX
   31    34     1     0     0
SMALL
bcc


@<TRIPOS>ATOM
      1 CAS         2.1840    0.1400   -0.2770 ca        1 0QX     -0.098800
      2 CAE         2.2050   -1.2560   -0.2730 ca        1 0QX     -0.103000
      3 CAB         3.1140   -1.9110    0.5440 ca        1 0QX     -0.149000
      4 CAA         4.0090   -1.1970    1.3620 ca        1 0QX     -0.113000
      5 CAD         4.0260    0.1890    1.3850 ca        1 0QX     -0.138000
      6 CAQ         3.1120    0.8660    0.5630 ca        1 0QX     -0.047200
      7 NAL         2.8930    2.2330    0.3690 na        1 0QX     -0.188400
      8 CAH         1.8650    2.3880   -0.5600 cc        1 0QX     -0.076100
      9 CAN         1.4020    1.1380   -0.9790 cd        1 0QX     -0.170400
     10 CAI         0.3380    0.8880   -1.9600 c3        1 0QX     -0.020500
     11 CAO        -0.9670    0.5260   -1.3160 cc        1 0QX      0.419800
     12 NAM        -1.0180   -0.2710   -0.1450 na        1 0QX     -0.270300
     13 CAR        -2.3640   -0.4230    0.1720 ca        1 0QX     -0.052200
     14 CAF        -3.0590   -1.0820    1.1940 ca        1 0QX     -0.247300
     15 CAC        -4.4540   -1.0020    1.1360 ca        1 0QX      0.398200
     16 NAJ        -5.1650   -0.3500    0.1800 nb        1 0QX     -0.685000
     17 CAG        -4.5100    0.2810   -0.8000 ca        1 0QX      0.458200
     18 CAP        -3.0980    0.2870   -0.8670 ca        1 0QX     -0.053900
     19 NAK        -2.1930    0.8650   -1.7720 nd        1 0QX     -0.559100
     20 H1          1.5170   -1.8200   -0.9200 ha        1 0QX      0.137000
     21 H2          3.1430   -3.0100    0.5560 ha        1 0QX      0.134000
     22 H3          4.7140   -1.7570    1.9950 ha        1 0QX      0.134000
     23 H4          4.7300    0.7390    2.0230 ha        1 0QX      0.136000
     24 H5          3.3910    2.9590    0.8080 hn        1 0QX      0.303700
     25 H6          1.5280    3.3830   -0.8620 h4        1 0QX      0.174000
     26 H7          0.1830    1.7970   -2.6060 hc        1 0QX      0.080200
     27 H8          0.6350    0.0360   -2.6360 hc        1 0QX      0.080200
     28 H9         -0.2380   -0.5550    0.3900 hn        1 0QX      0.318700
     29 H10        -2.5470   -1.6270    1.9940 ha        1 0QX      0.144000
     30 H11        -5.0690   -1.4970    1.9100 h4        1 0QX      0.020100
     31 H12        -5.1200    0.7990   -1.5600 h4        1 0QX      0.034100
@<TRIPOS>BOND
     1    1    2 ar  
     2    1    6 ar  
     3    1    9 1   
     4    2    3 ar  
     5    2   20 1   
     6    3    4 ar  
     7    3   21 1   
     8    4    5 ar  
     9    4   22 1   
    10    5    6 ar  
    11    5   23 1   
    12    6    7 1   
    13    7    8 1   
    14    7   24 1   
    15    8    9 2   
    16    8   25 1   
    17    9   10 1   
    18   10   11 1   
    19   10   26 1   
    20   10   27 1   
    21   11   12 1   
    22   11   19 2   
    23   12   13 1   
    24   12   28 1   
    25   13   14 ar  
    26   13   18 ar  
    27   14   15 ar  
    28   14   29 1   
    29   15   16 ar  
    30   15   30 1   
    31   16   17 ar  
    32   17   18 ar  
    33   17   31 1   
    34   18   19 1   
@<TRIPOS>SUBSTRUCTURE
     1 0QX         1 TEMP              0 ****  ****    0 ROOT
