@<TRIPOS>MOLECULE
0QX
   31    34     1     0     0
SMALL
bcc


@<TRIPOS>ATOM
      1 CAS        -0.0920   -0.0830   -0.0970 ca        1 0QX     -0.098800
      2 CAE         1.0320   -0.7290    0.4220 ca        1 0QX     -0.103000
      3 CAB         1.1070   -0.9520    1.7880 ca        1 0QX     -0.149000
      4 CAA         0.0780   -0.5390    2.6550 ca        1 0QX     -0.113000
      5 CAD        -1.0530    0.1100    2.1830 ca        1 0QX     -0.138000
      6 CAQ        -1.1430    0.3430    0.8020 ca        1 0QX     -0.047200
      7 NAL        -2.1380    0.9630    0.0410 na        1 0QX     -0.188400
      8 CAH        -1.7480    0.9420   -1.2970 cc        1 0QX     -0.076100
      9 CAN        -0.5080    0.3120   -1.4270 cd        1 0QX     -0.170400
     10 CAI         0.2380    0.1090   -2.6760 c3        1 0QX     -0.020500
     11 CAO         0.1070   -1.2870   -3.2060 cc        1 0QX      0.419800
     12 NAM         0.0570   -2.4060   -2.3370 na        1 0QX     -0.270300
     13 CAR        -0.0510   -3.5320   -3.1470 ca        1 0QX     -0.052200
     14 CAF        -0.1470   -4.9080   -2.9010 ca        1 0QX     -0.247300
     15 CAC        -0.2220   -5.7280   -4.0310 ca        1 0QX      0.398200
     16 NAJ        -0.2070   -5.2960   -5.3180 nb        1 0QX     -0.685000
     17 CAG        -0.1160   -3.9850   -5.5620 ca        1 0QX      0.458200
     18 CAP        -0.0350   -3.0370   -4.5170 ca        1 0QX     -0.053900
     19 NAK         0.0630   -1.6360   -4.5110 nd        1 0QX     -0.559100
     20 H1          1.8460   -1.0420   -0.2480 ha        1 0QX      0.137000
     21 H2          1.9880   -1.4570    2.2120 ha        1 0QX      0.134000
     22 H3          0.1780   -0.7350    3.7330 ha        1 0QX      0.134000
     23 H4         -1.8500    0.4320    2.8660 ha        1 0QX      0.136000
     24 H5         -2.9670    1.3580    0.3970 hn        1 0QX      0.303700
     25 H6         -2.3830    1.3780   -2.0720 h4        1 0QX      0.174000
     26 H7         -0.1180    0.8300   -3.4630 hc        1 0QX      0.080200
     27 H8          1.3330    0.3090   -2.5020 hc        1 0QX      0.080200
     28 H9         -0.0050   -2.3650   -1.3520 hn        1 0QX      0.318700
     29 H10        -0.1620   -5.3230   -1.8870 ha        1 0QX      0.144000
     30 H11        -0.3000   -6.8240   -3.9140 h4        1 0QX      0.020100
     31 H12        -0.1050   -3.6690   -6.6210 h4        1 0QX      0.034100
@<TRIPOS>BOND
     1    1    2 ar  
     2    1    6 ar  
     3    1    9 1   
     4    2    3 ar  
     5    2   20 1   
     6    3    4 ar  
     7    3   21 1   
     8    4    5 ar  
     9    4   22 1   
    10    5    6 ar  
    11    5   23 1   
    12    6    7 1   
    13    7    8 1   
    14    7   24 1   
    15    8    9 2   
    16    8   25 1   
    17    9   10 1   
    18   10   11 1   
    19   10   26 1   
    20   10   27 1   
    21   11   12 1   
    22   11   19 2   
    23   12   13 1   
    24   12   28 1   
    25   13   14 ar  
    26   13   18 ar  
    27   14   15 ar  
    28   14   29 1   
    29   15   16 ar  
    30   15   30 1   
    31   16   17 ar  
    32   17   18 ar  
    33   17   31 1   
    34   18   19 1   
@<TRIPOS>SUBSTRUCTURE
     1 0QX         1 TEMP              0 ****  ****    0 ROOT
