@<TRIPOS>MOLECULE
0QX
   31    34     1     0     0
SMALL
bcc


@<TRIPOS>ATOM
      1 CAS        -0.1960   -0.1180   -0.0540 ca        1 0QX     -0.098800
      2 CAE         0.8380   -0.8190    0.5720 ca        1 0QX     -0.103000
      3 CAB         0.7490   -1.0720    1.9320 ca        1 0QX     -0.149000
      4 CAA        -0.3550   -0.6360    2.6870 ca        1 0QX     -0.113000
      5 CAD        -1.4000    0.0670    2.1080 ca        1 0QX     -0.138000
      6 CAQ        -1.3240    0.3310    0.7310 ca        1 0QX     -0.047200
      7 NAL        -2.2030    1.0060   -0.1210 na        1 0QX     -0.188400
      8 CAH        -1.6650    0.9960   -1.4070 cc        1 0QX     -0.076100
      9 CAN        -0.4430    0.3200   -1.4130 cd        1 0QX     -0.170400
     10 CAI         0.4320    0.1120   -2.5750 c3        1 0QX     -0.020500
     11 CAO         0.3100   -1.2670   -3.1490 cc        1 0QX      0.419800
     12 NAM         0.1180   -2.4000   -2.3190 na        1 0QX     -0.270300
     13 CAR         0.0620   -3.5040   -3.1630 ca        1 0QX     -0.052200
     14 CAF        -0.1130   -4.8800   -2.9630 ca        1 0QX     -0.247300
     15 CAC        -0.0890   -5.6740   -4.1140 ca        1 0QX      0.398200
     16 NAJ         0.0890   -5.2160   -5.3800 nb        1 0QX     -0.685000
     17 CAG         0.2580   -3.9060   -5.5810 ca        1 0QX      0.458200
     18 CAP         0.2530   -2.9830   -4.5110 ca        1 0QX     -0.053900
     19 NAK         0.4030   -1.5870   -4.4590 nd        1 0QX     -0.559100
     20 H1          1.7100   -1.1510   -0.0100 ha        1 0QX      0.137000
     21 H2          1.5570   -1.6210    2.4390 ha        1 0QX      0.134000
     22 H3         -0.3850   -0.8580    3.7650 ha        1 0QX      0.134000
     23 H4         -2.2570    0.4070    2.7040 ha        1 0QX      0.136000
     24 H5         -3.0510    1.4270    0.1490 hn        1 0QX      0.303700
     25 H6         -2.1920    1.4730   -2.2380 h4        1 0QX      0.174000
     26 H7          0.1940    0.8620   -3.3790 hc        1 0QX      0.080200
     27 H8          1.5070    0.2650   -2.2730 hc        1 0QX      0.080200
     28 H9         -0.0530   -2.3760   -1.3470 hn        1 0QX      0.318700
     29 H10        -0.2600   -5.3140   -1.9680 ha        1 0QX      0.144000
     30 H11        -0.2210   -6.7680   -4.0330 h4        1 0QX      0.020100
     31 H12         0.4010   -3.5700   -6.6230 h4        1 0QX      0.034100
@<TRIPOS>BOND
     1    1    2 ar  
     2    1    6 ar  
     3    1    9 1   
     4    2    3 ar  
     5    2   20 1   
     6    3    4 ar  
     7    3   21 1   
     8    4    5 ar  
     9    4   22 1   
    10    5    6 ar  
    11    5   23 1   
    12    6    7 1   
    13    7    8 1   
    14    7   24 1   
    15    8    9 2   
    16    8   25 1   
    17    9   10 1   
    18   10   11 1   
    19   10   26 1   
    20   10   27 1   
    21   11   12 1   
    22   11   19 2   
    23   12   13 1   
    24   12   28 1   
    25   13   14 ar  
    26   13   18 ar  
    27   14   15 ar  
    28   14   29 1   
    29   15   16 ar  
    30   15   30 1   
    31   16   17 ar  
    32   17   18 ar  
    33   17   31 1   
    34   18   19 1   
@<TRIPOS>SUBSTRUCTURE
     1 0QX         1 TEMP              0 ****  ****    0 ROOT
