@<TRIPOS>MOLECULE
0QX
   31    21     1     0     0
SMALL
bcc


@<TRIPOS>ATOM
      1 CAS         0.3420    1.7290    1.5890 c1        1 0QX     -0.044500
      2 CAE         1.6410    2.2670    1.6150 c1        1 0QX     -0.125333
      3 CAB         2.2630    2.5210    2.8290 c1        1 0QX     -0.125333
      4 CAA         1.6030    2.2430    4.0180 c1        1 0QX     -0.125333
      5 CAD         0.3210    1.7130    3.9940 c1        1 0QX     -0.125333
      6 CAQ        -0.3090    1.4550    2.7650 c1        1 0QX     -0.044500
      7 NAL        -1.5590    0.9510    2.4530 n1        1 0QX     -0.211000
      8 CAH        -1.6740    0.9150    1.0910 c1        1 0QX     -0.049000
      9 CAN        -0.4990    1.3960    0.5500 c1        1 0QX     -0.178000
     10 CAI        -0.5070    1.3670   -0.9620 c2        1 0QX     -0.028000
     11 CAO        -0.2950   -0.0530   -1.4410 c2        1 0QX      0.018000
     12 NAM         0.1160   -0.4020   -2.6800 n2        1 0QX     -0.227000
     13 CAR        -0.0580   -1.7420   -2.8190 c1        1 0QX     -0.007000
     14 CAF         0.1970   -2.6090   -3.8700 c1        1 0QX     -0.125333
     15 CAC        -0.0800   -3.9610   -3.7360 c1        1 0QX     -0.125333
     16 NAJ        -0.6050   -4.4390   -2.5700 n1        1 0QX     -0.159000
     17 CAG        -0.8570   -3.5880   -1.5340 c1        1 0QX     -0.007000
     18 CAP        -0.5770   -2.2160   -1.6670 c1        1 0QX     -0.128000
     19 NAK        -0.7240   -1.1700   -0.8120 n1        1 0QX     -0.132000
     20 H1          2.1040    2.4620    0.7790 ha        1 0QX      0.140333
     21 H2          3.1640    2.8940    2.8460 ha        1 0QX      0.140333
     22 H3          2.0410    2.4220    4.8720 ha        1 0QX      0.140333
     23 H4         -0.1420    1.5180    4.8310 ha        1 0QX      0.140333
     24 H5         -2.1950    0.6880    3.0510 DU        1 0QX      0.232333
     25 H6         -2.4560    0.6150    0.5890 DU        1 0QX      0.232333
     26 H7          0.2120    1.9370   -1.3030 ha        1 0QX      0.119500
     27 H8         -1.3670    1.6970   -1.2900 ha        1 0QX      0.119500
     28 H9          0.4610    0.1620   -3.3090 DU        1 0QX      0.232333
     29 H10         0.5720   -2.2680   -4.7040 ha        1 0QX      0.140333
     30 H11         0.0990   -4.5720   -4.4760 ha        1 0QX      0.140333
     31 H12        -1.2320   -3.9320   -0.7010 ha        1 0QX      0.171000
@<TRIPOS>BOND
     1    1    6 1   
     2    2    3 1   
     3    2   20 1   
     4    3   21 1   
     5    4    5 1   
     6    4   22 1   
     7    5   23 1   
     8    7    8 1   
     9    8    9 1   
    10   10   11 1   
    11   10   26 1   
    12   10   27 1   
    13   11   12 1   
    14   11   19 1   
    15   12   13 1   
    16   13   18 1   
    17   14   15 1   
    18   14   29 1   
    19   15   30 1   
    20   16   17 1   
    21   17   31 1   
@<TRIPOS>SUBSTRUCTURE
     1 0QX         1 TEMP              0 ****  ****    0 ROOT
