@<TRIPOS>MOLECULE
0QX
   31    34     1     0     0
SMALL
bcc


@<TRIPOS>ATOM
      1 CAS        -0.2060   -0.1200   -0.0510 ca        1 0QX     -0.098800
      2 CAE         0.8140   -0.8290    0.5870 ca        1 0QX     -0.103000
      3 CAB         0.7050   -1.0830    1.9460 ca        1 0QX     -0.149000
      4 CAA        -0.4060   -0.6400    2.6870 ca        1 0QX     -0.113000
      5 CAD        -1.4390    0.0700    2.0940 ca        1 0QX     -0.138000
      6 CAQ        -1.3430    0.3350    0.7190 ca        1 0QX     -0.047200
      7 NAL        -2.2050    1.0170   -0.1440 na        1 0QX     -0.188400
      8 CAH        -1.6500    1.0050   -1.4230 cc        1 0QX     -0.076100
      9 CAN        -0.4320    0.3210   -1.4130 cd        1 0QX     -0.170400
     10 CAI         0.4570    0.1100   -2.5630 c3        1 0QX     -0.020500
     11 CAO         0.3340   -1.2680   -3.1410 cc        1 0QX      0.419800
     12 NAM         0.1240   -2.4010   -2.3150 na        1 0QX     -0.270300
     13 CAR         0.0730   -3.5040   -3.1610 ca        1 0QX     -0.052200
     14 CAF        -0.1130   -4.8780   -2.9660 ca        1 0QX     -0.247300
     15 CAC        -0.0780   -5.6710   -4.1170 ca        1 0QX      0.398200
     16 NAJ         0.1200   -5.2130   -5.3810 nb        1 0QX     -0.685000
     17 CAG         0.2990   -3.9040   -5.5770 ca        1 0QX      0.458200
     18 CAP         0.2860   -2.9820   -4.5050 ca        1 0QX     -0.053900
     19 NAK         0.4430   -1.5870   -4.4500 nd        1 0QX     -0.559100
     20 H1          1.6920   -1.1650    0.0170 ha        1 0QX      0.137000
     21 H2          1.5030   -1.6370    2.4630 ha        1 0QX      0.134000
     22 H3         -0.4520   -0.8630    3.7640 ha        1 0QX      0.134000
     23 H4         -2.3010    0.4150    2.6790 ha        1 0QX      0.136000
     24 H5         -3.0550    1.4420    0.1150 hn        1 0QX      0.303700
     25 H6         -2.1620    1.4860   -2.2600 h4        1 0QX      0.174000
     26 H7          1.5290    0.2550   -2.2470 hc        1 0QX      0.080200
     27 H8          0.2340    0.8620   -3.3690 hc        1 0QX      0.080200
     28 H9         -0.0610   -2.3770   -1.3450 hn        1 0QX      0.318700
     29 H10        -0.2770   -5.3130   -1.9730 ha        1 0QX      0.144000
     30 H11        -0.2180   -6.7650   -4.0400 h4        1 0QX      0.020100
     31 H12         0.4600   -3.5670   -6.6160 h4        1 0QX      0.034100
@<TRIPOS>BOND
     1    1    2 ar  
     2    1    6 ar  
     3    1    9 1   
     4    2    3 ar  
     5    2   20 1   
     6    3    4 ar  
     7    3   21 1   
     8    4    5 ar  
     9    4   22 1   
    10    5    6 ar  
    11    5   23 1   
    12    6    7 1   
    13    7    8 1   
    14    7   24 1   
    15    8    9 2   
    16    8   25 1   
    17    9   10 1   
    18   10   11 1   
    19   10   26 1   
    20   10   27 1   
    21   11   12 1   
    22   11   19 2   
    23   12   13 1   
    24   12   28 1   
    25   13   14 ar  
    26   13   18 ar  
    27   14   15 ar  
    28   14   29 1   
    29   15   16 ar  
    30   15   30 1   
    31   16   17 ar  
    32   17   18 ar  
    33   17   31 1   
    34   18   19 1   
@<TRIPOS>SUBSTRUCTURE
     1 0QX         1 TEMP              0 ****  ****    0 ROOT
