@<TRIPOS>MOLECULE
0QY
   48    52     1     0     0
SMALL
bcc


@<TRIPOS>ATOM
      1 O01        -4.2780   -0.7370    1.2430 o         1 0QY     -0.592100
      2 C02        -4.5950   -0.3620    0.1000 c         1 0QY      0.646100
      3 C03        -6.0660   -0.3830   -0.3730 c3        1 0QY      0.094500
      4 N04        -6.9630   -1.1360    0.5030 n3        1 0QY     -0.792200
      5 C05        -8.0560   -0.2620    0.9190 c3        1 0QY      0.148800
      6 C06        -7.8570    1.1390    0.3210 c3        1 0QY     -0.095400
      7 C07        -6.5870    1.0660   -0.5160 c3        1 0QY     -0.094400
      8 N08        -3.6870    0.1090   -0.8320 n         1 0QY     -0.467100
      9 C09        -2.2880    0.2040   -0.6930 ca        1 0QY      0.039600
     10 C10        -1.5320    0.4650   -1.8770 ca        1 0QY     -0.163000
     11 C11        -0.1560    0.5990   -1.8570 ca        1 0QY     -0.108000
     12 C12        -1.6440    0.0710    0.5460 ca        1 0QY     -0.096000
     13 C13        -0.2500    0.1980    0.5870 ca        1 0QY      0.090400
     14 C14         0.4970    0.4660   -0.6290 ca        1 0QY     -0.099200
     15 N15         1.8370    0.5590   -0.2450 na        1 0QY     -0.273300
     16 C16         1.8720    0.3130    1.1470 cc        1 0QY      0.422800
     17 C17         3.1590    0.3360    1.9150 c3        1 0QY     -0.021500
     18 C18         4.2710   -0.2660    1.1670 cc        1 0QY     -0.167400
     19 C19         4.7870   -1.5520    1.3420 cd        1 0QY     -0.077100
     20 N20         5.8490   -1.7670    0.4650 na        1 0QY     -0.189400
     21 C21         6.0370   -0.6100   -0.2960 ca        1 0QY     -0.047200
     22 C22         6.9650   -0.3140   -1.3070 ca        1 0QY     -0.139000
     23 C23         6.9070    0.9440   -1.8860 ca        1 0QY     -0.114000
     24 C24         5.9570    1.9000   -1.4820 ca        1 0QY     -0.151000
     25 C25         5.0340    1.6220   -0.4850 ca        1 0QY     -0.102000
     26 C26         5.0530    0.3650    0.1230 ca        1 0QY     -0.097800
     27 N27         0.6440    0.1100    1.6730 nd        1 0QY     -0.573100
     28 H1         -6.1040   -0.9060   -1.3740 h1        1 0QY      0.076700
     29 H2         -6.4640   -1.4980    1.2970 hn        1 0QY      0.383800
     30 H4         -9.0080   -0.7190    0.5290 h1        1 0QY      0.047200
     31 H5         -8.1400   -0.2030    2.0380 h1        1 0QY      0.047200
     32 H6         -8.7360    1.4240   -0.3070 hc        1 0QY      0.051200
     33 H7         -7.7570    1.9010    1.1330 hc        1 0QY      0.051200
     34 H8         -5.8320    1.8070   -0.1560 hc        1 0QY      0.053700
     35 H9         -6.8000    1.2880   -1.5910 hc        1 0QY      0.053700
     36 H10        -4.0450    0.3520   -1.7280 hn        1 0QY      0.314500
     37 H11        -2.0510    0.5650   -2.8440 ha        1 0QY      0.127000
     38 H12         0.4030    0.8010   -2.7810 ha        1 0QY      0.136000
     39 H13        -2.2000   -0.1350    1.4750 ha        1 0QY      0.187000
     40 H14         2.6240    0.6120   -0.8380 hn        1 0QY      0.313700
     41 H15         3.3980    1.4100    2.1550 hc        1 0QY      0.079200
     42 H16         3.0090   -0.2060    2.8900 hc        1 0QY      0.079200
     43 H17         4.4650   -2.3330    2.0350 h4        1 0QY      0.174000
     44 H18         6.3830   -2.5910    0.3930 hn        1 0QY      0.302700
     45 H19         7.7110   -1.0540   -1.6250 ha        1 0QY      0.135000
     46 H20         7.6220    1.2060   -2.6810 ha        1 0QY      0.133000
     47 H21         5.9560    2.8860   -1.9680 ha        1 0QY      0.133000
     48 H22         4.3020    2.3780   -0.1650 ha        1 0QY      0.137000
@<TRIPOS>BOND
     1    1    2 2   
     2    2    3 1   
     3    2    8 1   
     4    3    4 1   
     5    3    7 1   
     6    3   28 1   
     7    4    5 1   
     8    4   29 1   
     9    5    6 1   
    10    5   30 1   
    11    5   31 1   
    12    6    7 1   
    13    6   32 1   
    14    6   33 1   
    15    7   34 1   
    16    7   35 1   
    17    8    9 1   
    18    8   36 1   
    19    9   10 ar  
    20    9   12 ar  
    21   10   11 ar  
    22   10   37 1   
    23   11   14 ar  
    24   11   38 1   
    25   12   13 ar  
    26   12   39 1   
    27   13   14 ar  
    28   13   27 1   
    29   14   15 1   
    30   15   16 1   
    31   15   40 1   
    32   16   17 1   
    33   16   27 2   
    34   17   18 1   
    35   17   41 1   
    36   17   42 1   
    37   18   19 2   
    38   18   26 1   
    39   19   20 1   
    40   19   43 1   
    41   20   21 1   
    42   20   44 1   
    43   21   22 ar  
    44   21   26 ar  
    45   22   23 ar  
    46   22   45 1   
    47   23   24 ar  
    48   23   46 1   
    49   24   25 ar  
    50   24   47 1   
    51   25   26 ar  
    52   25   48 1   
@<TRIPOS>SUBSTRUCTURE
     1 0QY         1 TEMP              0 ****  ****    0 ROOT
