@<TRIPOS>MOLECULE
0QY
   48    52     1     0     0
SMALL
bcc


@<TRIPOS>ATOM
      1 O01        -0.5260   -0.0800    1.8100 o         1 0QY     -0.598100
      2 C02         0.6640   -0.0310    1.4510 c         1 0QY      0.666100
      3 C03         1.6750    0.6980    2.3650 c3        1 0QY      0.091500
      4 N04         2.9720    0.0250    2.4420 n3        1 0QY     -0.818200
      5 C05         4.0050    0.9340    1.9570 c3        1 0QY      0.149800
      6 C06         3.3870    2.3150    1.6850 c3        1 0QY     -0.103400
      7 C07         1.8830    2.1420    1.8550 c3        1 0QY     -0.091400
      8 N08         1.1300   -0.5300    0.2490 n         1 0QY     -0.449100
      9 C09         0.3900   -1.2830   -0.6850 ca        1 0QY      0.036600
     10 C10         1.1250   -2.0740   -1.6210 ca        1 0QY     -0.160000
     11 C11         0.5010   -2.8170   -2.6060 ca        1 0QY     -0.111000
     12 C12        -1.0110   -1.2400   -0.7380 ca        1 0QY     -0.095000
     13 C13        -1.6630   -1.9850   -1.7280 ca        1 0QY      0.089400
     14 C14        -0.8950   -2.7800   -2.6690 ca        1 0QY     -0.099200
     15 N15        -1.8290   -3.4080   -3.4960 na        1 0QY     -0.274300
     16 C16        -3.1020   -2.9600   -3.0730 cc        1 0QY      0.420800
     17 C17        -4.3610   -3.4350   -3.7320 c3        1 0QY     -0.021500
     18 C18        -4.2170   -3.5770   -5.1880 cc        1 0QY     -0.164400
     19 C19        -4.6670   -2.6760   -6.1560 cd        1 0QY     -0.079100
     20 N20        -4.3680   -3.1510   -7.4320 na        1 0QY     -0.189400
     21 C21        -3.7130   -4.3800   -7.3040 ca        1 0QY     -0.047200
     22 C22        -3.2090   -5.2590   -8.2760 ca        1 0QY     -0.140000
     23 C23        -2.6030   -6.4250   -7.8370 ca        1 0QY     -0.113000
     24 C24        -2.4920   -6.7290   -6.4670 ca        1 0QY     -0.151000
     25 C25        -2.9850   -5.8710   -5.4960 ca        1 0QY     -0.101000
     26 C26        -3.6000   -4.6820   -5.8940 ca        1 0QY     -0.097800
     27 N27        -3.0360   -2.1220   -2.0140 nd        1 0QY     -0.573100
     28 H1          1.1750    0.7230    3.3790 h1        1 0QY      0.077700
     29 H2          3.1570   -0.2730    3.3800 hn        1 0QY      0.369800
     30 H4          4.4090    0.4980    1.0010 h1        1 0QY      0.046200
     31 H5          4.8580    1.0160    2.6820 h1        1 0QY      0.046200
     32 H6          3.7850    3.0710    2.4060 hc        1 0QY      0.052200
     33 H7          3.6400    2.6620    0.6540 hc        1 0QY      0.052200
     34 H8          1.3480    2.3060    0.8880 hc        1 0QY      0.062200
     35 H9          1.4720    2.8690    2.5970 hc        1 0QY      0.062200
     36 H10         2.1190   -0.5550    0.1220 hn        1 0QY      0.325500
     37 H11         2.2250   -2.1010   -1.5640 ha        1 0QY      0.128000
     38 H12         1.0880   -3.4190   -3.3130 ha        1 0QY      0.134000
     39 H13        -1.6020   -0.6490   -0.0190 ha        1 0QY      0.184000
     40 H14        -1.6470   -3.9320   -4.3120 hn        1 0QY      0.312700
     41 H15        -4.6330   -4.4300   -3.2790 hc        1 0QY      0.078700
     42 H16        -5.1900   -2.7140   -3.4940 hc        1 0QY      0.078700
     43 H17        -5.1830   -1.7220   -6.0210 h4        1 0QY      0.173000
     44 H18        -4.5850   -2.7050   -8.2820 hn        1 0QY      0.302700
     45 H19        -3.2950   -5.0300   -9.3460 ha        1 0QY      0.134000
     46 H20        -2.1980   -7.1340   -8.5740 ha        1 0QY      0.132000
     47 H21        -2.0070   -7.6700   -6.1690 ha        1 0QY      0.133000
     48 H22        -2.9060   -6.1200   -4.4280 ha        1 0QY      0.138000
@<TRIPOS>BOND
     1    1    2 2   
     2    2    3 1   
     3    2    8 1   
     4    3    4 1   
     5    3    7 1   
     6    3   28 1   
     7    4    5 1   
     8    4   29 1   
     9    5    6 1   
    10    5   30 1   
    11    5   31 1   
    12    6    7 1   
    13    6   32 1   
    14    6   33 1   
    15    7   34 1   
    16    7   35 1   
    17    8    9 1   
    18    8   36 1   
    19    9   10 ar  
    20    9   12 ar  
    21   10   11 ar  
    22   10   37 1   
    23   11   14 ar  
    24   11   38 1   
    25   12   13 ar  
    26   12   39 1   
    27   13   14 ar  
    28   13   27 1   
    29   14   15 1   
    30   15   16 1   
    31   15   40 1   
    32   16   17 1   
    33   16   27 2   
    34   17   18 1   
    35   17   41 1   
    36   17   42 1   
    37   18   19 2   
    38   18   26 1   
    39   19   20 1   
    40   19   43 1   
    41   20   21 1   
    42   20   44 1   
    43   21   22 ar  
    44   21   26 ar  
    45   22   23 ar  
    46   22   45 1   
    47   23   24 ar  
    48   23   46 1   
    49   24   25 ar  
    50   24   47 1   
    51   25   26 ar  
    52   25   48 1   
@<TRIPOS>SUBSTRUCTURE
     1 0QY         1 TEMP              0 ****  ****    0 ROOT
