@<TRIPOS>MOLECULE
0QY
   48    52     1     0     0
SMALL
bcc


@<TRIPOS>ATOM
      1 O01        -0.6290    0.2800    1.6240 o         1 0QY     -0.598100
      2 C02         0.5850    0.1470    1.3810 c         1 0QY      0.666100
      3 C03         1.6000    0.8330    2.3220 c3        1 0QY      0.091500
      4 N04         2.7860    0.0170    2.5860 n7        1 0QY     -0.818200
      5 C05         3.9670    0.7390    2.1250 c3        1 0QY      0.149800
      6 C06         3.5630    2.1520    1.6730 c3        1 0QY     -0.103400
      7 C07         2.0400    2.1830    1.7090 c3        1 0QY     -0.091400
      8 N08         1.0830   -0.5230    0.2800 ns        1 0QY     -0.449100
      9 C09         0.3330   -1.2700   -0.6530 ca        1 0QY      0.036600
     10 C10         1.0360   -2.2340   -1.4390 ca        1 0QY     -0.160000
     11 C11         0.4070   -2.9900   -2.4120 ca        1 0QY     -0.111000
     12 C12        -1.0410   -1.0610   -0.8460 ca        1 0QY     -0.095000
     13 C13        -1.6960   -1.8150   -1.8260 ca        1 0QY      0.089400
     14 C14        -0.9620   -2.7890   -2.6140 ca        1 0QY     -0.099200
     15 N15        -1.8960   -3.3760   -3.4700 na        1 0QY     -0.274300
     16 C16        -3.1300   -2.7360   -3.2140 cc        1 0QY      0.420800
     17 C17        -4.3790   -3.1170   -3.9500 c3        1 0QY     -0.021500
     18 C18        -4.1310   -3.4160   -5.3670 cc        1 0QY     -0.164400
     19 C19        -4.3750   -2.5650   -6.4480 cd        1 0QY     -0.079100
     20 N20        -4.0320   -3.1950   -7.6440 na        1 0QY     -0.189400
     21 C21        -3.5560   -4.4760   -7.3480 ca        1 0QY     -0.047200
     22 C22        -3.0890   -5.5000   -8.1870 ca        1 0QY     -0.140000
     23 C23        -2.6800   -6.6830   -7.5930 ca        1 0QY     -0.113000
     24 C24        -2.7290   -6.8640   -6.1990 ca        1 0QY     -0.151000
     25 C25        -3.1870   -5.8620   -5.3570 ca        1 0QY     -0.101000
     26 C26        -3.6050   -4.6510   -5.9130 ca        1 0QY     -0.097800
     27 N27        -3.0460   -1.8120   -2.2320 nd        1 0QY     -0.573100
     28 H1          1.0220    1.0210    3.2750 h1        1 0QY      0.077700
     29 H2          2.8490   -0.2050    3.5600 hn        1 0QY      0.369800
     30 H4          4.7580    0.7870    2.9200 h1        1 0QY      0.046200
     31 H5          4.3910    0.1640    1.2560 h1        1 0QY      0.046200
     32 H6          3.9930    2.9210    2.3600 hc        1 0QY      0.052200
     33 H7          3.9480    2.3600    0.6460 hc        1 0QY      0.052200
     34 H8          1.6160    2.3130    0.6830 hc        1 0QY      0.062200
     35 H9          1.6660    3.0260    2.3390 hc        1 0QY      0.062200
     36 H10         2.0670   -0.6820    0.2530 hn        1 0QY      0.325500
     37 H11         2.1130   -2.3900   -1.2730 ha        1 0QY      0.128000
     38 H12         0.9680   -3.7260   -3.0020 ha        1 0QY      0.134000
     39 H13        -1.6090   -0.3340   -0.2430 ha        1 0QY      0.184000
     40 H14        -1.7140   -3.9970   -4.2150 hn        1 0QY      0.312700
     41 H15        -5.1250   -2.2800   -3.8560 hc        1 0QY      0.078700
     42 H16        -4.8160   -4.0230   -3.4420 hc        1 0QY      0.078700
     43 H17        -4.7710   -1.5460   -6.4450 h4        1 0QY      0.173000
     44 H18        -4.1150   -2.8100   -8.5460 hn        1 0QY      0.302700
     45 H19        -3.0520   -5.3670   -9.2770 ha        1 0QY      0.134000
     46 H20        -2.3100   -7.5050   -8.2250 ha        1 0QY      0.132000
     47 H21        -2.3980   -7.8240   -5.7750 ha        1 0QY      0.133000
     48 H22        -3.2330   -6.0130   -4.2680 ha        1 0QY      0.138000
@<TRIPOS>BOND
     1    1    2 2   
     2    2    3 1   
     3    2    8 1   
     4    3    4 1   
     5    3    7 1   
     6    3   28 1   
     7    4    5 1   
     8    4   29 1   
     9    5    6 1   
    10    5   30 1   
    11    5   31 1   
    12    6    7 1   
    13    6   32 1   
    14    6   33 1   
    15    7   34 1   
    16    7   35 1   
    17    8    9 1   
    18    8   36 1   
    19    9   10 ar  
    20    9   12 ar  
    21   10   11 ar  
    22   10   37 1   
    23   11   14 ar  
    24   11   38 1   
    25   12   13 ar  
    26   12   39 1   
    27   13   14 ar  
    28   13   27 1   
    29   14   15 1   
    30   15   16 1   
    31   15   40 1   
    32   16   17 1   
    33   16   27 2   
    34   17   18 1   
    35   17   41 1   
    36   17   42 1   
    37   18   19 2   
    38   18   26 1   
    39   19   20 1   
    40   19   43 1   
    41   20   21 1   
    42   20   44 1   
    43   21   22 ar  
    44   21   26 ar  
    45   22   23 ar  
    46   22   45 1   
    47   23   24 ar  
    48   23   46 1   
    49   24   25 ar  
    50   24   47 1   
    51   25   26 ar  
    52   25   48 1   
@<TRIPOS>SUBSTRUCTURE
     1 0QY         1 TEMP              0 ****  ****    0 ROOT
