@<TRIPOS>MOLECULE
0QY
   48    39     1     0     0
SMALL
bcc


@<TRIPOS>ATOM
      1 O01         3.1280   -0.1000    2.4090 o         1 0QY     -0.367000
      2 C02         2.6780    0.4950    3.3680 c1        1 0QY      0.313000
      3 C03         3.3790    0.4280    4.6820 c3        1 0QY     -0.056000
      4 N04         3.0720   -0.6530    5.2780 n3        1 0QY     -0.296000
      5 C05         4.3780   -1.1580    6.0380 c3        1 0QY     -0.088000
      6 C06         5.3580   -0.9320    5.2770 c3        1 0QY     -0.182000
      7 C07         4.9560    0.2260    4.4450 c3        1 0QY     -0.171000
      8 N08         1.5140    1.2980    3.2240 n2        1 0QY     -0.303000
      9 C09         0.8760    1.4050    1.9570 c1        1 0QY      0.050000
     10 C10         1.7150    1.6690    0.8860 c1        1 0QY     -0.132000
     11 C11         1.2060    1.6920   -0.4030 c1        1 0QY     -0.123000
     12 C12        -0.4710    1.1630    1.7400 c1        1 0QY     -0.123000
     13 C13        -0.9890    1.1860    0.4300 c1        1 0QY     -0.050000
     14 C14        -0.1630    1.4470   -0.6250 c1        1 0QY     -0.050000
     15 N15        -0.8970    1.3590   -1.7620 n1        1 0QY     -0.193500
     16 C16        -2.1740    1.0460   -1.4150 c1        1 0QY      0.022000
     17 C17        -3.4740    0.7750   -2.1450 c2        1 0QY     -0.029000
     18 C18        -3.1750    0.1770   -3.5030 c2        1 0QY     -0.174000
     19 C19        -2.2240    0.7790   -4.3020 c1        1 0QY     -0.051000
     20 N20        -2.1820    0.1060   -5.4920 n2        1 0QY     -0.212000
     21 C21        -3.1100   -0.9190   -5.4370 c1        1 0QY     -0.002000
     22 C22        -3.4960   -1.8880   -6.3780 c1        1 0QY     -0.126000
     23 C23        -4.4960   -2.7990   -6.0660 c1        1 0QY     -0.126000
     24 C24        -5.1140   -2.7520   -4.8240 c1        1 0QY     -0.126000
     25 C25        -4.7330   -1.7960   -3.8940 c1        1 0QY     -0.126000
     26 C26        -3.7200   -0.8730   -4.2100 c1        1 0QY     -0.086000
     27 N27        -2.2290    0.9390   -0.0610 n1        1 0QY     -0.193500
     28 H1          3.0890    1.2680    5.0940 h1        1 0QY      0.117000
     29 H2          2.4100   -0.4890    5.8860 hn        1 0QY      0.165000
     30 H4          4.4880   -0.6650    6.8790 h1        1 0QY      0.086500
     31 H5          4.3100   -2.1190    6.2200 h1        1 0QY      0.086500
     32 H6          6.1540   -0.7100    5.8050 hc        1 0QY      0.092000
     33 H7          5.5330   -1.7120    4.7090 hc        1 0QY      0.092000
     34 H8          5.4440    1.0260    4.7260 hc        1 0QY      0.101000
     35 H9          5.1330    0.0390    3.5020 hc        1 0QY      0.101000
     36 H10         1.1630    1.7270    3.9480 hn        1 0QY      0.241000
     37 H11         2.6600    1.8550    1.0410 ha        1 0QY      0.170000
     38 H12         1.7970    1.8790   -1.1580 ha        1 0QY      0.141500
     39 H13        -1.0680    1.0120    2.4970 ha        1 0QY      0.141500
     40 H14        -0.5880    1.4830   -2.6100 DU        1 0QY      0.230000
     41 H15        -4.0160    0.1480   -1.6250 ha        1 0QY      0.117000
     42 H16        -3.9650    1.6130   -2.2590 ha        1 0QY      0.117000
     43 H17        -1.7040    1.5720   -4.0750 DU        1 0QY      0.230000
     44 H18        -1.6390    0.3000   -6.1980 DU        1 0QY      0.230000
     45 H19        -3.0620   -1.9210   -7.2520 ha        1 0QY      0.134750
     46 H20        -4.7640   -3.4720   -6.7210 ha        1 0QY      0.134750
     47 H21        -5.8170   -3.3930   -4.6050 ha        1 0QY      0.134750
     48 H22        -5.1680   -1.7640   -3.0210 ha        1 0QY      0.134750
@<TRIPOS>BOND
     1    1    2 1   
     2    2    3 1   
     3    3    4 1   
     4    3    7 1   
     5    3   28 1   
     6    4    5 1   
     7    4   29 1   
     8    5    6 1   
     9    5   30 1   
    10    5   31 1   
    11    6    7 1   
    12    6   32 1   
    13    6   33 1   
    14    7   34 1   
    15    7   35 1   
    16    8    9 1   
    17    8   36 1   
    18    9   10 1   
    19   10   37 1   
    20   11   14 1   
    21   11   38 1   
    22   12   13 1   
    23   12   39 1   
    24   15   16 1   
    25   16   27 1   
    26   17   18 1   
    27   17   41 1   
    28   17   42 1   
    29   18   19 1   
    30   18   26 1   
    31   19   20 1   
    32   20   21 1   
    33   21   26 1   
    34   22   23 1   
    35   22   45 1   
    36   23   46 1   
    37   24   25 1   
    38   24   47 1   
    39   25   48 1   
@<TRIPOS>SUBSTRUCTURE
     1 0QY         1 TEMP              0 ****  ****    0 ROOT
