@<TRIPOS>MOLECULE
0QY
   49    53     1     0     0
SMALL
bcc


@<TRIPOS>ATOM
      1 O01         3.4340    1.0030   -1.1270 o         1 0QY     -0.431100
      2 C02         2.4900    0.6360   -0.4440 c         1 0QY      0.552100
      3 C03         1.3600    1.5090    0.1020 c3        1 0QY      0.115500
      4 N04         0.7250    0.9220    1.2760 n3        1 0QY     -0.847200
      5 C05         1.0130    1.7620    2.4390 c3        1 0QY      0.145800
      6 C06         1.7220    3.0450    1.9780 c3        1 0QY     -0.105400
      7 C07         1.9280    2.9020    0.4750 c3        1 0QY     -0.094400
      8 N08         2.4430   -0.8510   -0.1560 n4        1 0QY     -0.529200
      9 C09         1.5020   -1.5400   -1.0440 ca        1 0QY     -0.091400
     10 C10         1.8970   -1.7900   -2.3840 ca        1 0QY     -0.111000
     11 C11         1.0600   -2.4590   -3.2580 ca        1 0QY     -0.098000
     12 C12         0.2600   -1.9460   -0.5370 ca        1 0QY     -0.042000
     13 C13        -0.6010   -2.6170   -1.4050 ca        1 0QY      0.074400
     14 C14        -0.1900   -2.8800   -2.7830 ca        1 0QY     -0.040200
     15 N15        -1.2450   -3.5670   -3.3650 na        1 0QY     -0.254300
     16 C16        -2.2500   -3.6960   -2.3730 cc        1 0QY      0.469800
     17 C17        -3.5380   -4.4180   -2.6450 c3        1 0QY     -0.022500
     18 C18        -3.9380   -4.3530   -4.0540 cc        1 0QY     -0.201400
     19 C19        -4.9820   -3.5860   -4.5820 cd        1 0QY     -0.062100
     20 N20        -5.0810   -3.7920   -5.9540 na        1 0QY     -0.178400
     21 C21        -4.1090   -4.7240   -6.3350 ca        1 0QY     -0.047200
     22 C22        -3.8060   -5.2730   -7.5910 ca        1 0QY     -0.127000
     23 C23        -2.7710   -6.1920   -7.6580 ca        1 0QY     -0.109000
     24 C24        -2.0450   -6.5710   -6.5130 ca        1 0QY     -0.138000
     25 C25        -2.3320   -6.0360   -5.2670 ca        1 0QY     -0.120000
     26 C26        -3.3620   -5.0990   -5.1550 ca        1 0QY     -0.103800
     27 N27        -1.8900   -3.1380   -1.1940 nd        1 0QY     -0.567100
     28 H1          0.6400    1.5990   -0.7680 h1        1 0QY      0.109700
     29 H2         -0.2610    0.8110    1.1320 hn        1 0QY      0.395800
     30 H4          0.0720    2.0060    3.0030 h1        1 0QY      0.068700
     31 H5          1.6800    1.1700    3.1240 h1        1 0QY      0.068700
     32 H6          1.0990    3.9440    2.2110 hc        1 0QY      0.075200
     33 H7          2.6980    3.1650    2.5090 hc        1 0QY      0.075200
     34 H8          3.0060    2.9990    0.1960 hc        1 0QY      0.083700
     35 H9          1.3620    3.6880   -0.0860 hc        1 0QY      0.083700
     36 H10         2.1590   -1.0000    0.8210 hn        1 0QY      0.467300
     37 H11         2.8820   -1.4490   -2.7440 ha        1 0QY      0.157000
     38 H12         1.3730   -2.6550   -4.2950 ha        1 0QY      0.169000
     39 H13        -0.0460   -1.7570    0.5050 ha        1 0QY      0.170000
     40 H14        -1.3190   -3.8850   -4.3020 hn        1 0QY      0.341700
     41 H15        -3.3920   -5.4930   -2.3360 hc        1 0QY      0.092700
     42 H16        -4.3400   -3.9810   -1.9870 hc        1 0QY      0.092700
     43 H17        -5.6640   -2.9040   -4.0670 h4        1 0QY      0.176000
     44 H18        -5.7780   -3.4220   -6.5470 hn        1 0QY      0.311700
     45 H19        -4.3750   -4.9890   -8.4870 ha        1 0QY      0.145000
     46 H20        -2.5120   -6.6450   -8.6280 ha        1 0QY      0.144000
     47 H21        -1.2420   -7.3170   -6.6160 ha        1 0QY      0.140000
     48 H22        -1.7780   -6.3590   -4.3740 ha        1 0QY      0.132000
     49 H082        3.3790   -1.2520   -0.3010 hn        1 0QY      0.467300
@<TRIPOS>BOND
     1    1    2 2   
     2    2    3 1   
     3    2    8 1   
     4    3    4 1   
     5    3    7 1   
     6    3   28 1   
     7    4    5 1   
     8    4   29 1   
     9    5    6 1   
    10    5   30 1   
    11    5   31 1   
    12    6    7 1   
    13    6   32 1   
    14    6   33 1   
    15    7   34 1   
    16    7   35 1   
    17    8    9 1   
    18    8   36 1   
    19    8   49 1   
    20    9   10 ar  
    21    9   12 ar  
    22   10   11 ar  
    23   10   37 1   
    24   11   14 ar  
    25   11   38 1   
    26   12   13 ar  
    27   12   39 1   
    28   13   14 ar  
    29   13   27 1   
    30   14   15 1   
    31   15   16 1   
    32   15   40 1   
    33   16   17 1   
    34   16   27 2   
    35   17   18 1   
    36   17   41 1   
    37   17   42 1   
    38   18   19 2   
    39   18   26 1   
    40   19   20 1   
    41   19   43 1   
    42   20   21 1   
    43   20   44 1   
    44   21   22 ar  
    45   21   26 ar  
    46   22   23 ar  
    47   22   45 1   
    48   23   24 ar  
    49   23   46 1   
    50   24   25 ar  
    51   24   47 1   
    52   25   26 ar  
    53   25   48 1   
@<TRIPOS>SUBSTRUCTURE
     1 0QY         1 TEMP              0 ****  ****    0 ROOT
