@<TRIPOS>MOLECULE
0R0
   14    14     1     0     0
SMALL
bcc


@<TRIPOS>ATOM
      1 NAA        -1.2330   -0.0160   -2.3180 n1        1 0R0     -0.362800
      2 CAC        -0.6720   -0.0240   -1.2990 cg        1 0R0      0.248800
      3 CAI         0.0120   -0.0330   -0.0560 ca        1 0R0     -0.048000
      4 CAG         1.4110    0.0560   -0.0200 ca        1 0R0     -0.058000
      5 CAE         2.0880    0.0470    1.1960 ca        1 0R0     -0.171000
      6 CAD         1.3780   -0.0500    2.3940 ca        1 0R0     -0.068000
      7 CAF        -0.0100   -0.1390    2.3850 ca        1 0R0     -0.221000
      8 CAH        -0.6970   -0.1310    1.1610 ca        1 0R0      0.165100
      9 OAB        -2.0640   -0.2150    1.0860 oh        1 0R0     -0.482100
     10 H1          1.9710    0.1320   -0.9650 ha        1 0R0      0.148000
     11 H2          3.1850    0.1170    1.2110 ha        1 0R0      0.143000
     12 H3          1.9180   -0.0560    3.3540 ha        1 0R0      0.140000
     13 H4         -0.5710   -0.2150    3.3280 ha        1 0R0      0.141000
     14 H5         -2.4130   -0.2760    1.9890 ho        1 0R0      0.426000
@<TRIPOS>BOND
     1    1    2 3   
     2    2    3 1   
     3    3    4 ar  
     4    3    8 ar  
     5    4    5 ar  
     6    4   10 1   
     7    5    6 ar  
     8    5   11 1   
     9    6    7 ar  
    10    6   12 1   
    11    7    8 ar  
    12    7   13 1   
    13    8    9 1   
    14    9   14 1   
@<TRIPOS>SUBSTRUCTURE
     1 0R0         1 TEMP              0 ****  ****    0 ROOT
