@<TRIPOS>MOLECULE
0R0
   14    14     1     0     0
SMALL
bcc


@<TRIPOS>ATOM
      1 NAA        -1.2460    0.0200   -2.3120 n1        1 0R0     -0.362800
      2 CAC        -0.6810    0.0010   -1.2950 cg        1 0R0      0.248800
      3 CAI         0.0080   -0.0230   -0.0550 ca        1 0R0     -0.048000
      4 CAG         1.4070    0.0530   -0.0240 ca        1 0R0     -0.058000
      5 CAE         2.0900    0.0310    1.1890 ca        1 0R0     -0.171000
      6 CAD         1.3840   -0.0690    2.3900 ca        1 0R0     -0.068000
      7 CAF        -0.0050   -0.1460    2.3860 ca        1 0R0     -0.221000
      8 CAH        -0.6970   -0.1240    1.1640 ca        1 0R0      0.165100
      9 OAB        -2.0650   -0.1970    1.0950 oh        1 0R0     -0.482100
     10 H1          1.9640    0.1320   -0.9710 ha        1 0R0      0.148000
     11 H2          3.1880    0.0910    1.2010 ha        1 0R0      0.143000
     12 H3          1.9280   -0.0860    3.3470 ha        1 0R0      0.140000
     13 H4         -0.5630   -0.2250    3.3300 ha        1 0R0      0.141000
     14 H5         -2.4100   -0.2610    1.9980 ho        1 0R0      0.426000
@<TRIPOS>BOND
     1    1    2 3   
     2    2    3 1   
     3    3    4 ar  
     4    3    8 ar  
     5    4    5 ar  
     6    4   10 1   
     7    5    6 ar  
     8    5   11 1   
     9    6    7 ar  
    10    6   12 1   
    11    7    8 ar  
    12    7   13 1   
    13    8    9 1   
    14    9   14 1   
@<TRIPOS>SUBSTRUCTURE
     1 0R0         1 TEMP              0 ****  ****    0 ROOT
