@<TRIPOS>MOLECULE
0R0
   14    14     1     0     0
SMALL
bcc


@<TRIPOS>ATOM
      1 NAA        -1.2630    0.4410   -2.1980 n1        1 0R0     -0.362800
      2 CAC        -0.7230    0.3220   -1.1740 cg        1 0R0      0.227800
      3 CAI        -0.0480    0.1780    0.0660 ca        1 0R0     -0.108000
      4 CAG         1.3570    0.1540    0.0940 ca        1 0R0     -0.054000
      5 CAE         2.0310    0.0130    1.3000 ca        1 0R0     -0.171000
      6 CAD         1.3160   -0.1050    2.4970 ca        1 0R0     -0.072000
      7 CAF        -0.0720   -0.0840    2.4960 ca        1 0R0     -0.165000
      8 CAH        -0.7600    0.0590    1.2760 ca        1 0R0      0.171100
      9 OAB        -2.1280    0.0700    1.3620 oh        1 0R0     -0.487100
     10 H1          1.9170    0.2470   -0.8490 ha        1 0R0      0.146000
     11 H2          3.1310   -0.0050    1.3150 ha        1 0R0      0.143000
     12 H3          1.8580   -0.2160    3.4490 ha        1 0R0      0.141000
     13 H4         -0.6490   -0.1750    3.4270 ha        1 0R0      0.158000
     14 H5         -2.4980    0.1720    0.4710 ho        1 0R0      0.432000
@<TRIPOS>BOND
     1    1    2 3   
     2    2    3 1   
     3    3    4 ar  
     4    3    8 ar  
     5    4    5 ar  
     6    4   10 1   
     7    5    6 ar  
     8    5   11 1   
     9    6    7 ar  
    10    6   12 1   
    11    7    8 ar  
    12    7   13 1   
    13    8    9 1   
    14    9   14 1   
@<TRIPOS>SUBSTRUCTURE
     1 0R0         1 TEMP              0 ****  ****    0 ROOT
