@<TRIPOS>MOLECULE
0R0
   14    14     1     0     0
SMALL
bcc


@<TRIPOS>ATOM
      1 NAA        -2.9870   -0.5840    0.1880 n1        1 0R0     -0.362800
      2 CAC        -1.8310   -0.4560    0.1430 cg        1 0R0      0.227800
      3 CAI        -0.4200   -0.3190    0.0880 ca        1 0R0     -0.108000
      4 CAG         0.3890   -1.4660    0.0180 ca        1 0R0     -0.054000
      5 CAE         1.7710   -1.3480   -0.0370 ca        1 0R0     -0.171000
      6 CAD         2.3700   -0.0830   -0.0220 ca        1 0R0     -0.072000
      7 CAF         1.5950    1.0650    0.0460 ca        1 0R0     -0.165000
      8 CAH         0.1920    0.9500    0.1020 ca        1 0R0      0.171100
      9 OAB        -0.5000    2.1320    0.1680 oh        1 0R0     -0.487100
     10 H1         -0.0850   -2.4600    0.0060 ha        1 0R0      0.146000
     11 H2          2.3980   -2.2500   -0.0920 ha        1 0R0      0.143000
     12 H3          3.4670    0.0020   -0.0660 ha        1 0R0      0.141000
     13 H4          2.0480    2.0670    0.0590 ha        1 0R0      0.158000
     14 H5         -1.4500    1.9370    0.2020 ho        1 0R0      0.432000
@<TRIPOS>BOND
     1    1    2 3   
     2    2    3 1   
     3    3    4 ar  
     4    3    8 ar  
     5    4    5 ar  
     6    4   10 1   
     7    5    6 ar  
     8    5   11 1   
     9    6    7 ar  
    10    6   12 1   
    11    7    8 ar  
    12    7   13 1   
    13    8    9 1   
    14    9   14 1   
@<TRIPOS>SUBSTRUCTURE
     1 0R0         1 TEMP              0 ****  ****    0 ROOT
