@<TRIPOS>MOLECULE
0R0
   14    10     1     0     0
SMALL
bcc


@<TRIPOS>ATOM
      1 NAA        -1.5470    0.0700   -3.2110 n1        1 0R0     -0.362800
      2 CAC        -0.9710    0.0390   -2.2270 c1        1 0R0      0.244800
      3 CAI        -0.2150    0.0230   -0.9170 c1        1 0R0     -0.044000
      4 CAG         1.1710    0.0230   -0.9170 c1        1 0R0     -0.072000
      5 CAE         1.8640    0.0230    0.2830 c1        1 0R0     -0.072000
      6 CAD         1.1710    0.0230    1.4830 c1        1 0R0     -0.072000
      7 CAF        -0.2150    0.0230    1.4830 c1        1 0R0     -0.072000
      8 CAH        -0.9080    0.0230    0.2830 c1        1 0R0      0.148600
      9 OAB        -2.3150    0.0380    0.2830 oh        1 0R0     -0.465600
     10 H1          1.4210    0.1290   -1.8550 ha        1 0R0      0.085500
     11 H2          2.7780   -0.0500   -0.0530 ha        1 0R0      0.085500
     12 H3          1.4200   -0.1960    2.4020 ha        1 0R0      0.085500
     13 H4         -0.8050    0.3190    2.2020 ha        1 0R0      0.085500
     14 H5         -2.8470   -0.4890    0.7600 ho        1 0R0      0.426000
@<TRIPOS>BOND
     1    1    2 3   
     2    3    8 3   
     3    4    5 3   
     4    4   10 1   
     5    5   11 1   
     6    6    7 3   
     7    6   12 1   
     8    7   13 1   
     9    8    9 1   
    10    9   14 1   
@<TRIPOS>SUBSTRUCTURE
     1 0R0         1 TEMP              0 ****  ****    0 ROOT
