@<TRIPOS>MOLECULE
0R1
   14     9     1     0     0
SMALL
bcc


@<TRIPOS>ATOM
      1 CAI        -0.1930   -0.0000   -1.0720 c1        1 0R1     -0.071000
      2 CAD         1.2130   -0.0000   -1.0720 c1        1 0R1     -0.049000
      3 CAB         1.9060   -0.0000    0.1280 c1        1 0R1     -0.049000
      4 CAA         1.2130   -0.0000    1.3300 c1        1 0R1     -0.049000
      5 CAC        -0.1730   -0.0000    1.3300 c1        1 0R1     -0.049000
      6 CAH        -0.8770   -0.0000    0.1130 c1        1 0R1     -0.071000
      7 CAE        -2.2440    0.0000   -0.1780 c1        1 0R1      0.189800
      8 NAF        -2.3850    0.0000   -1.5240 n1        1 0R1     -0.326800
      9 OAG        -1.1130    0.0000   -2.0920 o         1 0R1     -0.067000
     10 H1          1.7010    0.0000   -1.9170 ha        1 0R1      0.087750
     11 H2          2.8830    0.0000    0.1280 ha        1 0R1      0.087750
     12 H3          1.7020    0.0000    2.1750 ha        1 0R1      0.087750
     13 H4         -0.6610    0.0000    2.1760 ha        1 0R1      0.087750
     14 H5         -2.9700    0.0000    0.4750 DU        1 0R1      0.192000
@<TRIPOS>BOND
     1    1    6 1   
     2    2    3 3   
     3    2   10 1   
     4    3   11 1   
     5    4    5 3   
     6    4   12 1   
     7    5   13 1   
     8    7    8 3   
     9    8    9 1   
@<TRIPOS>SUBSTRUCTURE
     1 0R1         1 TEMP              0 ****  ****    0 ROOT
