@<TRIPOS>MOLECULE
0R1
   14    15     1     0     0
SMALL
bcc


@<TRIPOS>ATOM
      1 CAI         0.0030   -0.0010    0.0530 ca        1 0R1      0.045100
      2 CAD         1.3870   -0.0010   -0.0330 ca        1 0R1     -0.118000
      3 CAB         2.0740   -0.0000    1.1820 ca        1 0R1     -0.096000
      4 CAA         1.4000   -0.0010    2.4130 ca        1 0R1     -0.152000
      5 CAC         0.0070   -0.0010    2.4880 ca        1 0R1     -0.060000
      6 CAH        -0.7060   -0.0020    1.2960 ca        1 0R1     -0.225900
      7 CAE        -2.1100   -0.0020    0.8740 cc        1 0R1      0.364800
      8 NAF        -2.1690   -0.0020   -0.4580 nd        1 0R1     -0.387200
      9 OAG        -0.9490   -0.0020   -0.9890 os        1 0R1     -0.013600
     10 H1          1.9070   -0.0000   -1.0000 ha        1 0R1      0.158000
     11 H2          3.1750    0.0000    1.1740 ha        1 0R1      0.140000
     12 H3          1.9890   -0.0000    3.3420 ha        1 0R1      0.139000
     13 H4         -0.5080   -0.0020    3.4580 ha        1 0R1      0.144000
     14 H5         -2.9910   -0.0030    1.5170 h4        1 0R1      0.062800
@<TRIPOS>BOND
     1    1    2 ar  
     2    1    6 ar  
     3    1    9 1   
     4    2    3 ar  
     5    2   10 1   
     6    3    4 ar  
     7    3   11 1   
     8    4    5 ar  
     9    4   12 1   
    10    5    6 ar  
    11    5   13 1   
    12    6    7 1   
    13    7    8 2   
    14    7   14 1   
    15    8    9 1   
@<TRIPOS>SUBSTRUCTURE
     1 0R1         1 TEMP              0 ****  ****    0 ROOT
