@<TRIPOS>MOLECULE
0R1
   14    15     1     0     0
SMALL
bcc


@<TRIPOS>ATOM
      1 CAI        -0.1960    0.6490    0.0010 ca        1 0R1      0.045100
      2 CAD         0.9680    1.4060    0.0010 ca        1 0R1     -0.118000
      3 CAB         2.1630    0.6860   -0.0000 ca        1 0R1     -0.096000
      4 CAA         2.1820   -0.7170   -0.0010 ca        1 0R1     -0.152000
      5 CAC         1.0060   -1.4680   -0.0010 ca        1 0R1     -0.060000
      6 CAH        -0.2020   -0.7810   -0.0000 ca        1 0R1     -0.225900
      7 CAE        -1.6310   -1.1040   -0.0000 cc        1 0R1      0.364800
      8 NAF        -2.3380    0.0270    0.0010 nd        1 0R1     -0.387200
      9 OAG        -1.5370    1.0890    0.0010 os        1 0R1     -0.013600
     10 H1          0.9450    2.5030    0.0010 ha        1 0R1      0.158000
     11 H2          3.1180    1.2340   -0.0000 ha        1 0R1      0.140000
     12 H3          3.1510   -1.2370   -0.0010 ha        1 0R1      0.139000
     13 H4          1.0350   -2.5670   -0.0010 ha        1 0R1      0.144000
     14 H5         -2.0820   -2.0980   -0.0000 h4        1 0R1      0.062800
@<TRIPOS>BOND
     1    1    2 ar  
     2    1    6 ar  
     3    1    9 1   
     4    2    3 ar  
     5    2   10 1   
     6    3    4 ar  
     7    3   11 1   
     8    4    5 ar  
     9    4   12 1   
    10    5    6 ar  
    11    5   13 1   
    12    6    7 1   
    13    7    8 2   
    14    7   14 1   
    15    8    9 1   
@<TRIPOS>SUBSTRUCTURE
     1 0R1         1 TEMP              0 ****  ****    0 ROOT
