@<TRIPOS>MOLECULE
0R2
   65    67     1     0     0
SMALL
bcc


@<TRIPOS>ATOM
      1 CL1         0.0020    0.6980   -1.4020 cl        1 0R2     -0.129400
      2 C1          1.6710    0.4690   -1.1230 ca        1 0R2      0.015400
      3 C2          2.1190    0.1950    0.1710 ca        1 0R2     -0.136500
      4 C3          3.4810    0.0020    0.3930 ca        1 0R2     -0.107000
      5 C4          2.5730    0.5620   -2.1850 ca        1 0R2     -0.136500
      6 C5          3.9350    0.3700   -1.9550 ca        1 0R2     -0.107000
      7 C6          4.3950    0.0850   -0.6640 ca        1 0R2     -0.101300
      8 C7          5.8730   -0.1260   -0.3750 c3        1 0R2      0.166000
      9 N1          6.3280   -1.4310   -0.8580 n         1 0R2     -0.456800
     10 C8          5.7000   -2.5660   -0.2120 c3        1 0R2      0.080700
     11 C9          6.4470   -2.9830    1.0640 c         1 0R2      0.621100
     12 O4          6.9760   -2.2310    1.8860 o         1 0R2     -0.562000
     13 C11         7.5120   -1.5950   -1.5820 c         1 0R2      0.706500
     14 O1          8.0610   -2.7140   -1.6560 o         1 0R2     -0.668500
     15 C12         8.0970   -0.3860   -2.2970 c3        1 0R2     -0.090700
     16 C13         7.3810   -0.1820   -3.6240 c3        1 0R2     -0.198400
     17 C14         7.1840    1.2950   -4.0080 c         1 0R2      0.909600
     18 O2          5.9980    1.7470   -3.9610 o         1 0R2     -0.842800
     19 O3          8.1840    1.9790   -4.3520 o         1 0R2     -0.842800
     20 C15         8.0690    0.7960   -1.3490 c3        1 0R2     -0.073400
     21 C16         6.6550    1.1070   -0.8920 c3        1 0R2     -0.055400
     22 C17         6.6780    2.1830    0.1500 ca        1 0R2     -0.049300
     23 C18         6.1750    3.4520   -0.1710 ca        1 0R2     -0.106000
     24 C19         6.2010    4.4780    0.7720 ca        1 0R2     -0.131000
     25 C20         6.7290    4.2590    2.0430 ca        1 0R2     -0.139000
     26 C21         7.2370    2.9960    2.3570 ca        1 0R2      0.012400
     27 CL2         7.8930    2.7200    3.9090 cl        1 0R2     -0.127400
     28 C22         7.2200    1.9590    1.4220 ca        1 0R2     -0.125000
     29 C10         5.4560   -3.7840   -1.1160 c3        1 0R2     -0.081400
     30 C23         4.6080   -3.4470   -2.3120 c3        1 0R2     -0.091100
     31 O5          6.4220   -4.3260    1.2920 os        1 0R2     -0.437900
     32 C24         7.1250   -4.8990    2.4200 c3        1 0R2      0.172800
     33 C25         8.6090   -4.5770    2.3520 c3        1 0R2     -0.111100
     34 C26         6.5130   -4.4280    3.7300 c3        1 0R2     -0.111100
     35 C27         6.9030   -6.4010    2.2440 c3        1 0R2     -0.111100
     36 H1          1.4090    0.1340    1.0080 ha        1 0R2      0.142000
     37 H2          3.8360   -0.2060    1.4140 ha        1 0R2      0.174500
     38 H3          2.2220    0.7960   -3.2020 ha        1 0R2      0.142000
     39 H4          4.6500    0.4840   -2.8020 ha        1 0R2      0.174500
     40 H5          5.9980   -0.1630    0.7560 h1        1 0R2      0.054700
     41 H6          4.6820   -2.2270    0.1670 h1        1 0R2      0.081700
     42 H7          9.1770   -0.6270   -2.5130 hc        1 0R2      0.074700
     43 H8          7.9790   -0.6740   -4.4320 hc        1 0R2      0.037700
     44 H9          6.3730   -0.6720   -3.6020 hc        1 0R2      0.037700
     45 H11         8.7240    0.5810   -0.4640 hc        1 0R2      0.066200
     46 H12         8.4840    1.6950   -1.8860 hc        1 0R2      0.066200
     47 H13         6.1160    1.5090   -1.8100 hc        1 0R2      0.141700
     48 H14         5.7690    3.6350   -1.1800 ha        1 0R2      0.167000
     49 H15         5.8060    5.4700    0.5100 ha        1 0R2      0.129000
     50 H16         6.7480    5.0690    2.7850 ha        1 0R2      0.132000
     51 H17         7.6340    0.9710    1.6800 ha        1 0R2      0.157000
     52 H18         6.4370   -4.2180   -1.4430 hc        1 0R2      0.066200
     53 H19         4.9370   -4.5590   -0.4900 hc        1 0R2      0.066200
     54 H20         4.3730   -4.3790   -2.8830 hc        1 0R2      0.037367
     55 H21         3.6460   -2.9720   -2.0010 hc        1 0R2      0.037367
     56 H22         5.1420   -2.7420   -2.9960 hc        1 0R2      0.037367
     57 H23         9.0010   -4.8020    1.3310 hc        1 0R2      0.047700
     58 H24         8.7840   -3.4950    2.5710 hc        1 0R2      0.047700
     59 H25         9.1600   -5.1940    3.1010 hc        1 0R2      0.047700
     60 H26         6.7150   -3.3410    3.8850 hc        1 0R2      0.047700
     61 H27         6.9550   -5.0050    4.5760 hc        1 0R2      0.047700
     62 H28         5.4090   -4.5910    3.7170 hc        1 0R2      0.047700
     63 H29         7.3300   -6.7380    1.2700 hc        1 0R2      0.047700
     64 H30         5.8110   -6.6310    2.2550 hc        1 0R2      0.047700
     65 H31         7.4040   -6.9460    3.0770 hc        1 0R2      0.047700
@<TRIPOS>BOND
     1    1    2 1   
     2    2    3 ar  
     3    2    5 ar  
     4    3    4 ar  
     5    3   36 1   
     6    4    7 ar  
     7    4   37 1   
     8    5    6 ar  
     9    5   38 1   
    10    6    7 ar  
    11    6   39 1   
    12    7    8 1   
    13    8    9 1   
    14    8   21 1   
    15    8   40 1   
    16    9   10 1   
    17    9   13 1   
    18   10   11 1   
    19   10   29 1   
    20   10   41 1   
    21   11   12 2   
    22   11   31 1   
    23   13   14 2   
    24   13   15 1   
    25   15   16 1   
    26   15   20 1   
    27   15   42 1   
    28   16   17 1   
    29   16   43 1   
    30   16   44 1   
    31   17   18 1   
    32   17   19 1   
    33   20   21 1   
    34   20   45 1   
    35   20   46 1   
    36   21   22 1   
    37   21   47 1   
    38   22   23 ar  
    39   22   28 ar  
    40   23   24 ar  
    41   23   48 1   
    42   24   25 ar  
    43   24   49 1   
    44   25   26 ar  
    45   25   50 1   
    46   26   27 1   
    47   26   28 ar  
    48   28   51 1   
    49   29   30 1   
    50   29   52 1   
    51   29   53 1   
    52   30   54 1   
    53   30   55 1   
    54   30   56 1   
    55   31   32 1   
    56   32   33 1   
    57   32   34 1   
    58   32   35 1   
    59   33   57 1   
    60   33   58 1   
    61   33   59 1   
    62   34   60 1   
    63   34   61 1   
    64   34   62 1   
    65   35   63 1   
    66   35   64 1   
    67   35   65 1   
@<TRIPOS>SUBSTRUCTURE
     1 0R2         1 TEMP              0 ****  ****    0 ROOT
