@<TRIPOS>MOLECULE
0R2
   65    67     1     0     0
SMALL
bcc


@<TRIPOS>ATOM
      1 CL1         2.6870   -3.1050    4.5470 cl        1 0R2     -0.129400
      2 C1          2.0070   -2.1370    3.3170 ca        1 0R2      0.015400
      3 C2          1.8520   -2.6660    2.0330 ca        1 0R2     -0.136500
      4 C3          1.2900   -1.8740    1.0340 ca        1 0R2     -0.107000
      5 C4          1.6160   -0.8260    3.5990 ca        1 0R2     -0.136500
      6 C5          1.0560   -0.0380    2.5930 ca        1 0R2     -0.107000
      7 C6          0.8860   -0.5610    1.3050 ca        1 0R2     -0.101300
      8 C7          0.2830    0.2690    0.1840 c3        1 0R2      0.166000
      9 N1         -1.1640    0.4140    0.3480 n         1 0R2     -0.456800
     10 C8         -1.9070   -0.8290    0.2750 c3        1 0R2      0.080700
     11 C9         -2.2920   -1.1810   -1.1700 c         1 0R2      0.621100
     12 O4         -1.6030   -1.0060   -2.1780 o         1 0R2     -0.562000
     13 C11        -1.8190    1.6390    0.2040 c         1 0R2      0.706500
     14 O1         -3.0470    1.6810   -0.0210 o         1 0R2     -0.668500
     15 C12        -1.0060    2.9170    0.3530 c3        1 0R2     -0.090700
     16 C13        -0.8410    3.2450    1.8290 c3        1 0R2     -0.198400
     17 C14         0.5270    3.8570    2.1840 c         1 0R2      0.909600
     18 O2          1.3260    3.1300    2.8510 o         1 0R2     -0.842800
     19 O3          0.7890    5.0320    1.8120 o         1 0R2     -0.842800
     20 C15         0.2800    2.7680   -0.4340 c3        1 0R2     -0.073400
     21 C16         1.0940    1.5830    0.0550 c3        1 0R2     -0.055400
     22 C17         2.2830    1.3760   -0.8330 ca        1 0R2     -0.049300
     23 C18         3.5620    1.6540   -0.3310 ca        1 0R2     -0.106000
     24 C19         4.6860    1.4900   -1.1400 ca        1 0R2     -0.131000
     25 C20         4.5530    1.0520   -2.4560 ca        1 0R2     -0.139000
     26 C21         3.2760    0.7840   -2.9560 ca        1 0R2      0.012400
     27 CL2         3.1020    0.2550   -4.5690 cl        1 0R2     -0.127400
     28 C22         2.1410    0.9470   -2.1580 ca        1 0R2     -0.125000
     29 C10        -3.1340   -0.9140    1.1950 c3        1 0R2     -0.081400
     30 C23        -2.7780   -0.7110    2.6440 c3        1 0R2     -0.091100
     31 O5         -3.4930   -1.8140   -1.2710 os        1 0R2     -0.437900
     32 C24        -4.0360   -2.1690   -2.5660 c3        1 0R2      0.172800
     33 C25        -4.2110   -0.9340   -3.4350 c3        1 0R2     -0.111100
     34 C26        -3.1640   -3.2110   -3.2470 c3        1 0R2     -0.111100
     35 C27        -5.4000   -2.7670   -2.2200 c3        1 0R2     -0.111100
     36 H1          2.1700   -3.6940    1.8100 ha        1 0R2      0.142000
     37 H2          1.1740   -2.2880    0.0200 ha        1 0R2      0.174500
     38 H3          1.7550   -0.4030    4.6060 ha        1 0R2      0.142000
     39 H4          0.7830    1.0180    2.8200 ha        1 0R2      0.174500
     40 H5          0.4200   -0.3150   -0.7850 h1        1 0R2      0.054700
     41 H6         -1.2040   -1.6690    0.5830 h1        1 0R2      0.081700
     42 H7         -1.6080    3.7430   -0.1260 hc        1 0R2      0.074700
     43 H8         -1.6350    3.9770    2.1250 hc        1 0R2      0.037700
     44 H9         -0.9790    2.3240    2.4520 hc        1 0R2      0.037700
     45 H11         0.0390    2.6490   -1.5230 hc        1 0R2      0.066200
     46 H12         0.8890    3.7050   -0.3060 hc        1 0R2      0.066200
     47 H13         1.4660    1.8720    1.0920 hc        1 0R2      0.141700
     48 H14         3.6720    2.0140    0.7060 ha        1 0R2      0.167000
     49 H15         5.6850    1.7120   -0.7380 ha        1 0R2      0.129000
     50 H16         5.4400    0.9230   -3.0920 ha        1 0R2      0.132000
     51 H17         1.1390    0.7420   -2.5680 ha        1 0R2      0.157000
     52 H18        -3.9040   -0.1650    0.8740 hc        1 0R2      0.066200
     53 H19        -3.5780   -1.9360    1.0550 hc        1 0R2      0.066200
     54 H20        -3.6790   -0.8820    3.2810 hc        1 0R2      0.037367
     55 H21        -1.9780   -1.4220    2.9630 hc        1 0R2      0.037367
     56 H22        -2.4140    0.3310    2.8240 hc        1 0R2      0.037367
     57 H23        -3.2170   -0.5460   -3.7650 hc        1 0R2      0.047700
     58 H24        -4.8180   -1.1930   -4.3340 hc        1 0R2      0.047700
     59 H25        -4.7320   -0.1330   -2.8570 hc        1 0R2      0.047700
     60 H26        -2.9750   -4.0650   -2.5540 hc        1 0R2      0.047700
     61 H27        -3.6820   -3.5910   -4.1590 hc        1 0R2      0.047700
     62 H28        -2.1840   -2.7640   -3.5440 hc        1 0R2      0.047700
     63 H29        -6.0270   -2.0080   -1.6960 hc        1 0R2      0.047700
     64 H30        -5.9100   -3.0860   -3.1590 hc        1 0R2      0.047700
     65 H31        -5.2730   -3.6500   -1.5500 hc        1 0R2      0.047700
@<TRIPOS>BOND
     1    1    2 1   
     2    2    3 ar  
     3    2    5 ar  
     4    3    4 ar  
     5    3   36 1   
     6    4    7 ar  
     7    4   37 1   
     8    5    6 ar  
     9    5   38 1   
    10    6    7 ar  
    11    6   39 1   
    12    7    8 1   
    13    8    9 1   
    14    8   21 1   
    15    8   40 1   
    16    9   10 1   
    17    9   13 1   
    18   10   11 1   
    19   10   29 1   
    20   10   41 1   
    21   11   12 2   
    22   11   31 1   
    23   13   14 2   
    24   13   15 1   
    25   15   16 1   
    26   15   20 1   
    27   15   42 1   
    28   16   17 1   
    29   16   43 1   
    30   16   44 1   
    31   17   18 1   
    32   17   19 1   
    33   20   21 1   
    34   20   45 1   
    35   20   46 1   
    36   21   22 1   
    37   21   47 1   
    38   22   23 ar  
    39   22   28 ar  
    40   23   24 ar  
    41   23   48 1   
    42   24   25 ar  
    43   24   49 1   
    44   25   26 ar  
    45   25   50 1   
    46   26   27 1   
    47   26   28 ar  
    48   28   51 1   
    49   29   30 1   
    50   29   52 1   
    51   29   53 1   
    52   30   54 1   
    53   30   55 1   
    54   30   56 1   
    55   31   32 1   
    56   32   33 1   
    57   32   34 1   
    58   32   35 1   
    59   33   57 1   
    60   33   58 1   
    61   33   59 1   
    62   34   60 1   
    63   34   61 1   
    64   34   62 1   
    65   35   63 1   
    66   35   64 1   
    67   35   65 1   
@<TRIPOS>SUBSTRUCTURE
     1 0R2         1 TEMP              0 ****  ****    0 ROOT
