@<TRIPOS>MOLECULE
0R2
   65    67     1     0     0
SMALL
bcc


@<TRIPOS>ATOM
      1 Cl1        -0.0170    0.6370   -1.3890 cl        1 0R2     -0.129400
      2 C1          1.6550    0.4240   -1.1150 ca        1 0R2      0.015400
      3 C2          2.1120    0.1680    0.1800 ca        1 0R2     -0.136500
      4 C3          3.4760   -0.0120    0.3970 ca        1 0R2     -0.107000
      5 C4          2.5510    0.5110   -2.1830 ca        1 0R2     -0.136500
      6 C5          3.9160    0.3320   -1.9570 ca        1 0R2     -0.107000
      7 C6          4.3840    0.0650   -0.6650 ca        1 0R2     -0.101300
      8 C7          5.8650   -0.1330   -0.3820 c3        1 0R2      0.166000
      9 N1          6.3270   -1.4390   -0.8510 n         1 0R2     -0.456800
     10 C8          5.7100   -2.5720   -0.1890 c3        1 0R2      0.080700
     11 C9          6.4670   -2.9680    1.0880 c         1 0R2      0.621100
     12 O4          6.9920   -2.2020    1.8990 o         1 0R2     -0.562000
     13 C11         7.5080   -1.6030   -1.5800 c         1 0R2      0.706500
     14 O1          8.0650   -2.7180   -1.6440 o         1 0R2     -0.668500
     15 C12         8.0810   -0.3980   -2.3110 c3        1 0R2     -0.090700
     16 C13         7.3570   -0.2160   -3.6370 c3        1 0R2     -0.198400
     17 C14         7.1470    1.2560   -4.0370 c         1 0R2      0.909600
     18 O2          5.9580    1.7000   -3.9900 o         1 0R2     -0.842800
     19 O3          8.1410    1.9430   -4.3950 o         1 0R2     -0.842800
     20 C15         8.0500    0.7950   -1.3770 c3        1 0R2     -0.073400
     21 C16         6.6360    1.1010   -0.9170 c3        1 0R2     -0.055400
     22 C17         6.6550    2.1890    0.1130 ca        1 0R2     -0.049300
     23 C18         6.1410    3.4500   -0.2200 ca        1 0R2     -0.106000
     24 C19         6.1650    4.4870    0.7100 ca        1 0R2     -0.131000
     25 C20         6.7000    4.2870    1.9810 ca        1 0R2     -0.139000
     26 C21         7.2190    3.0320    2.3070 ca        1 0R2      0.012400
     27 Cl2         7.8840    2.7780    3.8590 cl        1 0R2     -0.127400
     28 C22         7.2050    1.9840    1.3840 ca        1 0R2     -0.125000
     29 C10         5.4710   -3.8010   -1.0770 c3        1 0R2     -0.081400
     30 C23         4.6140   -3.4850   -2.2730 c3        1 0R2     -0.091100
     31 O5          6.4570   -4.3090    1.3290 os        1 0R2     -0.437900
     32 C24         7.1700   -4.8630    2.4610 c3        1 0R2      0.172800
     33 C25         8.6510   -4.5260    2.3820 c3        1 0R2     -0.111100
     34 C26         6.5590   -4.3850    3.7680 c3        1 0R2     -0.111100
     35 C27         6.9630   -6.3690    2.3000 c3        1 0R2     -0.111100
     36 H1          1.4060    0.1110    1.0210 ha        1 0R2      0.142000
     37 H2          3.8370   -0.2060    1.4190 ha        1 0R2      0.174500
     38 H3          2.1930    0.7310   -3.2000 ha        1 0R2      0.142000
     39 H4          4.6250    0.4410   -2.8090 ha        1 0R2      0.174500
     40 H5          5.9960   -0.1550    0.7500 h1        1 0R2      0.054700
     41 H6          4.6920   -2.2350    0.1910 h1        1 0R2      0.081700
     42 H7          9.1620   -0.6340   -2.5300 hc        1 0R2      0.074700
     43 H8          6.3530   -0.7120   -3.6040 hc        1 0R2      0.037700
     44 H9          7.9550   -0.7120   -4.4430 hc        1 0R2      0.037700
     45 H11         8.7100    0.5940   -0.4930 hc        1 0R2      0.066200
     46 H12         8.4550    1.6900   -1.9270 hc        1 0R2      0.066200
     47 H13         6.0880    1.4880   -1.8370 hc        1 0R2      0.141700
     48 H14         5.7290    3.6180   -1.2300 ha        1 0R2      0.167000
     49 H15         5.7610    5.4740    0.4380 ha        1 0R2      0.129000
     50 H16         6.7160    5.1060    2.7130 ha        1 0R2      0.132000
     51 H17         7.6280    1.0020    1.6510 ha        1 0R2      0.157000
     52 H18         6.4540   -4.2320   -1.4050 hc        1 0R2      0.066200
     53 H19         4.9610   -4.5720   -0.4400 hc        1 0R2      0.066200
     54 H20         5.1390   -2.7840   -2.9680 hc        1 0R2      0.037367
     55 H21         4.3840   -4.4250   -2.8320 hc        1 0R2      0.037367
     56 H22         3.6510   -3.0130   -1.9620 hc        1 0R2      0.037367
     57 H23         8.8160   -3.4410    2.5890 hc        1 0R2      0.047700
     58 H24         9.2110   -5.1300    3.1350 hc        1 0R2      0.047700
     59 H25         9.0400   -4.7580    1.3620 hc        1 0R2      0.047700
     60 H26         6.7500   -3.2940    3.9110 hc        1 0R2      0.047700
     61 H27         7.0110   -4.9480    4.6180 hc        1 0R2      0.047700
     62 H28         5.4570   -4.5590    3.7610 hc        1 0R2      0.047700
     63 H29         5.8740   -6.6100    2.3180 hc        1 0R2      0.047700
     64 H30         7.3890   -6.7110    1.3280 hc        1 0R2      0.047700
     65 H31         7.4730   -6.9000    3.1370 hc        1 0R2      0.047700
@<TRIPOS>BOND
     1    1    2 1   
     2    2    3 ar  
     3    2    5 ar  
     4    3    4 ar  
     5    3   36 1   
     6    4    7 ar  
     7    4   37 1   
     8    5    6 ar  
     9    5   38 1   
    10    6    7 ar  
    11    6   39 1   
    12    7    8 1   
    13    8    9 1   
    14    8   21 1   
    15    8   40 1   
    16    9   10 1   
    17    9   13 1   
    18   10   11 1   
    19   10   29 1   
    20   10   41 1   
    21   11   12 2   
    22   11   31 1   
    23   13   14 2   
    24   13   15 1   
    25   15   16 1   
    26   15   20 1   
    27   15   42 1   
    28   16   17 1   
    29   16   43 1   
    30   16   44 1   
    31   17   18 1   
    32   17   19 1   
    33   20   21 1   
    34   20   45 1   
    35   20   46 1   
    36   21   22 1   
    37   21   47 1   
    38   22   23 ar  
    39   22   28 ar  
    40   23   24 ar  
    41   23   48 1   
    42   24   25 ar  
    43   24   49 1   
    44   25   26 ar  
    45   25   50 1   
    46   26   27 1   
    47   26   28 ar  
    48   28   51 1   
    49   29   30 1   
    50   29   52 1   
    51   29   53 1   
    52   30   54 1   
    53   30   55 1   
    54   30   56 1   
    55   31   32 1   
    56   32   33 1   
    57   32   34 1   
    58   32   35 1   
    59   33   57 1   
    60   33   58 1   
    61   33   59 1   
    62   34   60 1   
    63   34   61 1   
    64   34   62 1   
    65   35   63 1   
    66   35   64 1   
    67   35   65 1   
@<TRIPOS>SUBSTRUCTURE
     1 0R2         1 TEMP              0 ****  ****    0 ROOT
