@<TRIPOS>MOLECULE
0R2
   65    59     1     0     0
SMALL
bcc


@<TRIPOS>ATOM
      1 CL1        -6.0540    1.2370   -0.3100 cl        1 0R2     -0.050500
      2 C1         -4.3100    1.1310   -0.2360 c1        1 0R2     -0.064500
      3 C2         -3.6740    0.9640    0.9910 c1        1 0R2     -0.136500
      4 C3         -2.2800    0.9260    1.0560 c1        1 0R2     -0.136500
      5 C4         -3.5560    1.2600   -1.3970 c1        1 0R2     -0.132500
      6 C5         -2.1620    1.2230   -1.3330 c1        1 0R2     -0.088000
      7 C6         -1.5260    1.0560   -0.1050 c1        1 0R2     -0.095000
      8 C7         -0.0130    1.0920   -0.0230 c2        1 0R2      0.081000
      9 N1          0.5210   -0.2060   -0.5910 n3        1 0R2     -0.322000
     10 C8         -0.2550   -1.4220   -0.4740 c3        1 0R2      0.057000
     11 C9          0.2760   -2.2450    0.6610 c1        1 0R2      0.291000
     12 O4          1.2810   -1.9040    1.2330 o         1 0R2     -0.379000
     13 C11         1.8420   -0.2690   -0.6770 c1        1 0R2      0.313000
     14 O1          2.4040   -1.3550   -0.6590 o         1 0R2     -0.394000
     15 C12         2.5030    0.9020   -1.3250 c2        1 0R2     -0.080000
     16 C13         2.2850    0.8720   -2.9130 c3        1 0R2     -0.227000
     17 C14         3.6090    1.1600   -3.6140 c2        1 0R2      0.328000
     18 O2          3.8350    0.6760   -4.7630 o         1 0R2     -0.577000
     19 O3          4.4540    1.9120   -3.0730 o         1 0R2     -0.577000
     20 C15         2.0310    2.1800   -0.7150 c3        1 0R2     -0.152000
     21 C16         0.4680    2.3580   -0.7040 c3        1 0R2     -0.103000
     22 C17         0.0870    3.5480    0.0660 c2        1 0R2     -0.042000
     23 C18        -0.5850    4.5940   -0.5660 c2        1 0R2     -0.106000
     24 C19        -0.7890    5.8050    0.1080 c1        1 0R2     -0.131000
     25 C20        -0.3210    5.9650    1.4100 c1        1 0R2     -0.132500
     26 C21         0.3490    4.9230    2.0430 c1        1 0R2     -0.064500
     27 CL2         0.9730    5.1420    3.6690 cl        1 0R2     -0.050500
     28 C22         0.5550    3.7110    1.3710 c1        1 0R2     -0.125000
     29 C10        -0.1550   -2.2150   -1.7640 c3        1 0R2     -0.158000
     30 C23        -1.4560   -2.9670   -2.0010 c3        1 0R2     -0.213000
     31 O5         -0.3730   -3.4620    1.0250 o         1 0R2     -0.268000
     32 C24         0.2810   -4.1730    2.0940 c3        1 0R2      0.100000
     33 C25         1.6850   -4.5850    1.6480 c3        1 0R2     -0.229000
     34 C26         0.3810   -3.2770    3.3080 c3        1 0R2     -0.229000
     35 C27        -0.5320   -5.4310    2.4480 c3        1 0R2     -0.229000
     36 H1         -4.2070    0.8730    1.8130 ha        1 0R2      0.133000
     37 H2         -1.8320    0.8340    1.9230 ha        1 0R2      0.133000
     38 H3         -4.0050    1.3790   -2.2640 ha        1 0R2      0.141500
     39 H4         -1.6280    1.2800   -2.1610 ha        1 0R2      0.216000
     40 H5          0.2400    1.1380    0.9170 h4        1 0R2      0.100000
     41 H6         -1.1920   -1.1960   -0.3010 h1        1 0R2      0.121000
     42 H7          3.4840    0.8340   -1.2670 ha        1 0R2      0.114000
     43 H8          1.9580   -0.0170   -3.1820 hc        1 0R2      0.077000
     44 H9          1.6370    1.5420   -3.1610 hc        1 0R2      0.077000
     45 H11         2.4250    2.9260   -1.2140 hc        1 0R2      0.104500
     46 H12         2.3520    2.2190    0.2030 hc        1 0R2      0.104500
     47 H13         0.1210    2.4110   -1.6200 hc        1 0R2      0.181000
     48 H14        -0.9140    4.4820   -1.4810 ha        1 0R2      0.168000
     49 H15        -1.2130    6.5610   -0.3580 ha        1 0R2      0.129000
     50 H16        -0.4660    6.8210    1.8850 ha        1 0R2      0.141500
     51 H17         1.0250    2.9810    1.8150 ha        1 0R2      0.156000
     52 H18         0.0080   -1.6030   -2.5110 hc        1 0R2      0.115000
     53 H19         0.5820   -2.8520   -1.6990 hc        1 0R2      0.115000
     54 H20        -2.2130   -2.3690   -1.8350 hc        1 0R2      0.071000
     55 H21        -1.5050   -3.7310   -1.3930 hc        1 0R2      0.071000
     56 H22        -1.4860   -3.2850   -2.9330 hc        1 0R2      0.071000
     57 H23         1.9940   -5.3310    2.1940 hc        1 0R2      0.087111
     58 H24         1.6620   -4.8600    0.7000 hc        1 0R2      0.087111
     59 H25         2.3000   -3.8240    1.7540 hc        1 0R2      0.087111
     60 H26        -0.3620   -2.6310    3.3020 hc        1 0R2      0.087111
     61 H27         1.2340   -2.7940    3.2880 hc        1 0R2      0.087111
     62 H28         0.3330   -3.8200    4.1190 hc        1 0R2      0.087111
     63 H29        -0.5650   -6.0270    1.6730 hc        1 0R2      0.087111
     64 H30        -1.4460   -5.1700    2.7010 hc        1 0R2      0.087111
     65 H31        -0.1030   -5.8980    3.2040 hc        1 0R2      0.087111
@<TRIPOS>BOND
     1    1    2 1   
     2    2    5 1   
     3    3    4 1   
     4    3   36 1   
     5    4   37 1   
     6    5   38 1   
     7    6    7 1   
     8    6   39 1   
     9    8    9 1   
    10    8   21 1   
    11    8   40 1   
    12    9   10 1   
    13    9   13 1   
    14   10   11 1   
    15   10   29 1   
    16   10   41 1   
    17   11   12 1   
    18   13   14 1   
    19   15   16 1   
    20   15   20 1   
    21   15   42 1   
    22   16   17 1   
    23   16   43 1   
    24   16   44 1   
    25   17   18 1   
    26   17   19 1   
    27   20   21 1   
    28   20   45 1   
    29   20   46 1   
    30   21   22 1   
    31   21   47 1   
    32   22   23 1   
    33   22   28 1   
    34   23   24 1   
    35   23   48 1   
    36   24   49 1   
    37   25   26 1   
    38   25   50 1   
    39   26   27 1   
    40   28   51 1   
    41   29   30 1   
    42   29   52 1   
    43   29   53 1   
    44   30   54 1   
    45   30   55 1   
    46   30   56 1   
    47   31   32 1   
    48   32   33 1   
    49   32   34 1   
    50   32   35 1   
    51   33   57 1   
    52   33   58 1   
    53   33   59 1   
    54   34   60 1   
    55   34   61 1   
    56   34   62 1   
    57   35   63 1   
    58   35   64 1   
    59   35   65 1   
@<TRIPOS>SUBSTRUCTURE
     1 0R2         1 TEMP              0 ****  ****    0 ROOT
