@<TRIPOS>MOLECULE
0R2
   65    67     1     0     0
SMALL
bcc


@<TRIPOS>ATOM
      1 CL1         0.0040    0.7190   -1.3780 cl        1 0R2     -0.129400
      2 C1          1.6730    0.4840   -1.1060 ca        1 0R2      0.015400
      3 C2          2.1260    0.2100    0.1870 ca        1 0R2     -0.136500
      4 C3          3.4880    0.0120    0.4040 ca        1 0R2     -0.107000
      5 C4          2.5710    0.5720   -2.1720 ca        1 0R2     -0.136500
      6 C5          3.9330    0.3750   -1.9470 ca        1 0R2     -0.107000
      7 C6          4.3980    0.0900   -0.6570 ca        1 0R2     -0.101300
      8 C7          5.8760   -0.1270   -0.3750 c3        1 0R2      0.166000
      9 N1          6.3240   -1.4330   -0.8580 n         1 0R2     -0.456800
     10 C8          5.6950   -2.5660   -0.2060 c3        1 0R2      0.080700
     11 C9          6.4460   -2.9820    1.0670 c         1 0R2      0.621100
     12 O4          6.9840   -2.2310    1.8840 o         1 0R2     -0.562000
     13 C11         7.5030   -1.6030   -1.5870 c         1 0R2      0.706500
     14 O1          8.0480   -2.7240   -1.6620 o         1 0R2     -0.668500
     15 C12         8.0900   -0.3970   -2.3060 c3        1 0R2     -0.090700
     16 C13         7.3690   -0.1930   -3.6300 c3        1 0R2     -0.198400
     17 C14         7.1760    1.2840   -4.0150 c         1 0R2      0.909600
     18 O2          5.9920    1.7410   -3.9640 o         1 0R2     -0.842800
     19 O3          8.1770    1.9640   -4.3660 o         1 0R2     -0.842800
     20 C15         8.0720    0.7860   -1.3600 c3        1 0R2     -0.073400
     21 C16         6.6610    1.1030   -0.8970 c3        1 0R2     -0.055400
     22 C17         6.6920    2.1800    0.1440 ca        1 0R2     -0.049300
     23 C18         6.1930    3.4500   -0.1750 ca        1 0R2     -0.106000
     24 C19         6.2280    4.4770    0.7660 ca        1 0R2     -0.131000
     25 C20         6.7610    4.2570    2.0350 ca        1 0R2     -0.139000
     26 C21         7.2660    2.9930    2.3480 ca        1 0R2      0.012400
     27 CL2         7.9280    2.7150    3.8970 cl        1 0R2     -0.127400
     28 C22         7.2400    1.9550    1.4130 ca        1 0R2     -0.125000
     29 C10         5.4430   -3.7840   -1.1060 c3        1 0R2     -0.081400
     30 C23         4.5910   -3.4470   -2.3000 c3        1 0R2     -0.091100
     31 O5          6.4160   -4.3240    1.2990 os        1 0R2     -0.437900
     32 C24         7.1210   -4.8970    2.4260 c3        1 0R2      0.172800
     33 C25         8.6060   -4.5830    2.3500 c3        1 0R2     -0.111100
     34 C26         6.5170   -4.4190    3.7370 c3        1 0R2     -0.111100
     35 C27         6.8900   -6.3990    2.2560 c3        1 0R2     -0.111100
     36 H1          1.4190    0.1530    1.0270 ha        1 0R2      0.142000
     37 H2          3.8460   -0.1960    1.4230 ha        1 0R2      0.174500
     38 H3          2.2160    0.8060   -3.1870 ha        1 0R2      0.142000
     39 H4          4.6450    0.4850   -2.7980 ha        1 0R2      0.174500
     40 H5          6.0060   -0.1620    0.7560 h1        1 0R2      0.054700
     41 H6          4.6800   -2.2220    0.1760 h1        1 0R2      0.081700
     42 H7          9.1680   -0.6430   -2.5270 hc        1 0R2      0.074700
     43 H8          6.3590   -0.6790   -3.6030 hc        1 0R2      0.037700
     44 H9          7.9620   -0.6880   -4.4410 hc        1 0R2      0.037700
     45 H11         8.7300    0.5700   -0.4780 hc        1 0R2      0.066200
     46 H12         8.4870    1.6830   -1.9010 hc        1 0R2      0.066200
     47 H13         6.1180    1.5060   -1.8130 hc        1 0R2      0.141700
     48 H14         5.7820    3.6340   -1.1830 ha        1 0R2      0.167000
     49 H15         5.8350    5.4710    0.5050 ha        1 0R2      0.129000
     50 H16         6.7870    5.0680    2.7760 ha        1 0R2      0.132000
     51 H17         7.6510    0.9650    1.6700 ha        1 0R2      0.157000
     52 H18         4.9230   -4.5560   -0.4760 hc        1 0R2      0.066200
     53 H19         6.4210   -4.2220   -1.4370 hc        1 0R2      0.066200
     54 H20         5.1250   -2.7460   -2.9880 hc        1 0R2      0.037367
     55 H21         4.3500   -4.3790   -2.8670 hc        1 0R2      0.037367
     56 H22         3.6320   -2.9670   -1.9860 hc        1 0R2      0.037367
     57 H23         8.7880   -3.5020    2.5640 hc        1 0R2      0.047589
     58 H24         8.9920   -4.8140    1.3290 hc        1 0R2      0.047589
     59 H25         9.1570   -5.2000    3.0990 hc        1 0R2      0.047589
     60 H26         6.9600   -4.9950    4.5830 hc        1 0R2      0.047589
     61 H27         5.4120   -4.5750    3.7290 hc        1 0R2      0.047589
     62 H28         6.7260   -3.3320    3.8880 hc        1 0R2      0.047589
     63 H29         7.3920   -6.9440    3.0880 hc        1 0R2      0.047589
     64 H30         5.7970   -6.6230    2.2720 hc        1 0R2      0.047589
     65 H31         7.3100   -6.7410    1.2810 hc        1 0R2      0.047589
@<TRIPOS>BOND
     1    1    2 1   
     2    2    3 ar  
     3    2    5 ar  
     4    3    4 ar  
     5    3   36 1   
     6    4    7 ar  
     7    4   37 1   
     8    5    6 ar  
     9    5   38 1   
    10    6    7 ar  
    11    6   39 1   
    12    7    8 1   
    13    8    9 1   
    14    8   21 1   
    15    8   40 1   
    16    9   10 1   
    17    9   13 1   
    18   10   11 1   
    19   10   29 1   
    20   10   41 1   
    21   11   12 2   
    22   11   31 1   
    23   13   14 2   
    24   13   15 1   
    25   15   16 1   
    26   15   20 1   
    27   15   42 1   
    28   16   17 1   
    29   16   43 1   
    30   16   44 1   
    31   17   18 1   
    32   17   19 1   
    33   20   21 1   
    34   20   45 1   
    35   20   46 1   
    36   21   22 1   
    37   21   47 1   
    38   22   23 ar  
    39   22   28 ar  
    40   23   24 ar  
    41   23   48 1   
    42   24   25 ar  
    43   24   49 1   
    44   25   26 ar  
    45   25   50 1   
    46   26   27 1   
    47   26   28 ar  
    48   28   51 1   
    49   29   30 1   
    50   29   52 1   
    51   29   53 1   
    52   30   54 1   
    53   30   55 1   
    54   30   56 1   
    55   31   32 1   
    56   32   33 1   
    57   32   34 1   
    58   32   35 1   
    59   33   57 1   
    60   33   58 1   
    61   33   59 1   
    62   34   60 1   
    63   34   61 1   
    64   34   62 1   
    65   35   63 1   
    66   35   64 1   
    67   35   65 1   
@<TRIPOS>SUBSTRUCTURE
     1 0R2         1 TEMP              0 ****  ****    0 ROOT
