@<TRIPOS>MOLECULE
0R3
   60    62     1     0     0
SMALL
bcc


@<TRIPOS>ATOM
      1 C17        -0.5290   -0.4050   -0.8580 ca        1 0R3     -0.117000
      2 C16         0.7380   -0.4590   -1.4430 ca        1 0R3      0.015400
      3 CL2         0.8810   -0.7500   -3.1170 cl        1 0R3     -0.118400
      4 C15         1.8930   -0.2770   -0.6780 ca        1 0R3     -0.138000
      5 C14         1.7690   -0.0390    0.6890 ca        1 0R3     -0.130000
      6 C13         0.5100    0.0190    1.2850 ca        1 0R3     -0.125000
      7 C6         -0.6480   -0.1620    0.5170 ca        1 0R3     -0.055300
      8 C2         -1.9960   -0.0570    1.1670 c3        1 0R3     -0.028400
      9 C3         -2.6660    1.2330    0.7170 c3        1 0R3     -0.072400
     10 C4         -4.1420    1.2860    1.1070 c3        1 0R3     -0.080000
     11 C23        -4.3050    1.2480    2.6210 c3        1 0R3     -0.199400
     12 C25        -5.7520    1.0430    3.1120 c         1 0R3      0.915600
     13 O3         -6.5420    2.0240    3.0930 o         1 0R3     -0.838300
     14 O2         -6.0510   -0.1040    3.5610 o         1 0R3     -0.838300
     15 C24        -4.7540    2.5790    0.5780 c3        1 0R3     -0.086100
     16 C5         -4.8150    0.1060    0.4030 c         1 0R3      0.730500
     17 O1         -5.8520    0.2540   -0.2740 o         1 0R3     -0.652500
     18 N1         -4.1980   -1.1440    0.4570 n         1 0R3     -0.458800
     19 C18        -4.7770   -2.2800   -0.2500 c3        1 0R3      0.133700
     20 C19        -6.2470   -2.5650    0.0990 c3        1 0R3     -0.081400
     21 C22        -6.5000   -2.6640    1.5790 c3        1 0R3     -0.113100
     22 C20        -4.6540   -2.1300   -1.7970 c3        1 0R3      0.103100
     23 O4         -3.2590   -2.0630   -2.0920 oh        1 0R3     -0.614800
     24 C21        -5.2720   -3.2980   -2.5430 c3        1 0R3     -0.119100
     25 C1         -2.8310   -1.3440    0.9040 c3        1 0R3      0.174000
     26 C7         -2.7240   -2.2340    2.1310 ca        1 0R3     -0.108300
     27 C8         -1.6650   -3.1510    2.1840 ca        1 0R3     -0.111000
     28 C9         -1.4950   -3.9800    3.2890 ca        1 0R3     -0.138000
     29 C10        -2.4000   -3.8960    4.3510 ca        1 0R3      0.011400
     30 CL1        -2.1960   -4.9100    5.7100 cl        1 0R3     -0.134400
     31 C11        -3.4660   -2.9950    4.3070 ca        1 0R3     -0.138000
     32 C12        -3.6290   -2.1660    3.1950 ca        1 0R3     -0.111000
     33 H1         -1.4370   -0.5650   -1.4660 ha        1 0R3      0.171000
     34 H2          2.8860   -0.3210   -1.1470 ha        1 0R3      0.136000
     35 H3          2.6710    0.1020    1.3020 ha        1 0R3      0.128000
     36 H4          0.4240    0.2060    2.3660 ha        1 0R3      0.140000
     37 H5         -1.8430    0.0150    2.2840 hc        1 0R3      0.076700
     38 H6         -2.1310    2.1000    1.1840 hc        1 0R3      0.043200
     39 H7         -2.5770    1.3390   -0.3970 hc        1 0R3      0.043200
     40 H8         -3.9380    2.2240    3.0320 hc        1 0R3      0.033200
     41 H9         -3.6760    0.4300    3.0550 hc        1 0R3      0.033200
     42 H11        -5.8000    2.6670    0.9740 hc        1 0R3      0.047700
     43 H12        -4.1560    3.4520    0.9310 hc        1 0R3      0.047700
     44 H13        -4.7790    2.5770   -0.5360 hc        1 0R3      0.047700
     45 H14        -4.1770   -3.1960    0.0430 h1        1 0R3      0.055700
     46 H15        -6.8990   -1.7660   -0.3430 hc        1 0R3      0.044700
     47 H16        -6.5170   -3.5430   -0.3840 hc        1 0R3      0.044700
     48 H17        -6.4570   -1.6530    2.0680 hc        1 0R3      0.051700
     49 H18        -5.7430   -3.3220    2.0710 hc        1 0R3      0.051700
     50 H19        -7.5150   -3.0940    1.7600 hc        1 0R3      0.051700
     51 H20        -5.1530   -1.1680   -2.1100 h1        1 0R3      0.065700
     52 H21        -3.1870   -1.8430   -3.0270 ho        1 0R3      0.389000
     53 H22        -4.9560   -4.2680   -2.0910 hc        1 0R3      0.036367
     54 H23        -4.9410   -3.2840   -3.6110 hc        1 0R3      0.036367
     55 H24        -6.3860   -3.2280   -2.5170 hc        1 0R3      0.036367
     56 H25        -2.3140   -1.9050    0.0560 h1        1 0R3      0.063700
     57 H26        -0.9550   -3.2190    1.3460 ha        1 0R3      0.181500
     58 H27        -0.6600   -4.6930    3.3220 ha        1 0R3      0.142500
     59 H28        -4.1840   -2.9280    5.1390 ha        1 0R3      0.142500
     60 H29        -4.4950   -1.4600    3.1780 ha        1 0R3      0.181500
@<TRIPOS>BOND
     1    1    2 ar  
     2    1    7 ar  
     3    1   33 1   
     4    2    3 1   
     5    2    4 ar  
     6    4    5 ar  
     7    4   34 1   
     8    5    6 ar  
     9    5   35 1   
    10    6    7 ar  
    11    6   36 1   
    12    7    8 1   
    13    8    9 1   
    14    8   25 1   
    15    8   37 1   
    16    9   10 1   
    17    9   38 1   
    18    9   39 1   
    19   10   11 1   
    20   10   15 1   
    21   10   16 1   
    22   11   12 1   
    23   11   40 1   
    24   11   41 1   
    25   12   13 1   
    26   12   14 1   
    27   15   42 1   
    28   15   43 1   
    29   15   44 1   
    30   16   17 2   
    31   16   18 1   
    32   18   19 1   
    33   18   25 1   
    34   19   20 1   
    35   19   22 1   
    36   19   45 1   
    37   20   21 1   
    38   20   46 1   
    39   20   47 1   
    40   21   48 1   
    41   21   49 1   
    42   21   50 1   
    43   22   23 1   
    44   22   24 1   
    45   22   51 1   
    46   23   52 1   
    47   24   53 1   
    48   24   54 1   
    49   24   55 1   
    50   25   26 1   
    51   25   56 1   
    52   26   27 ar  
    53   26   32 ar  
    54   27   28 ar  
    55   27   57 1   
    56   28   29 ar  
    57   28   58 1   
    58   29   30 1   
    59   29   31 ar  
    60   31   32 ar  
    61   31   59 1   
    62   32   60 1   
@<TRIPOS>SUBSTRUCTURE
     1 0R3         1 TEMP              0 ****  ****    0 ROOT
