@<TRIPOS>MOLECULE
0R3
   60    62     1     0     0
SMALL
bcc


@<TRIPOS>ATOM
      1 C17        -0.4930   -0.4000   -0.8080 ca        1 0R3     -0.119000
      2 C16         0.7920   -0.4910   -1.3490 ca        1 0R3      0.017400
      3 Cl2         0.9870   -0.7300   -3.0240 cl        1 0R3     -0.110400
      4 C15         1.9240   -0.3880   -0.5350 ca        1 0R3     -0.138000
      5 C14         1.7580   -0.1920    0.8350 ca        1 0R3     -0.129000
      6 C13         0.4810   -0.0980    1.3850 ca        1 0R3     -0.124000
      7 C6         -0.6530   -0.2000    0.5690 ca        1 0R3     -0.059300
      8 C2         -2.0190   -0.0610    1.1740 c3        1 0R3     -0.030400
      9 C3         -2.6350    1.2530    0.7180 c3        1 0R3     -0.075400
     10 C4         -4.1260    1.3410    1.0480 c3        1 0R3     -0.079000
     11 C23        -4.3540    1.2800    2.5520 c3        1 0R3     -0.199400
     12 C25        -5.8180    1.0550    2.9790 c         1 0R3      0.915600
     13 O3         -6.6360    2.0070    2.8710 o         1 0R3     -0.836800
     14 O2         -6.1040   -0.0770    3.4730 o         1 0R3     -0.836800
     15 C24        -4.6860    2.6560    0.5160 c3        1 0R3     -0.087100
     16 C5         -4.7840    0.1870    0.2910 c         1 0R3      0.723500
     17 O1         -5.7340    0.3690   -0.4980 o         1 0R3     -0.655500
     18 N1         -4.2370   -1.0900    0.4190 n         1 0R3     -0.461800
     19 C18        -4.8510   -2.2170   -0.2700 c3        1 0R3      0.091700
     20 C19        -6.3300   -2.4440    0.0920 c3        1 0R3     -0.082400
     21 C22        -6.5450   -2.7280    1.5540 c3        1 0R3     -0.115100
     22 C20        -4.7630   -2.1340   -1.8270 c3        1 0R3      0.117100
     23 O4         -3.6190   -1.4170   -2.2810 oh        1 0R3     -0.616800
     24 C21        -4.6470   -3.5230   -2.4290 c3        1 0R3     -0.091100
     25 C1         -2.8760   -1.3250    0.8700 c3        1 0R3      0.176000
     26 C7         -2.7930   -2.2480    2.0730 ca        1 0R3     -0.108300
     27 C8         -1.7700   -3.2050    2.1000 ca        1 0R3     -0.110000
     28 C9         -1.6250   -4.0610    3.1880 ca        1 0R3     -0.137500
     29 C10        -2.5180   -3.9620    4.2580 ca        1 0R3      0.012400
     30 Cl1        -2.3420   -5.0080    5.5960 cl        1 0R3     -0.132400
     31 C11        -3.5490   -3.0210    4.2400 ca        1 0R3     -0.137500
     32 C12        -3.6890   -2.1650    3.1450 ca        1 0R3     -0.110000
     33 H1         -1.3810   -0.4930   -1.4590 ha        1 0R3      0.168000
     34 H2          2.9320   -0.4610   -0.9680 ha        1 0R3      0.137000
     35 H3          2.6420   -0.1120    1.4840 ha        1 0R3      0.129000
     36 H4          0.3630    0.0560    2.4690 ha        1 0R3      0.140000
     37 H5         -1.9030   -0.0040    2.2970 hc        1 0R3      0.078700
     38 H6         -2.0980    2.0990    1.2200 hc        1 0R3      0.043200
     39 H7         -2.4990    1.3740   -0.3900 hc        1 0R3      0.043200
     40 H8         -4.0160    2.2540    2.9920 hc        1 0R3      0.033700
     41 H9         -3.7360    0.4640    3.0030 hc        1 0R3      0.033700
     42 H11        -4.6600    2.6750   -0.5990 hc        1 0R3      0.049033
     43 H12        -4.0860    3.5090    0.9120 hc        1 0R3      0.049033
     44 H13        -5.7460    2.7590    0.8670 hc        1 0R3      0.049033
     45 H14        -4.2830   -3.1420    0.0540 h1        1 0R3      0.052700
     46 H15        -6.9360   -1.5470   -0.2070 hc        1 0R3      0.047200
     47 H16        -6.6850   -3.3160   -0.5200 hc        1 0R3      0.047200
     48 H17        -5.7950   -3.4620    1.9360 hc        1 0R3      0.050033
     49 H18        -6.4600   -1.7850    2.1600 hc        1 0R3      0.050033
     50 H19        -7.5660   -3.1510    1.7120 hc        1 0R3      0.050033
     51 H20        -5.6900   -1.6160   -2.2070 h1        1 0R3      0.055700
     52 H21        -3.7890   -0.4850   -2.0910 ho        1 0R3      0.408000
     53 H22        -3.6980   -4.0110   -2.1020 hc        1 0R3      0.038033
     54 H23        -4.6400   -3.4530   -3.5420 hc        1 0R3      0.038033
     55 H24        -5.5110   -4.1500   -2.1060 hc        1 0R3      0.038033
     56 H25        -2.3640   -1.8690    0.0080 h1        1 0R3      0.051700
     57 H26        -1.0690   -3.2840    1.2550 ha        1 0R3      0.181500
     58 H27        -0.8170   -4.8060    3.2010 ha        1 0R3      0.143000
     59 H28        -4.2580   -2.9450    5.0780 ha        1 0R3      0.143000
     60 H29        -4.5290   -1.4290    3.1440 ha        1 0R3      0.181500
@<TRIPOS>BOND
     1    1    2 ar  
     2    1    7 ar  
     3    1   33 1   
     4    2    3 1   
     5    2    4 ar  
     6    4    5 ar  
     7    4   34 1   
     8    5    6 ar  
     9    5   35 1   
    10    6    7 ar  
    11    6   36 1   
    12    7    8 1   
    13    8    9 1   
    14    8   25 1   
    15    8   37 1   
    16    9   10 1   
    17    9   38 1   
    18    9   39 1   
    19   10   11 1   
    20   10   15 1   
    21   10   16 1   
    22   11   12 1   
    23   11   40 1   
    24   11   41 1   
    25   12   13 1   
    26   12   14 1   
    27   15   42 1   
    28   15   43 1   
    29   15   44 1   
    30   16   17 2   
    31   16   18 1   
    32   18   19 1   
    33   18   25 1   
    34   19   20 1   
    35   19   22 1   
    36   19   45 1   
    37   20   21 1   
    38   20   46 1   
    39   20   47 1   
    40   21   48 1   
    41   21   49 1   
    42   21   50 1   
    43   22   23 1   
    44   22   24 1   
    45   22   51 1   
    46   23   52 1   
    47   24   53 1   
    48   24   54 1   
    49   24   55 1   
    50   25   26 1   
    51   25   56 1   
    52   26   27 ar  
    53   26   32 ar  
    54   27   28 ar  
    55   27   57 1   
    56   28   29 ar  
    57   28   58 1   
    58   29   30 1   
    59   29   31 ar  
    60   31   32 ar  
    61   31   59 1   
    62   32   60 1   
@<TRIPOS>SUBSTRUCTURE
     1 0R3         1 TEMP              0 ****  ****    0 ROOT
