@<TRIPOS>MOLECULE
0R3
   60    55     1     0     0
SMALL
bcc


@<TRIPOS>ATOM
      1 C17         3.3920   -0.4490   -1.6150 c1        1 0R3     -0.101000
      2 C16         4.7740   -0.5150   -1.5830 c1        1 0R3     -0.064000
      3 CL2         5.7110   -0.0450   -3.0050 cl        1 0R3     -0.039000
      4 C15         5.4270   -0.9420   -0.4250 c1        1 0R3     -0.140000
      5 C14         4.6910   -1.2980    0.6910 c1        1 0R3     -0.133500
      6 C13         3.3040   -1.2310    0.6580 c1        1 0R3     -0.133500
      7 C6          2.6550   -0.8050   -0.4990 c1        1 0R3     -0.040000
      8 C2          1.1090   -0.8410   -0.5820 c3        1 0R3     -0.104000
      9 C3          0.6600   -2.2460   -0.4750 c3        1 0R3     -0.148000
     10 C4         -0.7570   -2.4040   -0.4790 c3        1 0R3     -0.024000
     11 C23        -1.3600   -2.1480   -1.9910 c3        1 0R3     -0.227000
     12 C25        -1.4280   -3.4810   -2.7540 c2        1 0R3      0.329000
     13 O3         -2.4970   -4.1860   -2.7130 o         1 0R3     -0.577000
     14 O2         -0.4640   -3.8300   -3.5100 o         1 0R3     -0.577000
     15 C24        -1.1830   -3.8530   -0.2450 c3        1 0R3     -0.202000
     16 C5         -1.3820   -1.5060    0.5410 c1        1 0R3      0.314000
     17 O1         -2.4770   -1.7880    1.0140 o         1 0R3     -0.424000
     18 N1         -0.9680   -0.1010    0.4550 n2        1 0R3     -0.321000
     19 C18        -1.8740    0.9390    0.8430 c3        1 0R3      0.013000
     20 C19        -2.9840    1.0360   -0.1550 c3        1 0R3     -0.181000
     21 C22        -3.6170    2.4730   -0.0960 c3        1 0R3     -0.207000
     22 C20        -2.4380    0.6270    2.2070 c3        1 0R3      0.029000
     23 O4         -1.6560   -0.3810    2.8120 oh        1 0R3     -0.342000
     24 C21        -2.4010    1.8570    3.0570 c3        1 0R3     -0.214000
     25 C1          0.5100    0.1390    0.5250 c3        1 0R3      0.095000
     26 C7          0.8040    1.4800    0.2090 c2        1 0R3     -0.093000
     27 C8          1.3030    2.3250    1.1720 c2        1 0R3     -0.124000
     28 C9          1.5750    3.6450    0.8610 c1        1 0R3     -0.146000
     29 C10         1.3430    4.1160   -0.4250 c1        1 0R3     -0.063000
     30 CL1         1.8740    5.7090   -0.8680 cl        1 0R3     -0.051000
     31 C11         0.8380    3.2570   -1.3950 c1        1 0R3     -0.126000
     32 C12         0.5710    1.9510   -1.0810 c1        1 0R3     -0.092000
     33 H1          2.9270   -0.1440   -2.4410 ha        1 0R3      0.177000
     34 H2          6.4400   -1.0560   -0.4240 ha        1 0R3      0.132000
     35 H3          5.1690   -1.6110    1.5420 ha        1 0R3      0.132500
     36 H4          2.7750   -1.4860    1.4590 ha        1 0R3      0.132500
     37 H5          0.8480   -0.5100   -1.4440 hc        1 0R3      0.181000
     38 H6          1.0280   -2.7420   -1.2140 hc        1 0R3      0.103000
     39 H7          1.0150   -2.6240    0.3670 hc        1 0R3      0.103000
     40 H8         -2.3060   -1.7520   -1.9160 hc        1 0R3      0.077500
     41 H9         -0.7840   -1.5280   -2.4710 hc        1 0R3      0.077500
     42 H11        -0.6850   -4.4560   -0.8750 hc        1 0R3      0.083667
     43 H12        -0.9850   -4.1010    0.6560 hc        1 0R3      0.083667
     44 H13        -2.1060   -3.9350   -0.3970 hc        1 0R3      0.083667
     45 H14        -1.3850    1.8100    0.8790 h1        1 0R3      0.095000
     46 H15        -3.6610    0.3750    0.0490 hc        1 0R3      0.103500
     47 H16        -2.6160    0.8670   -1.0890 hc        1 0R3      0.103500
     48 H17        -4.0790    2.6520   -0.9120 hc        1 0R3      0.067000
     49 H18        -4.2700    2.5260    0.6800 hc        1 0R3      0.067000
     50 H19        -2.9250    3.1200    0.0260 hc        1 0R3      0.067000
     51 H20        -3.3500    0.3200    2.1200 h1        1 0R3      0.080000
     52 H21        -2.1140   -0.7240    3.5880 ho        1 0R3      0.223000
     53 H22        -1.5860    1.8440    3.6160 hc        1 0R3      0.076667
     54 H23        -2.3910    2.6850    2.4630 hc        1 0R3      0.076667
     55 H24        -3.1700    1.8770    3.6200 hc        1 0R3      0.076667
     56 H25         0.8610   -0.1000    1.4350 h1        1 0R3      0.082000
     57 H26         1.4670    1.9920    2.0800 ha        1 0R3      0.127000
     58 H27         1.9520    4.2510    1.5530 ha        1 0R3      0.132000
     59 H28         0.6680    3.5980   -2.3400 ha        1 0R3      0.151000
     60 H29         0.2060    1.3500   -1.7590 ha        1 0R3      0.216000
@<TRIPOS>BOND
     1    1    7 1   
     2    1   33 1   
     3    2    3 1   
     4    2    4 1   
     5    4   34 1   
     6    5    6 1   
     7    5   35 1   
     8    6   36 1   
     9    7    8 1   
    10    8    9 1   
    11    8   25 1   
    12    8   37 1   
    13    9   10 1   
    14    9   38 1   
    15    9   39 1   
    16   10   11 1   
    17   10   15 1   
    18   10   16 1   
    19   11   12 1   
    20   11   40 1   
    21   11   41 1   
    22   12   13 1   
    23   12   14 1   
    24   15   42 1   
    25   15   43 1   
    26   15   44 1   
    27   16   17 1   
    28   18   19 1   
    29   18   25 1   
    30   19   20 1   
    31   19   22 1   
    32   19   45 1   
    33   20   21 1   
    34   20   46 1   
    35   20   47 1   
    36   21   48 1   
    37   21   49 1   
    38   21   50 1   
    39   22   23 1   
    40   22   24 1   
    41   22   51 1   
    42   23   52 1   
    43   24   53 1   
    44   24   54 1   
    45   24   55 1   
    46   25   26 1   
    47   25   56 1   
    48   26   27 1   
    49   26   32 1   
    50   27   28 1   
    51   27   57 1   
    52   28   58 1   
    53   29   31 1   
    54   31   59 1   
    55   32   60 1   
@<TRIPOS>SUBSTRUCTURE
     1 0R3         1 TEMP              0 ****  ****    0 ROOT
