@<TRIPOS>MOLECULE
0R3
   60    62     1     0     0
SMALL
bcc


@<TRIPOS>ATOM
      1 C17        -0.5120   -0.4020   -0.8290 ca        1 0R3     -0.117000
      2 C16         0.7600   -0.4570   -1.4010 ca        1 0R3      0.015400
      3 CL2         0.9210   -0.7510   -3.0730 cl        1 0R3     -0.118400
      4 C15         1.9080   -0.2740   -0.6240 ca        1 0R3     -0.138000
      5 C14         1.7690   -0.0340    0.7420 ca        1 0R3     -0.130000
      6 C13         0.5040    0.0240    1.3230 ca        1 0R3     -0.125000
      7 C6         -0.6450   -0.1570    0.5440 ca        1 0R3     -0.055300
      8 C2         -2.0010   -0.0520    1.1800 c3        1 0R3     -0.028400
      9 C3         -2.6660    1.2370    0.7210 c3        1 0R3     -0.072400
     10 C4         -4.1460    1.2910    1.0950 c3        1 0R3     -0.080000
     11 C23        -4.3250    1.2540    2.6070 c3        1 0R3     -0.199400
     12 C25        -5.7770    1.0500    3.0830 c         1 0R3      0.915600
     13 O3         -6.5670    2.0310    3.0540 o         1 0R3     -0.838300
     14 O2         -6.0800   -0.0970    3.5320 o         1 0R3     -0.838300
     15 C24        -4.7530    2.5820    0.5580 c3        1 0R3     -0.086100
     16 C5         -4.8120    0.1090    0.3850 c         1 0R3      0.730500
     17 O1         -5.8410    0.2560   -0.3020 o         1 0R3     -0.652500
     18 N1         -4.1950   -1.1410    0.4490 n         1 0R3     -0.458800
     19 C18        -4.7660   -2.2780   -0.2630 c3        1 0R3      0.133700
     20 C19        -6.2400   -2.5630    0.0720 c3        1 0R3     -0.081400
     21 C22        -6.5080   -2.6600    1.5490 c3        1 0R3     -0.113100
     22 C20        -4.6280   -2.1300   -1.8080 c3        1 0R3      0.103100
     23 O4         -3.2300   -2.0620   -2.0890 oh        1 0R3     -0.614800
     24 C21        -5.2380   -3.2990   -2.5600 c3        1 0R3     -0.119100
     25 C1         -2.8330   -1.3390    0.9100 c3        1 0R3      0.174000
     26 C7         -2.7380   -2.2280    2.1390 ca        1 0R3     -0.108300
     27 C8         -1.6790   -3.1450    2.2030 ca        1 0R3     -0.111000
     28 C9         -1.5210   -3.9730    3.3110 ca        1 0R3     -0.138000
     29 C10        -2.4370   -3.8870    4.3640 ca        1 0R3      0.011400
     30 CL1        -2.2460   -4.9000    5.7260 cl        1 0R3     -0.134400
     31 C11        -3.5020   -2.9860    4.3080 ca        1 0R3     -0.138000
     32 C12        -3.6540   -2.1580    3.1940 ca        1 0R3     -0.111000
     33 H1         -1.4140   -0.5630   -1.4470 ha        1 0R3      0.171000
     34 H2          2.9060   -0.3180   -1.0820 ha        1 0R3      0.136000
     35 H3          2.6650    0.1080    1.3630 ha        1 0R3      0.128000
     36 H4          0.4070    0.2130    2.4040 ha        1 0R3      0.140000
     37 H5         -1.8590    0.0220    2.2980 hc        1 0R3      0.076700
     38 H6         -2.5650    1.3420   -0.3920 hc        1 0R3      0.043200
     39 H7         -2.1360    2.1050    1.1920 hc        1 0R3      0.043200
     40 H8         -3.9630    2.2310    3.0200 hc        1 0R3      0.033200
     41 H9         -3.7000    0.4390    3.0490 hc        1 0R3      0.033200
     42 H11        -5.8030    2.6710    0.9430 hc        1 0R3      0.047700
     43 H12        -4.7660    2.5790   -0.5570 hc        1 0R3      0.047700
     44 H13        -4.1590    3.4560    0.9160 hc        1 0R3      0.047700
     45 H14        -4.1700   -3.1930    0.0370 h1        1 0R3      0.055700
     46 H15        -6.5050   -3.5410   -0.4130 hc        1 0R3      0.044700
     47 H16        -6.8880   -1.7640   -0.3770 hc        1 0R3      0.044700
     48 H17        -7.5240   -3.0900    1.7200 hc        1 0R3      0.051700
     49 H18        -5.7550   -3.3170    2.0500 hc        1 0R3      0.051700
     50 H19        -6.4700   -1.6480    2.0380 hc        1 0R3      0.051700
     51 H20        -5.1240   -1.1690   -2.1280 h1        1 0R3      0.065700
     52 H21        -3.1490   -1.8440   -3.0240 ho        1 0R3      0.389000
     53 H22        -6.3510   -3.2300   -2.5440 hc        1 0R3      0.036367
     54 H23        -4.9260   -4.2680   -2.1020 hc        1 0R3      0.036367
     55 H24        -4.8960   -3.2870   -3.6230 hc        1 0R3      0.036367
     56 H25        -2.3060   -1.9020    0.0680 h1        1 0R3      0.063700
     57 H26        -0.9610   -3.2140    1.3720 ha        1 0R3      0.181500
     58 H27        -0.6870   -4.6860    3.3530 ha        1 0R3      0.142500
     59 H28        -4.2280   -2.9180    5.1330 ha        1 0R3      0.142500
     60 H29        -4.5190   -1.4520    3.1670 ha        1 0R3      0.181500
@<TRIPOS>BOND
     1    1    2 ar  
     2    1    7 ar  
     3    1   33 1   
     4    2    3 1   
     5    2    4 ar  
     6    4    5 ar  
     7    4   34 1   
     8    5    6 ar  
     9    5   35 1   
    10    6    7 ar  
    11    6   36 1   
    12    7    8 1   
    13    8    9 1   
    14    8   25 1   
    15    8   37 1   
    16    9   10 1   
    17    9   38 1   
    18    9   39 1   
    19   10   11 1   
    20   10   15 1   
    21   10   16 1   
    22   11   12 1   
    23   11   40 1   
    24   11   41 1   
    25   12   13 1   
    26   12   14 1   
    27   15   42 1   
    28   15   43 1   
    29   15   44 1   
    30   16   17 2   
    31   16   18 1   
    32   18   19 1   
    33   18   25 1   
    34   19   20 1   
    35   19   22 1   
    36   19   45 1   
    37   20   21 1   
    38   20   46 1   
    39   20   47 1   
    40   21   48 1   
    41   21   49 1   
    42   21   50 1   
    43   22   23 1   
    44   22   24 1   
    45   22   51 1   
    46   23   52 1   
    47   24   53 1   
    48   24   54 1   
    49   24   55 1   
    50   25   26 1   
    51   25   56 1   
    52   26   27 ar  
    53   26   32 ar  
    54   27   28 ar  
    55   27   57 1   
    56   28   29 ar  
    57   28   58 1   
    58   29   30 1   
    59   29   31 ar  
    60   31   32 ar  
    61   31   59 1   
    62   32   60 1   
@<TRIPOS>SUBSTRUCTURE
     1 0R3         1 TEMP              0 ****  ****    0 ROOT
