@<TRIPOS>MOLECULE
0R3
   60    62     1     0     0
SMALL
bcc


@<TRIPOS>ATOM
      1 C17        -1.9500    1.9150    1.2900 ca        1 0R3     -0.119000
      2 C16        -3.1920    2.3620    1.7460 ca        1 0R3      0.017400
      3 CL2        -3.4100    2.6990    3.4020 cl        1 0R3     -0.110400
      4 C15        -4.2610    2.5400    0.8630 ca        1 0R3     -0.138000
      5 C14        -4.0760    2.2630   -0.4890 ca        1 0R3     -0.129000
      6 C13        -2.8410    1.8180   -0.9570 ca        1 0R3     -0.124000
      7 C6         -1.7690    1.6410   -0.0730 ca        1 0R3     -0.059300
      8 C2         -0.4370    1.1940   -0.5990 c3        1 0R3     -0.030400
      9 C3          0.5490    2.3490   -0.5040 c3        1 0R3     -0.075400
     10 C4          1.9920    1.9020   -0.7450 c3        1 0R3     -0.079000
     11 C23         2.1580    1.3330   -2.1480 c3        1 0R3     -0.199400
     12 C25         3.4800    0.5790   -2.3920 c         1 0R3      0.915600
     13 O3          4.5440    1.2420   -2.5110 o         1 0R3     -0.836800
     14 O2          3.4070   -0.6810   -2.5150 o         1 0R3     -0.836800
     15 C24         2.9260    3.0950   -0.5830 c3        1 0R3     -0.087100
     16 C5          2.2980    0.8860    0.3570 c         1 0R3      0.723500
     17 O1          3.2760    1.0140    1.1200 o         1 0R3     -0.655500
     18 N1          1.3960   -0.1560    0.5690 n         1 0R3     -0.461800
     19 C18         1.6660   -1.1550    1.5960 c3        1 0R3      0.091700
     20 C19         3.0040   -1.8940    1.4150 c3        1 0R3     -0.082400
     21 C22         3.0910   -2.6490    0.1170 c3        1 0R3     -0.115100
     22 C20         1.6420   -0.5900    3.0520 c3        1 0R3      0.117100
     23 O4          0.7710    0.5280    3.2000 oh        1 0R3     -0.616800
     24 C21         1.1350   -1.6420    4.0220 c3        1 0R3     -0.091100
     25 C1          0.0160   -0.1130    0.1160 c3        1 0R3      0.176000
     26 C7         -0.3620   -1.2870   -0.7690 ca        1 0R3     -0.108300
     27 C8         -1.6230   -1.8710   -0.5850 ca        1 0R3     -0.110000
     28 C9         -2.0390   -2.9320   -1.3840 ca        1 0R3     -0.137500
     29 C10        -1.1810   -3.4180   -2.3750 ca        1 0R3      0.012400
     30 CL1        -1.6880   -4.7170   -3.3600 cl        1 0R3     -0.132400
     31 C11         0.0820   -2.8530   -2.5620 ca        1 0R3     -0.137500
     32 C12         0.4930   -1.7880   -1.7570 ca        1 0R3     -0.110000
     33 H1         -1.1140    1.7680    1.9970 ha        1 0R3      0.168000
     34 H2         -5.2360    2.8930    1.2310 ha        1 0R3      0.137000
     35 H3         -4.9120    2.3970   -1.1920 ha        1 0R3      0.129000
     36 H4         -2.7070    1.6010   -2.0280 ha        1 0R3      0.140000
     37 H5         -0.5570    0.9450   -1.6950 hc        1 0R3      0.078700
     38 H6          0.2740    3.1240   -1.2650 hc        1 0R3      0.043200
     39 H7          0.4800    2.8280    0.5090 hc        1 0R3      0.043200
     40 H8          1.3160    0.6340   -2.3820 hc        1 0R3      0.033700
     41 H9          2.1110    2.1850   -2.8740 hc        1 0R3      0.033700
     42 H11         2.9330    3.4520    0.4740 hc        1 0R3      0.049033
     43 H12         3.9620    2.7790   -0.8760 hc        1 0R3      0.049033
     44 H13         2.5960    3.9260   -1.2490 hc        1 0R3      0.049033
     45 H14         0.8430   -1.9290    1.5180 h1        1 0R3      0.052700
     46 H15         3.8530   -1.1630    1.4800 hc        1 0R3      0.047200
     47 H16         3.0990   -2.6080    2.2770 hc        1 0R3      0.047200
     48 H17         3.9390   -3.3760    0.1580 hc        1 0R3      0.050033
     49 H18         2.1500   -3.2150   -0.0850 hc        1 0R3      0.050033
     50 H19         3.2740   -1.9470   -0.7420 hc        1 0R3      0.050033
     51 H20         2.6890   -0.2730    3.3260 h1        1 0R3      0.055700
     52 H21         1.2040    1.2700    2.7590 ho        1 0R3      0.409000
     53 H22         0.0770   -1.9100    3.7890 hc        1 0R3      0.038033
     54 H23         1.7680   -2.5580    3.9540 hc        1 0R3      0.038033
     55 H24         1.1750   -1.2450    5.0640 hc        1 0R3      0.038033
     56 H25        -0.6140   -0.2040    1.0630 h1        1 0R3      0.051700
     57 H26        -2.2970   -1.4900    0.1970 ha        1 0R3      0.181500
     58 H27        -3.0300   -3.3820   -1.2340 ha        1 0R3      0.143000
     59 H28         0.7630   -3.2370   -3.3370 ha        1 0R3      0.143000
     60 H29         1.5130   -1.3600   -1.9130 ha        1 0R3      0.181500
@<TRIPOS>BOND
     1    1    2 ar  
     2    1    7 ar  
     3    1   33 1   
     4    2    3 1   
     5    2    4 ar  
     6    4    5 ar  
     7    4   34 1   
     8    5    6 ar  
     9    5   35 1   
    10    6    7 ar  
    11    6   36 1   
    12    7    8 1   
    13    8    9 1   
    14    8   25 1   
    15    8   37 1   
    16    9   10 1   
    17    9   38 1   
    18    9   39 1   
    19   10   11 1   
    20   10   15 1   
    21   10   16 1   
    22   11   12 1   
    23   11   40 1   
    24   11   41 1   
    25   12   13 1   
    26   12   14 1   
    27   15   42 1   
    28   15   43 1   
    29   15   44 1   
    30   16   17 2   
    31   16   18 1   
    32   18   19 1   
    33   18   25 1   
    34   19   20 1   
    35   19   22 1   
    36   19   45 1   
    37   20   21 1   
    38   20   46 1   
    39   20   47 1   
    40   21   48 1   
    41   21   49 1   
    42   21   50 1   
    43   22   23 1   
    44   22   24 1   
    45   22   51 1   
    46   23   52 1   
    47   24   53 1   
    48   24   54 1   
    49   24   55 1   
    50   25   26 1   
    51   25   56 1   
    52   26   27 ar  
    53   26   32 ar  
    54   27   28 ar  
    55   27   57 1   
    56   28   29 ar  
    57   28   58 1   
    58   29   30 1   
    59   29   31 ar  
    60   31   32 ar  
    61   31   59 1   
    62   32   60 1   
@<TRIPOS>SUBSTRUCTURE
     1 0R3         1 TEMP              0 ****  ****    0 ROOT
