@<TRIPOS>MOLECULE
0R4
   72    77     1     0     0
SMALL
bcc


@<TRIPOS>ATOM
      1 O1          3.0650   -1.6410   -4.1590 o         1 0R4     -0.401100
      2 C21         3.5220   -0.7320   -3.4900 c         1 0R4      0.568100
      3 C22         4.7960   -0.6640   -2.7260 c3        1 0R4     -0.189100
      4 N5          2.6660    0.5400   -3.4560 n4        1 0R4     -0.560200
      5 C17         1.4850    0.3900   -2.6000 ca        1 0R4     -0.054400
      6 C18         1.3860    1.1380   -1.4130 ca        1 0R4     -0.087000
      7 C19         0.2450    1.0060   -0.6250 ca        1 0R4     -0.104000
      8 C20        -0.7910    0.1520   -1.0060 ca        1 0R4     -0.044000
      9 C16         0.4520   -0.4810   -2.9900 ca        1 0R4     -0.082000
     10 C15        -0.6940   -0.5880   -2.1920 cp        1 0R4     -0.132500
     11 C3         -1.8060   -1.4570   -2.6350 cp        1 0R4      0.486800
     12 C2         -2.1530   -1.4260   -4.0200 ca        1 0R4     -0.237300
     13 C1         -3.1890   -2.2010   -4.5140 ca        1 0R4     -0.009000
     14 N1         -2.4400   -2.2140   -1.7100 nb        1 0R4     -0.645000
     15 C5         -3.4600   -2.9720   -2.1970 ca        1 0R4      0.426800
     16 C4         -3.8810   -3.0070   -3.5950 ca        1 0R4     -0.015900
     17 N2         -4.9460   -3.8970   -3.7380 nc        1 0R4     -0.589100
     18 C6         -5.1930   -4.4030   -2.5050 cd        1 0R4      0.452400
     19 C23        -6.1700   -5.4700   -2.2750 ca        1 0R4     -0.176200
     20 C24        -7.3210   -5.6430   -3.0900 ca        1 0R4      0.485200
     21 N7         -7.6090   -4.7390   -4.2220 n4        1 0R4     -0.813300
     22 N6         -8.2240   -6.6490   -2.9180 nb        1 0R4     -0.638000
     23 C25        -7.9940   -7.5420   -1.9490 ca        1 0R4      0.461200
     24 C26        -6.8600   -7.4810   -1.1060 ca        1 0R4     -0.189300
     25 C27        -5.9550   -6.4410   -1.2760 ca        1 0R4     -0.070000
     26 N3         -4.3170   -3.8750   -1.5140 na        1 0R4     -0.187100
     27 C7         -4.3980   -3.9730   -0.1060 ca        1 0R4      0.024800
     28 C8         -5.6110   -3.7300    0.5740 ca        1 0R4     -0.116000
     29 C9         -5.6500   -3.7520    1.9660 ca        1 0R4     -0.088000
     30 C12        -3.2370   -4.2620    0.6450 ca        1 0R4     -0.116000
     31 C11        -3.2920   -4.2740    2.0360 ca        1 0R4     -0.088000
     32 C10        -4.4910   -4.0070    2.7070 ca        1 0R4     -0.160300
     33 C13        -4.5050   -3.8650    4.1930 c3        1 0R4      0.160100
     34 N4         -4.5770   -5.1750    4.9100 n4        1 0R4     -0.683800
     35 C14        -4.4300   -5.0300    6.4300 c         1 0R4      0.578700
     36 O2         -3.9670   -3.9650    6.8060 o         1 0R4     -0.414100
     37 C28        -4.8720   -6.1710    7.2270 ca        1 0R4     -0.188600
     38 C33        -5.0930   -7.4470    6.6840 ca        1 0R4     -0.161000
     39 C29        -5.0490   -5.9450    8.6020 ca        1 0R4     -0.041000
     40 C30        -5.4590   -6.9920    9.4320 ca        1 0R4     -0.096000
     41 C31        -5.6900   -8.2590    8.9140 ca        1 0R4     -0.073000
     42 C32        -5.5030   -8.4880    7.5290 ca        1 0R4      0.152900
     43 F1         -5.7180   -9.7170    7.0130 f         1 0R4     -0.101900
     44 H1          4.6210   -0.3690   -1.6610 hc        1 0R4      0.122033
     45 H2          5.2780   -1.6800   -2.7460 hc        1 0R4      0.122033
     46 H3          5.5010    0.0680   -3.2020 hc        1 0R4      0.122033
     47 H4          3.2340    1.3260   -3.1180 hn        1 0R4      0.467300
     48 H5          2.1830    1.8320   -1.0960 ha        1 0R4      0.167000
     49 H6          0.1600    1.5930    0.3070 ha        1 0R4      0.181000
     50 H7         -1.6910    0.0700   -0.3720 ha        1 0R4      0.175000
     51 H8          0.5420   -1.0880   -3.9090 ha        1 0R4      0.172000
     52 H9         -1.5940   -0.7630   -4.6980 ha        1 0R4      0.166000
     53 H10        -3.4620   -2.1900   -5.5820 ha        1 0R4      0.181000
     54 H11        -7.5290   -3.7630   -3.9150 hn        1 0R4      0.483133
     55 H12        -6.9250   -4.9190   -4.9720 hn        1 0R4      0.483133
     56 H13        -8.7520   -8.3490   -1.8540 h4        1 0R4      0.085100
     57 H14        -6.7020   -8.2610   -0.3430 ha        1 0R4      0.188000
     58 H15        -5.0550   -6.3830   -0.6410 ha        1 0R4      0.171000
     59 H16        -6.5320   -3.4960    0.0160 ha        1 0R4      0.169000
     60 H17        -6.6020   -3.5290    2.4780 ha        1 0R4      0.158500
     61 H18        -2.2730   -4.4490    0.1390 ha        1 0R4      0.169000
     62 H19        -2.3680   -4.4700    2.6050 ha        1 0R4      0.158500
     63 H20        -3.5660   -3.3370    4.5400 hx        1 0R4      0.126700
     64 H21        -5.3890   -3.2470    4.5300 hx        1 0R4      0.126700
     65 H22        -5.4750   -5.6290    4.7140 hn        1 0R4      0.454800
     66 H23        -4.9340   -7.6820    5.6230 ha        1 0R4      0.133000
     67 H24        -4.8610   -4.9430    9.0280 ha        1 0R4      0.180000
     68 H25        -5.5960   -6.8060   10.5130 ha        1 0R4      0.189000
     69 H26        -6.0110   -9.0940    9.5630 ha        1 0R4      0.196000
     70 H52         2.3450    0.7500   -4.4110 hn        1 0R4      0.467300
     71 H73        -8.5590   -4.9050   -4.5900 hn        1 0R4      0.483133
     72 H42        -3.8290   -5.7900    4.5740 hn        1 0R4      0.454800
@<TRIPOS>BOND
     1    1    2 2   
     2    2    3 1   
     3    2    4 1   
     4    3   44 1   
     5    3   45 1   
     6    3   46 1   
     7    4    5 1   
     8    4   47 1   
     9    4   70 1   
    10    5    6 ar  
    11    5    9 ar  
    12    6    7 ar  
    13    6   48 1   
    14    7    8 ar  
    15    7   49 1   
    16    8   10 ar  
    17    8   50 1   
    18    9   10 ar  
    19    9   51 1   
    20   10   11 1   
    21   11   12 ar  
    22   11   14 ar  
    23   12   13 ar  
    24   12   52 1   
    25   13   16 ar  
    26   13   53 1   
    27   14   15 ar  
    28   15   16 ar  
    29   15   26 1   
    30   16   17 1   
    31   17   18 2   
    32   18   19 1   
    33   18   26 1   
    34   19   20 ar  
    35   19   25 ar  
    36   20   21 1   
    37   20   22 ar  
    38   21   54 1   
    39   21   55 1   
    40   21   71 1   
    41   22   23 ar  
    42   23   24 ar  
    43   23   56 1   
    44   24   25 ar  
    45   24   57 1   
    46   25   58 1   
    47   26   27 1   
    48   27   28 ar  
    49   27   30 ar  
    50   28   29 ar  
    51   28   59 1   
    52   29   32 ar  
    53   29   60 1   
    54   30   31 ar  
    55   30   61 1   
    56   31   32 ar  
    57   31   62 1   
    58   32   33 1   
    59   33   34 1   
    60   33   63 1   
    61   33   64 1   
    62   34   35 1   
    63   34   65 1   
    64   34   72 1   
    65   35   36 2   
    66   35   37 1   
    67   37   38 ar  
    68   37   39 ar  
    69   38   42 ar  
    70   38   66 1   
    71   39   40 ar  
    72   39   67 1   
    73   40   41 ar  
    74   40   68 1   
    75   41   42 ar  
    76   41   69 1   
    77   42   43 1   
@<TRIPOS>SUBSTRUCTURE
     1 0R4         1 TEMP              0 ****  ****    0 ROOT
