@<TRIPOS>MOLECULE
0R4
   70    75     1     0     0
SMALL
bcc


@<TRIPOS>ATOM
      1 O1          1.1910   -2.2880    0.1040 o         1 0R4     -0.612100
      2 C21         2.2240   -1.6340   -0.1380 c         1 0R4      0.671100
      3 C22         3.4710   -1.8140    0.6980 c3        1 0R4     -0.179100
      4 N5          2.3150   -0.7130   -1.1720 n         1 0R4     -0.472100
      5 C17         1.3080   -0.3470   -2.0800 ca        1 0R4      0.060600
      6 C18         1.4590    0.8570   -2.8100 ca        1 0R4     -0.163000
      7 C19         0.4920    1.2420   -3.7320 ca        1 0R4     -0.104000
      8 C20        -0.6350    0.4550   -3.9560 ca        1 0R4     -0.133000
      9 C16         0.1680   -1.1440   -2.3120 ca        1 0R4     -0.115000
     10 C15        -0.7910   -0.7420   -3.2480 cp        1 0R4     -0.134500
     11 C3         -1.9770   -1.5860   -3.4980 cp        1 0R4      0.493800
     12 C2         -2.4350   -1.7350   -4.8400 ca        1 0R4     -0.247300
     13 C1         -3.5390   -2.5210   -5.1370 ca        1 0R4     -0.027000
     14 N1         -2.5650   -2.1840   -2.4350 nb        1 0R4     -0.659000
     15 C5         -3.6350   -2.9600   -2.7330 ca        1 0R4      0.412800
     16 C4         -4.1810   -3.1630   -4.0700 ca        1 0R4     -0.033900
     17 N2         -5.2930   -4.0220   -4.0040 nc        1 0R4     -0.529100
     18 C6         -5.4440   -4.3390   -2.7070 cd        1 0R4      0.499400
     19 C23        -6.4430   -5.2770   -2.1920 ca        1 0R4     -0.323200
     20 C24        -7.8350   -4.9340   -2.1620 ca        1 0R4      0.676200
     21 N7         -8.2470   -3.6420   -2.4770 nh        1 0R4     -0.929500
     22 N6         -8.7760   -5.8470   -1.7330 nb        1 0R4     -0.722000
     23 C25        -8.3520   -7.0550   -1.3530 ca        1 0R4      0.460200
     24 C26        -7.0050   -7.4680   -1.3610 ca        1 0R4     -0.309300
     25 C27        -6.0470   -6.5600   -1.7970 ca        1 0R4     -0.025000
     26 N3         -4.4550   -3.7280   -1.8630 na        1 0R4     -0.219100
     27 C7         -4.3920   -3.6970   -0.4650 ca        1 0R4      0.090800
     28 C8         -5.5720   -3.6950    0.3180 ca        1 0R4     -0.133000
     29 C9         -5.4960   -3.6430    1.7030 ca        1 0R4     -0.084000
     30 C12        -3.1390   -3.6490    0.1950 ca        1 0R4     -0.133000
     31 C11        -3.0820   -3.5810    1.5800 ca        1 0R4     -0.084000
     32 C10        -4.2540   -3.5810    2.3450 ca        1 0R4     -0.221300
     33 C13        -4.1770   -3.4590    3.8220 c3        1 0R4      0.186100
     34 N4         -3.9250   -4.8070    4.4450 n4        1 0R4     -0.679800
     35 C14        -3.8000   -4.7610    5.9510 c         1 0R4      0.564700
     36 O2         -3.5300   -3.6720    6.4410 o         1 0R4     -0.418100
     37 C28        -4.0370   -6.0230    6.6600 ca        1 0R4     -0.177600
     38 C33        -3.9200   -7.2740    6.0380 ca        1 0R4     -0.151000
     39 C29        -4.3670   -5.9340    8.0210 ca        1 0R4     -0.056000
     40 C30        -4.5970   -7.0970    8.7580 ca        1 0R4     -0.101000
     41 C31        -4.4940   -8.3470    8.1600 ca        1 0R4     -0.092000
     42 C32        -4.1500   -8.4360    6.7920 ca        1 0R4      0.146900
     43 F1         -4.0390   -9.6450    6.2010 f         1 0R4     -0.107900
     44 H1          4.3220   -2.1630    0.0640 hc        1 0R4      0.071033
     45 H2          3.7550   -0.8550    1.1950 hc        1 0R4      0.071033
     46 H3          3.2670   -2.5820    1.4820 hc        1 0R4      0.071033
     47 H4          3.1630   -0.1950   -1.2430 hn        1 0R4      0.320500
     48 H5          2.3400    1.4990   -2.6570 ha        1 0R4      0.137000
     49 H6          0.6190    2.1840   -4.2880 ha        1 0R4      0.143000
     50 H7         -1.3980    0.7790   -4.6780 ha        1 0R4      0.141000
     51 H8          0.0270   -2.0840   -1.7520 ha        1 0R4      0.175000
     52 H9         -1.8890   -1.2240   -5.6470 ha        1 0R4      0.160000
     53 H10        -3.8990   -2.6450   -6.1700 ha        1 0R4      0.165000
     54 H11        -7.6810   -3.1640   -3.1420 hn        1 0R4      0.426300
     55 H12        -9.2280   -3.5030   -2.5930 hn        1 0R4      0.426300
     56 H13        -9.1520   -7.7490   -1.0300 h4        1 0R4      0.032100
     57 H14        -6.7320   -8.4860   -1.0550 ha        1 0R4      0.152000
     58 H15        -4.9850   -6.8450   -1.8470 ha        1 0R4      0.146000
     59 H16        -6.5620   -3.7220   -0.1700 ha        1 0R4      0.183000
     60 H17        -6.4280   -3.6230    2.2900 ha        1 0R4      0.143000
     61 H18        -2.1940   -3.6430   -0.3770 ha        1 0R4      0.183000
     62 H19        -2.0970   -3.5060    2.0690 ha        1 0R4      0.143000
     63 H20        -5.1370   -3.0610    4.2590 hx        1 0R4      0.114200
     64 H21        -3.3320   -2.7780    4.1350 hx        1 0R4      0.114200
     65 H22        -4.6890   -5.4430    4.1910 hn        1 0R4      0.458300
     66 H23        -3.6280   -7.3920    4.9840 ha        1 0R4      0.145000
     67 H24        -4.4400   -4.9450    8.5070 ha        1 0R4      0.174000
     68 H25        -4.8580   -7.0200    9.8270 ha        1 0R4      0.176000
     69 H26        -4.6720   -9.2710    8.7350 ha        1 0R4      0.183000
     70 H42        -3.0550   -5.1890    4.0540 hn        1 0R4      0.458300
@<TRIPOS>BOND
     1    1    2 2   
     2    2    3 1   
     3    2    4 1   
     4    3   44 1   
     5    3   45 1   
     6    3   46 1   
     7    4    5 1   
     8    4   47 1   
     9    5    6 ar  
    10    5    9 ar  
    11    6    7 ar  
    12    6   48 1   
    13    7    8 ar  
    14    7   49 1   
    15    8   10 ar  
    16    8   50 1   
    17    9   10 ar  
    18    9   51 1   
    19   10   11 1   
    20   11   12 ar  
    21   11   14 ar  
    22   12   13 ar  
    23   12   52 1   
    24   13   16 ar  
    25   13   53 1   
    26   14   15 ar  
    27   15   16 ar  
    28   15   26 1   
    29   16   17 1   
    30   17   18 2   
    31   18   19 1   
    32   18   26 1   
    33   19   20 ar  
    34   19   25 ar  
    35   20   21 1   
    36   20   22 ar  
    37   21   54 1   
    38   21   55 1   
    39   22   23 ar  
    40   23   24 ar  
    41   23   56 1   
    42   24   25 ar  
    43   24   57 1   
    44   25   58 1   
    45   26   27 1   
    46   27   28 ar  
    47   27   30 ar  
    48   28   29 ar  
    49   28   59 1   
    50   29   32 ar  
    51   29   60 1   
    52   30   31 ar  
    53   30   61 1   
    54   31   32 ar  
    55   31   62 1   
    56   32   33 1   
    57   33   34 1   
    58   33   63 1   
    59   33   64 1   
    60   34   35 1   
    61   34   65 1   
    62   34   70 1   
    63   35   36 2   
    64   35   37 1   
    65   37   38 ar  
    66   37   39 ar  
    67   38   42 ar  
    68   38   66 1   
    69   39   40 ar  
    70   39   67 1   
    71   40   41 ar  
    72   40   68 1   
    73   41   42 ar  
    74   41   69 1   
    75   42   43 1   
@<TRIPOS>SUBSTRUCTURE
     1 0R4         1 TEMP              0 ****  ****    0 ROOT
