@<TRIPOS>MOLECULE
0R4
   70    75     1     0     0
SMALL
bcc


@<TRIPOS>ATOM
      1 O1          1.1660   -2.3080    0.1200 o         1 0R4     -0.612100
      2 C21         2.2040   -1.6610   -0.1210 c         1 0R4      0.671100
      3 C22         3.4480   -1.8470    0.7200 c3        1 0R4     -0.179100
      4 N5          2.3050   -0.7460   -1.1580 ns        1 0R4     -0.472100
      5 C17         1.3030   -0.3770   -2.0720 ca        1 0R4      0.060600
      6 C18         1.4640    0.8230   -2.8060 ca        1 0R4     -0.163000
      7 C19         0.5030    1.2100   -3.7330 ca        1 0R4     -0.104000
      8 C20        -0.6270    0.4290   -3.9580 ca        1 0R4     -0.133000
      9 C16         0.1590   -1.1690   -2.3060 ca        1 0R4     -0.115000
     10 C15        -0.7940   -0.7640   -3.2470 cp        1 0R4     -0.134500
     11 C3         -1.9830   -1.6030   -3.4990 cp        1 0R4      0.493800
     12 C2         -2.4360   -1.7540   -4.8420 ca        1 0R4     -0.247300
     13 C1         -3.5440   -2.5350   -5.1410 ca        1 0R4     -0.027000
     14 N1         -2.5790   -2.1940   -2.4360 nb        1 0R4     -0.659000
     15 C5         -3.6510   -2.9650   -2.7350 ca        1 0R4      0.412800
     16 C4         -4.1930   -3.1690   -4.0740 ca        1 0R4     -0.033900
     17 N2         -5.3100   -4.0220   -4.0100 nc        1 0R4     -0.529100
     18 C6         -5.4680   -4.3350   -2.7120 cd        1 0R4      0.499400
     19 C23        -6.4740   -5.2650   -2.1970 ca        1 0R4     -0.323200
     20 C24        -7.8640   -4.9140   -2.1740 ca        1 0R4      0.676200
     21 N7         -8.2680   -3.6210   -2.4950 nv        1 0R4     -0.929500
     22 N6         -8.8120   -5.8210   -1.7460 nb        1 0R4     -0.722000
     23 C25        -8.3960   -7.0290   -1.3600 ca        1 0R4      0.460200
     24 C26        -7.0510   -7.4510   -1.3610 ca        1 0R4     -0.309300
     25 C27        -6.0870   -6.5490   -1.7970 ca        1 0R4     -0.025000
     26 N3         -4.4790   -3.7260   -1.8660 na        1 0R4     -0.219100
     27 C7         -4.4210   -3.6900   -0.4680 ca        1 0R4      0.090800
     28 C8         -5.6040   -3.6810    0.3100 ca        1 0R4     -0.133000
     29 C9         -5.5320   -3.6250    1.6960 ca        1 0R4     -0.084000
     30 C12        -3.1700   -3.6450    0.1960 ca        1 0R4     -0.133000
     31 C11        -3.1170   -3.5720    1.5810 ca        1 0R4     -0.084000
     32 C10        -4.2930   -3.5640    2.3420 ca        1 0R4     -0.220300
     33 C13        -4.2200   -3.4370    3.8200 c3        1 0R4      0.186100
     34 N4         -3.9490   -4.7790    4.4460 ny        1 0R4     -0.679800
     35 C14        -3.8270   -4.7290    5.9520 c         1 0R4      0.564700
     36 O2         -3.6190   -3.6280    6.4440 o         1 0R4     -0.418100
     37 C28        -3.9930   -6.0030    6.6600 ca        1 0R4     -0.178600
     38 C33        -3.8310   -7.2460    6.0310 ca        1 0R4     -0.151000
     39 C29        -4.3040   -5.9330    8.0260 ca        1 0R4     -0.055000
     40 C30        -4.4670   -7.1080    8.7630 ca        1 0R4     -0.101000
     41 C31        -4.3190   -8.3500    8.1590 ca        1 0R4     -0.092000
     42 C32        -3.9950   -8.4190    6.7850 ca        1 0R4      0.146900
     43 F1         -3.8400   -9.6210    6.1880 f         1 0R4     -0.107900
     44 H1          3.2350   -2.6090    1.5080 hc        1 0R4      0.071033
     45 H2          4.2970   -2.2060    0.0890 hc        1 0R4      0.071033
     46 H3          3.7370   -0.8870    1.2120 hc        1 0R4      0.071033
     47 H4          3.1570   -0.2340   -1.2290 hn        1 0R4      0.320500
     48 H5          2.3480    1.4600   -2.6510 ha        1 0R4      0.137000
     49 H6          0.6380    2.1490   -4.2920 ha        1 0R4      0.143000
     50 H7         -1.3860    0.7550   -4.6850 ha        1 0R4      0.141000
     51 H8          0.0110   -2.1050   -1.7420 ha        1 0R4      0.175000
     52 H9         -1.8850   -1.2480   -5.6480 ha        1 0R4      0.159000
     53 H10        -3.9010   -2.6600   -6.1740 ha        1 0R4      0.165000
     54 H11        -9.2470   -3.4780   -2.6160 hn        1 0R4      0.426300
     55 H12        -7.6960   -3.1490   -3.1600 hn        1 0R4      0.426300
     56 H13        -9.2020   -7.7180   -1.0380 h4        1 0R4      0.032100
     57 H14        -6.7850   -8.4680   -1.0510 ha        1 0R4      0.152000
     58 H15        -5.0260   -6.8400   -1.8410 ha        1 0R4      0.146000
     59 H16        -6.5920   -3.7060   -0.1810 ha        1 0R4      0.183000
     60 H17        -6.4660   -3.5990    2.2800 ha        1 0R4      0.143000
     61 H18        -2.2230   -3.6450   -0.3720 ha        1 0R4      0.183000
     62 H19        -2.1340   -3.4980    2.0740 ha        1 0R4      0.143000
     63 H20        -3.3850   -2.7430    4.1310 hx        1 0R4      0.114200
     64 H21        -5.1860   -3.0500    4.2540 hx        1 0R4      0.114200
     65 H22        -3.0740   -5.1510    4.0570 hn        1 0R4      0.458300
     66 H23        -3.5550   -7.3480    4.9720 ha        1 0R4      0.145000
     67 H24        -4.4130   -4.9500    8.5170 ha        1 0R4      0.175000
     68 H25        -4.7130   -7.0460    9.8370 ha        1 0R4      0.176000
     69 H26        -4.4440   -9.2830    8.7340 ha        1 0R4      0.183000
     70 H42        -4.7040   -5.4260    4.1930 hn        1 0R4      0.458300
@<TRIPOS>BOND
     1    1    2 2   
     2    2    3 1   
     3    2    4 1   
     4    3   44 1   
     5    3   45 1   
     6    3   46 1   
     7    4    5 1   
     8    4   47 1   
     9    5    6 ar  
    10    5    9 ar  
    11    6    7 ar  
    12    6   48 1   
    13    7    8 ar  
    14    7   49 1   
    15    8   10 ar  
    16    8   50 1   
    17    9   10 ar  
    18    9   51 1   
    19   10   11 1   
    20   11   12 ar  
    21   11   14 ar  
    22   12   13 ar  
    23   12   52 1   
    24   13   16 ar  
    25   13   53 1   
    26   14   15 ar  
    27   15   16 ar  
    28   15   26 1   
    29   16   17 1   
    30   17   18 2   
    31   18   19 1   
    32   18   26 1   
    33   19   20 ar  
    34   19   25 ar  
    35   20   21 1   
    36   20   22 ar  
    37   21   54 1   
    38   21   55 1   
    39   22   23 ar  
    40   23   24 ar  
    41   23   56 1   
    42   24   25 ar  
    43   24   57 1   
    44   25   58 1   
    45   26   27 1   
    46   27   28 ar  
    47   27   30 ar  
    48   28   29 ar  
    49   28   59 1   
    50   29   32 ar  
    51   29   60 1   
    52   30   31 ar  
    53   30   61 1   
    54   31   32 ar  
    55   31   62 1   
    56   32   33 1   
    57   33   34 1   
    58   33   63 1   
    59   33   64 1   
    60   34   35 1   
    61   34   65 1   
    62   34   70 1   
    63   35   36 2   
    64   35   37 1   
    65   37   38 ar  
    66   37   39 ar  
    67   38   42 ar  
    68   38   66 1   
    69   39   40 ar  
    70   39   67 1   
    71   40   41 ar  
    72   40   68 1   
    73   41   42 ar  
    74   41   69 1   
    75   42   43 1   
@<TRIPOS>SUBSTRUCTURE
     1 0R4         1 TEMP              0 ****  ****    0 ROOT
