@<TRIPOS>MOLECULE
0R4
   69    54     1     0     0
SMALL
bcc


@<TRIPOS>ATOM
      1 O1          5.1010    6.7500   -2.3530 o         1 0R4     -0.348000
      2 C21         4.0530    7.2830   -2.6650 c1        1 0R4      0.310000
      3 C22         3.8840    8.7800   -2.4930 c3        1 0R4     -0.247000
      4 N5          2.9490    6.4820   -3.1410 n2        1 0R4     -0.330000
      5 C17         3.0900    5.0640   -3.2430 c1        1 0R4      0.075000
      6 C18         4.3370    4.4810   -3.1020 c1        1 0R4     -0.145000
      7 C19         4.4720    3.1000   -3.1860 c1        1 0R4     -0.120800
      8 C20         3.3560    2.3050   -3.4120 c1        1 0R4     -0.120800
      9 C16         1.9730    4.2680   -3.4690 c1        1 0R4     -0.103000
     10 C15         2.1080    2.8880   -3.5530 c1        1 0R4     -0.038333
     11 C3          0.8760    2.0110   -3.7730 c1        1 0R4      0.040000
     12 C2          0.0760    1.9550   -4.9070 c1        1 0R4     -0.120800
     13 C1         -1.0570    1.1850   -4.9070 c1        1 0R4     -0.120800
     14 N1          0.5320    1.2980   -2.6570 n1        1 0R4     -0.118000
     15 C5         -0.6180    0.5160   -2.6560 c1        1 0R4     -0.045500
     16 C4         -1.4050    0.4600   -3.7710 c1        1 0R4     -0.045500
     17 N2         -2.4680   -0.3470   -3.4950 n1        1 0R4     -0.136000
     18 C6         -2.3400   -0.7900   -2.2130 c1        1 0R4      0.089000
     19 C23        -3.4570   -1.7680   -1.8090 c1        1 0R4     -0.038333
     20 C24        -4.7310   -1.2910   -1.5390 c1        1 0R4      0.160000
     21 N7         -5.0140    0.0730   -1.6880 n3        1 0R4     -0.330000
     22 N6         -5.6970   -2.1420   -1.0920 n1        1 0R4     -0.205000
     23 C25        -5.4140   -3.4610   -0.9100 c1        1 0R4     -0.120800
     24 C26        -4.1430   -3.9410   -1.1780 c1        1 0R4     -0.120800
     25 C27        -3.1720   -3.0880   -1.6270 c1        1 0R4     -0.103000
     26 N3         -1.1970   -0.2570   -1.6940 n1        1 0R4     -0.136000
     27 C7         -0.7770   -0.4880   -0.3520 c1        1 0R4     -0.038333
     28 C8         -1.2690    0.3010    0.6710 c1        1 0R4     -0.120800
     29 C9         -0.8670    0.0710    1.9790 c1        1 0R4     -0.120800
     30 C12         0.1180   -1.5090   -0.0710 c1        1 0R4     -0.103000
     31 C11         0.5200   -1.7390    1.2360 c1        1 0R4     -0.113000
     32 C10         0.0280   -0.9500    2.2600 c1        1 0R4     -0.118000
     33 C13         0.5480   -1.1350    3.6780 c3        1 0R4      0.006000
     34 N4          0.0140   -2.3610    4.2320 n         1 0R4     -0.362000
     35 C14         0.1940   -2.6590    5.6310 c2        1 0R4      0.338000
     36 O2          0.3550   -1.7560    6.4290 o         1 0R4     -0.358000
     37 C28         0.1140   -4.1000    6.1190 c2        1 0R4     -0.098000
     38 C33         1.2210   -4.9290    6.0080 c2        1 0R4     -0.141000
     39 C29        -1.0910   -4.6120    6.5700 c1        1 0R4     -0.094000
     40 C30        -1.1910   -5.9530    6.9110 c1        1 0R4     -0.120800
     41 C31        -0.0830   -6.7810    6.8000 c1        1 0R4     -0.120800
     42 C32         1.1210   -6.2700    6.3490 c1        1 0R4      0.082000
     43 F1          2.1830   -7.0760    6.2190 f         1 0R4     -0.103000
     44 H1          4.4990    9.1020   -1.7930 hc        1 0R4      0.108333
     45 H2          4.0870    9.2320   -3.3410 hc        1 0R4      0.108333
     46 H3          2.9610    8.9760   -2.2330 hc        1 0R4      0.108333
     47 H4          2.1650    6.8810   -3.3790 hn        1 0R4      0.228000
     48 H5          5.1190    5.0370   -2.9440 ha        1 0R4      0.175000
     49 H6          5.3510    2.6900   -3.0870 ha        1 0R4      0.150600
     50 H7          3.4510    1.3430   -3.4710 ha        1 0R4      0.150600
     51 H8          1.0930    4.6790   -3.5680 ha        1 0R4      0.144667
     52 H9          0.3590    2.4060   -5.7260 ha        1 0R4      0.150600
     53 H10        -1.6220    1.1450   -5.7070 ha        1 0R4      0.150600
     54 H11        -5.8460    0.3910   -1.4840 hn        1 0R4      0.219500
     55 H12        -4.3660    0.6430   -1.9650 hn        1 0R4      0.219500
     56 H13        -6.1080   -4.0700   -0.5890 ha        1 0R4      0.150600
     57 H14        -3.9410   -4.8840   -1.0480 ha        1 0R4      0.150600
     58 H15        -2.2770   -3.4250   -1.8160 ha        1 0R4      0.144667
     59 H16        -1.8980    1.0180    0.4750 ha        1 0R4      0.150600
     60 H17        -1.2130    0.6260    2.7000 ha        1 0R4      0.150600
     61 H18         0.4640   -2.0630   -0.7900 ha        1 0R4      0.144667
     62 H19         1.1480   -2.4560    1.4330 ha        1 0R4      0.136000
     63 H20         0.2640   -0.3770    4.2310 h1        1 0R4      0.112500
     64 H21         1.5270   -1.1820    3.6640 h1        1 0R4      0.112500
     65 H22        -0.4620   -2.9390    3.6960 hn        1 0R4      0.221000
     66 H23         2.0680   -4.5700    5.6900 ha        1 0R4      0.155000
     67 H24        -1.8670   -4.0310    6.6480 ha        1 0R4      0.160000
     68 H25        -2.0390   -6.3120    7.2290 ha        1 0R4      0.150600
     69 H26        -0.1530   -7.7260    7.0400 ha        1 0R4      0.150600
@<TRIPOS>BOND
     1    1    2 1   
     2    2    3 1   
     3    3   44 1   
     4    3   45 1   
     5    3   46 1   
     6    4    5 1   
     7    4   47 1   
     8    5    6 1   
     9    6   48 1   
    10    7    8 1   
    11    7   49 1   
    12    8   50 1   
    13    9   10 1   
    14    9   51 1   
    15   11   14 1   
    16   12   13 1   
    17   12   52 1   
    18   13   53 1   
    19   15   16 1   
    20   17   18 1   
    21   18   26 1   
    22   19   25 1   
    23   20   21 1   
    24   20   22 1   
    25   21   54 1   
    26   21   55 1   
    27   23   24 1   
    28   23   56 1   
    29   24   57 1   
    30   25   58 1   
    31   27   30 1   
    32   28   29 1   
    33   28   59 1   
    34   29   60 1   
    35   30   61 1   
    36   31   32 1   
    37   31   62 1   
    38   32   33 1   
    39   33   34 1   
    40   33   63 1   
    41   33   64 1   
    42   34   35 1   
    43   34   65 1   
    44   35   36 1   
    45   35   37 1   
    46   37   38 1   
    47   37   39 1   
    48   38   42 1   
    49   38   66 1   
    50   39   67 1   
    51   40   41 1   
    52   40   68 1   
    53   41   69 1   
    54   42   43 1   
@<TRIPOS>SUBSTRUCTURE
     1 0R4         1 TEMP              0 ****  ****    0 ROOT
