@<TRIPOS>MOLECULE
0R4
   69    74     1     0     0
SMALL
bcc


@<TRIPOS>ATOM
      1 O1         -3.6350    3.8250   -2.0960 o         1 0R4     -0.585100
      2 C21        -4.4380    4.6610   -1.6460 c         1 0R4      0.666100
      3 C22        -4.3090    6.1280   -1.9910 c3        1 0R4     -0.179100
      4 N5         -5.4930    4.3280   -0.8060 n         1 0R4     -0.476100
      5 C17        -5.8470    3.0540   -0.3330 ca        1 0R4      0.066600
      6 C18        -7.0720    2.9130    0.3640 ca        1 0R4     -0.178000
      7 C19        -7.4560    1.6740    0.8630 ca        1 0R4     -0.107000
      8 C20        -6.6530    0.5520    0.6830 ca        1 0R4     -0.142000
      9 C16        -5.0310    1.9150   -0.5090 ca        1 0R4     -0.119000
     10 C15        -5.4410    0.6770   -0.0070 cp        1 0R4     -0.121500
     11 C3         -4.5980   -0.5200   -0.2070 cp        1 0R4      0.477800
     12 C2         -5.2410   -1.7220   -0.6270 ca        1 0R4     -0.255300
     13 C1         -4.5150   -2.8830   -0.8400 ca        1 0R4     -0.039000
     14 N1         -3.2690   -0.4110    0.0130 nb        1 0R4     -0.640000
     15 C5         -2.5610   -1.5520   -0.1970 ca        1 0R4      0.410800
     16 C4         -3.1320   -2.8290   -0.6220 ca        1 0R4     -0.035900
     17 N2         -2.1150   -3.7870   -0.7410 nc        1 0R4     -0.563100
     18 C6         -0.9700   -3.1520   -0.4070 cd        1 0R4      0.496400
     19 C23         0.3600   -3.7620   -0.4500 ca        1 0R4     -0.306200
     20 C24         0.7140   -4.8310    0.4390 ca        1 0R4      0.676200
     21 N7         -0.1450   -5.2060    1.4690 nh        1 0R4     -0.931500
     22 N6          1.9440   -5.4470    0.3480 nb        1 0R4     -0.732000
     23 C25         2.8010   -5.0030   -0.5780 ca        1 0R4      0.454200
     24 C26         2.5320   -3.9550   -1.4780 ca        1 0R4     -0.306300
     25 C27         1.2870   -3.3380   -1.4070 ca        1 0R4     -0.021000
     26 N3         -1.1720   -1.7820   -0.0680 na        1 0R4     -0.192100
     27 C7         -0.2290   -0.8670    0.4440 ca        1 0R4      0.013800
     28 C8          0.7030   -1.2740    1.4240 ca        1 0R4     -0.121500
     29 C9          1.6270   -0.3630    1.9230 ca        1 0R4     -0.111000
     30 C12        -0.2130    0.4690   -0.0090 ca        1 0R4     -0.121500
     31 C11         0.7180    1.3660    0.5070 ca        1 0R4     -0.111000
     32 C10         1.6420    0.9600    1.4720 ca        1 0R4     -0.121300
     33 C13         2.6310    1.9380    2.0410 c3        1 0R4      0.127300
     34 N4          3.9970    1.6660    1.6780 n         1 0R4     -0.554900
     35 C14         4.7160    2.5040    0.8450 c         1 0R4      0.666700
     36 O2          4.2980    3.6390    0.5400 o         1 0R4     -0.596100
     37 C28         6.0580    2.0250    0.3930 ca        1 0R4     -0.113600
     38 C33         6.2490    0.7140   -0.0460 ca        1 0R4     -0.146000
     39 C29         7.1190    2.9370    0.3890 ca        1 0R4     -0.093000
     40 C30         8.3820    2.5320   -0.0390 ca        1 0R4     -0.112000
     41 C31         8.5990    1.2280   -0.4740 ca        1 0R4     -0.146000
     42 C32         7.5260    0.3170   -0.4820 ca        1 0R4      0.117900
     43 F1          7.7230   -0.9530   -0.9120 f         1 0R4     -0.138900
     44 H1         -5.2250    6.4910   -2.5170 hc        1 0R4      0.069033
     45 H2         -4.1500    6.7370   -1.0680 hc        1 0R4      0.069033
     46 H3         -3.4290    6.2570   -2.6670 hc        1 0R4      0.069033
     47 H4         -6.0980    5.0680   -0.5280 hn        1 0R4      0.314500
     48 H5         -7.7300    3.7810    0.5220 ha        1 0R4      0.129000
     49 H6         -8.4080    1.5830    1.4080 ha        1 0R4      0.134000
     50 H7         -6.9620   -0.4220    1.0870 ha        1 0R4      0.138000
     51 H8         -4.0680    1.9930   -1.0420 ha        1 0R4      0.185000
     52 H9         -6.3280   -1.7100   -0.7910 ha        1 0R4      0.149000
     53 H10        -4.9980   -3.8140   -1.1700 ha        1 0R4      0.153000
     54 H11        -1.1130   -5.0560    1.2980 hn        1 0R4      0.421800
     55 H12         0.0690   -6.0560    1.9400 hn        1 0R4      0.421800
     56 H13         3.7720   -5.5320   -0.6050 h4        1 0R4      0.024100
     57 H14         3.2810   -3.6460   -2.2160 ha        1 0R4      0.150000
     58 H15         1.0240   -2.5230   -2.1000 ha        1 0R4      0.149000
     59 H16         0.7040   -2.3130    1.7940 ha        1 0R4      0.159000
     60 H17         2.3450   -0.6890    2.6920 ha        1 0R4      0.142000
     61 H18        -0.9410    0.8170   -0.7600 ha        1 0R4      0.159000
     62 H19         0.7220    2.4060    0.1440 ha        1 0R4      0.142000
     63 H20         2.3680    2.9860    1.7130 h1        1 0R4      0.073200
     64 H21         2.5610    1.8970    3.1680 h1        1 0R4      0.073200
     65 H22         4.3080    0.7290    1.7910 hn        1 0R4      0.308500
     66 H23         5.4220   -0.0110   -0.0770 ha        1 0R4      0.151000
     67 H24         6.9400    3.9740    0.7160 ha        1 0R4      0.160000
     68 H25         9.2160    3.2510   -0.0380 ha        1 0R4      0.145000
     69 H26         9.5920    0.9020   -0.8160 ha        1 0R4      0.152000
@<TRIPOS>BOND
     1    1    2 2   
     2    2    3 1   
     3    2    4 1   
     4    3   44 1   
     5    3   45 1   
     6    3   46 1   
     7    4    5 1   
     8    4   47 1   
     9    5    6 ar  
    10    5    9 ar  
    11    6    7 ar  
    12    6   48 1   
    13    7    8 ar  
    14    7   49 1   
    15    8   10 ar  
    16    8   50 1   
    17    9   10 ar  
    18    9   51 1   
    19   10   11 1   
    20   11   12 ar  
    21   11   14 ar  
    22   12   13 ar  
    23   12   52 1   
    24   13   16 ar  
    25   13   53 1   
    26   14   15 ar  
    27   15   16 ar  
    28   15   26 1   
    29   16   17 1   
    30   17   18 2   
    31   18   19 1   
    32   18   26 1   
    33   19   20 ar  
    34   19   25 ar  
    35   20   21 1   
    36   20   22 ar  
    37   21   54 1   
    38   21   55 1   
    39   22   23 ar  
    40   23   24 ar  
    41   23   56 1   
    42   24   25 ar  
    43   24   57 1   
    44   25   58 1   
    45   26   27 1   
    46   27   28 ar  
    47   27   30 ar  
    48   28   29 ar  
    49   28   59 1   
    50   29   32 ar  
    51   29   60 1   
    52   30   31 ar  
    53   30   61 1   
    54   31   32 ar  
    55   31   62 1   
    56   32   33 1   
    57   33   34 1   
    58   33   63 1   
    59   33   64 1   
    60   34   35 1   
    61   34   65 1   
    62   35   36 2   
    63   35   37 1   
    64   37   38 ar  
    65   37   39 ar  
    66   38   42 ar  
    67   38   66 1   
    68   39   40 ar  
    69   39   67 1   
    70   40   41 ar  
    71   40   68 1   
    72   41   42 ar  
    73   41   69 1   
    74   42   43 1   
@<TRIPOS>SUBSTRUCTURE
     1 0R4         1 TEMP              0 ****  ****    0 ROOT
