@<TRIPOS>MOLECULE
0R6
   55    58     1     0     0
SMALL
bcc


@<TRIPOS>ATOM
      1 O2          0.0000    0.0000    0.0000 o         1 0R6     -0.475000
      2 C2          1.2190    0.0000    0.0000 c2        1 0R6      0.266000
      3 N3          1.8630    0.0000    1.1650 n2        1 0R6     -0.404000
      4 C4          3.1880   -0.0000    1.2130 c2        1 0R6     -0.351000
      5 N4          3.8440    0.0010    2.4190 nz        1 0R6      0.135000
      6 C5          3.9400   -0.0010   -0.0470 c2        1 0R6     -0.100000
      7 C29         5.3730   -0.0020   -0.0500 c1        1 0R6      0.065000
      8 C30         6.5470    0.0120   -0.0670 c1        1 0R6     -0.343000
      9 C31         7.9500   -0.0430   -0.0210 ca        1 0R6      0.165000
     10 C36         8.4300   -0.7340    0.6220 ca        1 0R6     -0.098500
     11 C35        10.0000   -0.9840    0.8500 ca        1 0R6     -0.109000
     12 C34        10.6340   -0.0390   -0.0330 ca        1 0R6      0.000000
     13 C37        12.1790    0.2770    0.0700 c1        1 0R6     -0.108000
     14 C38        13.4850    0.0570   -0.0650 c1        1 0R6     -0.273000
     15 C33         9.8330    0.9170   -0.9220 ca        1 0R6     -0.109000
     16 C32         8.7050    0.8540   -0.8590 ca        1 0R6     -0.098500
     17 C6          3.2260   -0.0020   -1.2300 c2        1 0R6     -0.163000
     18 N1          1.8680   -0.0070   -1.1760 n         1 0R6      0.137000
     19 C1'         1.0980   -0.0090   -2.4230 c3        1 0R6      0.089000
     20 C2'         0.3010   -1.3220   -2.5450 c3        1 0R6     -0.273000
     21 C3'        -1.1740   -0.8610   -2.6520 c3        1 0R6      0.152000
     22 O3'        -1.8810   -1.6380   -3.6220 oh        1 0R6     -0.403000
     23 O4'         0.1490    1.0720   -2.4130 os        1 0R6     -0.263000
     24 C4'        -1.0220    0.6080   -3.1220 c3        1 0R6      0.139000
     25 C5'        -2.2520    1.4290   -2.7270 c3        1 0R6     -0.695000
     26 O5'        -2.1390    2.7460   -3.2720 os        1 0R6     -0.351000
     27 PA         -3.2580    3.8820   -3.0540 p5        1 0R6      1.400000
     28 O1A        -4.6260    3.4340   -3.7760 o         1 0R6     -0.609500
     29 O2A        -3.5020    4.0650   -1.6060 o         1 0R6     -0.609500
     30 O3A        -2.7450    5.2690   -3.6910 os        1 0R6     -0.980000
     31 PB         -3.1470    6.8140   -3.4790 p5        1 0R6      1.570000
     32 O1B        -2.4380    7.3750   -2.1470 o         1 0R6     -0.518500
     33 O2B        -4.6160    6.9260   -3.3410 o         1 0R6     -0.518500
     34 O3B        -2.6610    7.6740   -4.7500 os        1 0R6     -0.954000
     35 PG         -3.0020    9.1480   -5.2990 p5        1 0R6      1.122500
     36 O3G        -4.4630    9.1440   -5.9760 o         1 0R6     -0.448833
     37 O1G        -1.9040    9.5800   -6.3950 o         1 0R6     -0.448833
     38 O2G        -2.9820   10.1110   -4.1750 o         1 0R6     -0.448833
     39 H1          4.3880    0.7850    2.7210 hn        1 0R6      0.113000
     40 H2          2.9540    0.2450    2.8070 DU        1 0R6      0.023000
     41 H3          8.2180   -1.6040    1.2320 ha        1 0R6      0.101500
     42 H4         10.3800   -1.6420    1.6210 ha        1 0R6      0.114500
     43 H5         14.4970    0.2950    0.2410 ha        1 0R6      0.178000
     44 H6         10.4280    1.4540   -1.6510 ha        1 0R6      0.114500
     45 H7          8.1400    1.6390   -1.3480 ha        1 0R6      0.101500
     46 H8          3.8570    0.3150   -2.0510 h4        1 0R6      0.107000
     47 H9          1.7620    0.0960   -3.2720 h2        1 0R6      0.026000
     48 H10         0.1230   -1.3690   -3.6120 hc        1 0R6      0.084000
     49 H11         0.9090   -2.0730   -2.0550 hc        1 0R6      0.084000
     50 H12        -1.6600   -0.9050   -1.6850 h1        1 0R6      0.071000
     51 H13        -2.2080   -2.5210   -3.6600 ho        1 0R6      0.195000
     52 H14        -0.8580    0.6480   -4.1910 h1        1 0R6      0.031000
     53 H15        -2.4060    0.8480   -1.8250 h1        1 0R6      0.274000
     54 H16        -2.1440    2.5020   -2.8260 h1        1 0R6      0.274000
     55 H43         3.3480    0.7660    2.8330 DU        1 0R6      0.023000
@<TRIPOS>BOND
     1    1    2 1   
     2    2    3 1   
     3    2   18 1   
     4    3    4 1   
     5    4    5 1   
     6    4    6 1   
     7    5   39 1   
     8    5   40 1   
     9    5   55 1   
    10    6    7 1   
    11    6   17 1   
    12    7    8 1   
    13    8    9 1   
    14    9   10 1   
    15    9   16 1   
    16   10   11 1   
    17   10   41 1   
    18   11   12 1   
    19   11   42 1   
    20   12   13 1   
    21   12   15 1   
    22   13   14 1   
    23   14   43 1   
    24   15   16 1   
    25   15   44 1   
    26   16   45 1   
    27   17   18 1   
    28   17   46 1   
    29   18   19 1   
    30   19   20 1   
    31   19   23 1   
    32   19   47 1   
    33   20   21 1   
    34   20   48 1   
    35   20   49 1   
    36   21   22 1   
    37   21   24 1   
    38   21   50 1   
    39   22   51 1   
    40   23   24 1   
    41   24   25 1   
    42   24   52 1   
    43   25   26 1   
    44   25   53 1   
    45   25   54 1   
    46   26   27 1   
    47   27   28 1   
    48   27   29 1   
    49   27   30 1   
    50   30   31 1   
    51   31   32 1   
    52   31   33 1   
    53   31   34 1   
    54   34   35 1   
    55   35   36 1   
    56   35   37 1   
    57   35   38 1   
    58   40   55 1   
@<TRIPOS>SUBSTRUCTURE
     1 0R6         1 TEMP              0 ****  ****    0 ROOT
