@<TRIPOS>MOLECULE
0R7
   54    56     1     0     0
SMALL
bcc


@<TRIPOS>ATOM
      1 O5'         0.0000    0.0000    0.0000 os        1 0R7     -0.495200
      2 P1          1.6090    0.0000    0.0000 p5        1 0R7      0.985800
      3 O1          2.1470    0.0000    1.5170 os        1 0R7     -0.494800
      4 P2          3.5460    0.3970    2.2080 p5        1 0R7      1.098800
      5 O3          3.6440   -0.2980    3.6580 os        1 0R7     -0.471800
      6 P3          4.8490   -0.5580    4.6930 p5        1 0R7      0.876900
      7 O5          4.4360   -1.7350    5.7120 o         1 0R7     -0.461833
      8 O6          5.1450    0.7900    5.5230 o         1 0R7     -0.461833
      9 O7          6.0640   -0.9550    3.9480 o         1 0R7     -0.461833
     10 O8          3.6300    1.9960    2.3720 o         1 0R7     -0.477000
     11 O9          4.6650   -0.0720    1.3600 o         1 0R7     -0.477000
     12 O10         2.1460   -1.3150   -0.7600 o         1 0R7     -0.683500
     13 O11         2.1030    1.2080   -0.6980 o         1 0R7     -0.683500
     14 C1'        -3.9570    1.6780   -0.5410 c3        1 0R7      0.238500
     15 N1         -3.9180    3.0240   -1.1210 n         1 0R7     -0.013000
     16 C6         -2.7710    3.4690   -1.6990 cc        1 0R7     -0.103400
     17 C5         -2.7470    4.7390   -2.2420 cd        1 0R7     -0.116300
     18 C1         -1.5630    5.2540   -2.8620 ch        1 0R7      0.001700
     19 C3         -0.5890    5.6580   -3.3780 cg        1 0R7     -0.319000
     20 N2         -5.0420    5.0260   -1.5810 nc        1 0R7     -0.826100
     21 C4         -3.9710    5.5450   -2.1640 cd        1 0R7     -0.171500
     22 C2         -5.0170    3.7940   -1.0760 c         1 0R7      0.722900
     23 O2         -6.0260    3.3510   -0.5530 o         1 0R7     -0.877500
     24 N3         -4.0060    6.8150   -2.6870 nz        1 0R7      0.369400
     25 O4'        -2.6390    1.2800   -0.1490 os        1 0R7     -0.390600
     26 C4'        -2.2670    0.0740   -0.8360 c3        1 0R7      0.233100
     27 C3'        -3.1290    0.0600   -2.1240 c3        1 0R7     -0.048400
     28 C2'        -4.4590    0.6680   -1.5960 c3        1 0R7     -0.137400
     29 C5'        -0.7790    0.1040   -1.1930 c3        1 0R7      0.177400
     30 C01         0.4600    6.5740   -3.7900 ca        1 0R7      0.113000
     31 C02         1.1610    5.7550   -4.4940 ca        1 0R7     -0.012000
     32 C03         2.4930    6.5610   -5.1240 ca        1 0R7     -0.181500
     33 C04         2.6200    7.6710   -4.8730 ca        1 0R7      0.055000
     34 C05         1.6340    8.5610   -3.9610 ca        1 0R7     -0.181500
     35 C           0.7050    7.7060   -3.6100 ca        1 0R7     -0.012000
     36 C7          4.0440    8.4270   -5.1580 cg        1 0R7     -0.110000
     37 C8          4.7100    9.1060   -5.8120 c1        1 0R7     -0.208500
     38 H5         -4.6140    1.6630    0.3200 h2        1 0R7      0.045700
     39 H6         -1.9150    2.8060   -1.7400 h4        1 0R7      0.144000
     40 H7         -4.8910    7.0650   -3.0810 hn        1 0R7      0.035800
     41 H8         -3.9260    7.0050   -3.6660 hn        1 0R7      0.035800
     42 H9         -2.4950   -0.7900   -0.2240 h1        1 0R7     -0.000300
     43 H10        -3.6150   -0.8560   -2.4370 hc        1 0R7      0.015700
     44 H11        -2.3760    0.2700   -2.8740 hc        1 0R7      0.015700
     45 H12        -5.5250    0.4860   -1.5400 hc        1 0R7      0.035200
     46 H13        -4.5620    1.2170   -2.5240 hc        1 0R7      0.035200
     47 H14        -0.0460    0.0960   -1.9910 h1        1 0R7      0.012700
     48 H15        -1.0060    1.1590   -1.2920 h1        1 0R7      0.012700
     49 H16         1.4970    4.7690   -4.7930 ha        1 0R7      0.113500
     50 H17         3.2140    6.0340   -5.7380 ha        1 0R7      0.119500
     51 H18         1.7400    9.6380   -3.9240 ha        1 0R7      0.119500
     52 H19         0.1770    8.3820   -2.9470 ha        1 0R7      0.113500
     53 H20         5.7070    9.4740   -6.0190 ha        1 0R7      0.115500
     54 H33        -3.5510    7.6290   -2.3220 hn        1 0R7      0.035800
@<TRIPOS>BOND
     1    1    2 1   
     2    1   29 1   
     3    2    3 1   
     4    2   12 1   
     5    2   13 1   
     6    3    4 1   
     7    4    5 1   
     8    4   10 1   
     9    4   11 1   
    10    5    6 1   
    11    6    7 1   
    12    6    8 1   
    13    6    9 1   
    14   14   15 1   
    15   14   25 1   
    16   14   28 1   
    17   14   38 1   
    18   15   16 1   
    19   15   22 1   
    20   16   17 2   
    21   16   39 1   
    22   17   18 1   
    23   17   21 1   
    24   18   19 3   
    25   19   30 1   
    26   20   21 2   
    27   20   22 1   
    28   21   24 1   
    29   22   23 2   
    30   24   40 1   
    31   24   41 1   
    32   24   54 1   
    33   25   26 1   
    34   26   27 1   
    35   26   29 1   
    36   26   42 1   
    37   27   28 1   
    38   27   43 1   
    39   27   44 1   
    40   28   45 1   
    41   28   46 1   
    42   29   47 1   
    43   29   48 1   
    44   30   31 ar  
    45   30   35 ar  
    46   31   32 ar  
    47   31   49 1   
    48   32   33 ar  
    49   32   50 1   
    50   33   34 ar  
    51   33   36 1   
    52   34   35 ar  
    53   34   51 1   
    54   35   52 1   
    55   36   37 3   
    56   37   53 1   
@<TRIPOS>SUBSTRUCTURE
     1 0R7         1 TEMP              0 ****  ****    0 ROOT
