@<TRIPOS>MOLECULE
0R8
   45    40     1     0     0
SMALL
bcc


@<TRIPOS>ATOM
      1 O5'        -4.2280    5.4200    2.1550 os        1 0R8     -0.742000
      2 P          -5.5300    6.2290    1.6550 p3        1 0R8      2.536000
      3 OP1        -5.3710    6.5890    0.1920 o         1 0R8     -1.163000
      4 OP2        -6.7650    5.3570    1.8290 os        1 0R8     -0.820000
      5 C1'        -1.2240    1.9530    1.2860 c3        1 0R8      0.169000
      6 N1         -1.2790    0.6450    0.6940 n3        1 0R8     -0.229000
      7 C6         -0.0810   -0.0620    0.4230 c2        1 0R8     -0.071000
      8 C5         -0.1330   -1.3310   -0.3150 c1        1 0R8     -0.340000
      9 C1          1.1660   -2.1020   -0.6190 c1        1 0R8     -0.116500
     10 C3          2.1580   -2.6890   -0.8520 c1        1 0R8     -0.116500
     11 N3         -2.6310   -1.2280   -0.3620 n1        1 0R8     -0.364000
     12 C4         -1.4380   -1.8850   -0.7320 c2        1 0R8      0.203000
     13 C2         -2.5710    0.0360    0.3880 c1        1 0R8      0.318000
     14 O2         -3.5940    0.6010    0.7060 o         1 0R8     -0.417000
     15 N4         -1.4930   -3.1040   -1.4810 n3        1 0R8     -0.345000
     16 O4'        -2.6230    2.3030    1.9660 os        1 0R8     -0.290000
     17 C4'        -2.6820    3.5790    2.0210 c3        1 0R8      0.013000
     18 C3'        -1.8020    4.0710    0.8590 c3        1 0R8     -0.190000
     19 C2'        -1.0320    2.8390    0.3800 c3        1 0R8     -0.187000
     20 C5'        -4.1230    4.0450    1.8250 c3        1 0R8      0.040000
     21 C01         3.4590   -3.4590   -1.1610 c1        1 0R8      0.164000
     22 C02         3.5550   -4.2230   -2.3280 c2        1 0R8     -0.178000
     23 C03         4.7140   -4.9280   -2.5990 c1        1 0R8     -0.091000
     24 C04         5.7870   -4.8760   -1.7080 c1        1 0R8     -0.066000
     25 C05         5.6920   -4.1180   -0.5490 c1        1 0R8     -0.088000
     26 C           4.5280   -3.4080   -0.2740 c1        1 0R8     -0.160000
     27 C7          7.0460   -5.6110   -2.0150 c1        1 0R8     -0.066000
     28 C8          8.0140   -6.1770   -2.2510 c1        1 0R8     -0.288000
     29 H1'        -0.5070    1.9920    1.9540 h2        1 0R8      0.100000
     30 H6          0.7710    0.2480    0.8100 h4        1 0R8      0.222000
     31 H41        -2.2840   -3.3770   -1.8550 hn        1 0R8      0.183000
     32 H42        -0.7310   -3.5880   -1.6230 hn        1 0R8      0.183000
     33 H7         -2.3240    3.9070    2.8910 h1        1 0R8      0.087000
     34 H3'        -2.3610    4.4220    0.1370 hc        1 0R8      0.103000
     35 H3''       -1.1730    4.7670    1.1760 hc        1 0R8      0.103000
     36 H2'        -0.0820    3.0420    0.3000 hc        1 0R8      0.100000
     37 H2''       -1.3910    2.5260   -0.4860 hc        1 0R8      0.100000
     38 H5'        -4.7050    3.5320    2.3960 h1        1 0R8      0.073500
     39 H5''       -4.3810    3.9140    0.8980 h1        1 0R8      0.073500
     40 H14         2.8020   -4.2600   -2.9520 ha        1 0R8      0.127000
     41 H15         4.8110   -5.3950   -3.4510 ha        1 0R8      0.114000
     42 H16         6.4550   -4.0820    0.0830 ha        1 0R8      0.121000
     43 H17         4.4330   -2.9480    0.5730 ha        1 0R8      0.150000
     44 H18         8.8350   -6.6580   -2.4520 DU        1 0R8      0.207000
     45 OP3        -5.6830    7.4910    2.4700 o         1 0R8     -1.163000
@<TRIPOS>BOND
     1    1    2 1   
     2    1   20 1   
     3    2    3 1   
     4    2   45 1   
     5    5    6 1   
     6    5   16 1   
     7    5   19 1   
     8    5   29 1   
     9    6    7 1   
    10    6   13 1   
    11    7    8 1   
    12    7   30 1   
    13    8   12 1   
    14    9   10 1   
    15   11   12 1   
    16   12   15 1   
    17   13   14 1   
    18   15   31 1   
    19   15   32 1   
    20   16   17 1   
    21   17   18 1   
    22   17   20 1   
    23   17   33 1   
    24   18   19 1   
    25   18   34 1   
    26   18   35 1   
    27   19   36 1   
    28   19   37 1   
    29   20   38 1   
    30   20   39 1   
    31   21   22 1   
    32   21   26 1   
    33   22   23 1   
    34   22   40 1   
    35   23   41 1   
    36   24   25 1   
    37   24   27 1   
    38   25   42 1   
    39   26   43 1   
    40   27   28 1   
@<TRIPOS>SUBSTRUCTURE
     1 0R8         1 TEMP              0 ****  ****    0 ROOT
