@<TRIPOS>MOLECULE
0R8
   45    47     1     0     0
SMALL
bcc


@<TRIPOS>ATOM
      1 O5'        -2.1220    2.4420   -0.2890 os        1 0R8     -0.589200
      2 P          -0.8910    3.1800    0.5160 p5        1 0R8      1.440800
      3 OP1        -1.0570    2.4520    1.9730 oh        1 0R8     -0.794400
      4 OP2         0.4050    2.6450    0.0420 o         1 0R8     -0.848000
      5 C1'        -3.5920   -1.8420    0.3920 c3        1 0R8      0.316500
      6 N1         -2.3760   -2.6020    0.1330 n         1 0R8     -0.349400
      7 C6         -1.1780   -1.9940    0.3070 c1        1 0R8     -0.016900
      8 C5          0.0010   -2.7090   -0.0530 ce        1 0R8     -0.439400
      9 C1          1.2110   -2.0360    0.0240 cg        1 0R8      0.042700
     10 C3          2.2270   -1.3870    0.0700 ch        1 0R8     -0.295000
     11 N3         -1.3250   -4.6590   -0.7140 nf        1 0R8     -0.799100
     12 C4         -0.1230   -4.0560   -0.5440 ce        1 0R8      0.718500
     13 C2         -2.4800   -3.9460   -0.3760 c         1 0R8      0.758500
     14 O2         -3.6170   -4.4790   -0.4980 o         1 0R8     -0.692100
     15 N4          1.0420   -4.8000   -0.8190 nh        1 0R8     -0.898800
     16 O4'        -3.7490   -0.7540   -0.5390 os        1 0R8     -0.435600
     17 C4'        -3.4710    0.5050    0.0960 c3        1 0R8      0.133100
     18 C3'        -3.5590    0.2830    1.6070 c3        1 0R8     -0.099400
     19 C2'        -3.6540   -1.2200    1.8090 c3        1 0R8     -0.094400
     20 C5'        -2.1140    1.0480   -0.3820 c3        1 0R8      0.178400
     21 C01         3.3480   -0.5550    0.1030 ca        1 0R8      0.120000
     22 C02         3.1840    0.8480    0.1080 ca        1 0R8     -0.148500
     23 C03         4.2980    1.6760    0.1400 ca        1 0R8     -0.104000
     24 C04         5.5980    1.1370    0.1640 ca        1 0R8     -0.064000
     25 C05         5.7590   -0.2580    0.1560 ca        1 0R8     -0.104000
     26 C           4.6490   -1.0920    0.1270 ca        1 0R8     -0.148500
     27 C7          6.7240    1.9810    0.1950 cg        1 0R8     -0.050000
     28 C8          7.6840    2.6980    0.2210 c1        1 0R8     -0.245500
     29 H1'        -4.4760   -2.5180    0.1890 h2        1 0R8      0.082700
     30 H6         -0.4460    1.7300    2.0790 ho        1 0R8      0.431000
     31 H41         1.8190   -4.2220   -1.0540 hn        1 0R8      0.381800
     32 H42         0.9240   -5.5710   -1.4370 hn        1 0R8      0.381800
     33 H7         -4.2840    1.1940   -0.2640 h1        1 0R8      0.048700
     34 H3'        -2.6590    0.7070    2.1200 hc        1 0R8      0.054200
     35 H3''       -4.4600    0.7980    2.0210 hc        1 0R8      0.054200
     36 H2'        -4.6220   -1.5060    2.2870 hc        1 0R8      0.041200
     37 H2''       -2.8220   -1.5880    2.4570 hc        1 0R8      0.041200
     38 H5'        -1.9950    0.7580   -1.4650 h1        1 0R8      0.049200
     39 H5''       -1.2700    0.6010    0.2100 h1        1 0R8      0.049200
     40 H14         2.1620    1.2930    0.0780 ha        1 0R8      0.176500
     41 H15         4.1580    2.7680    0.1420 ha        1 0R8      0.122500
     42 H16         6.7700   -0.6900    0.1750 ha        1 0R8      0.122500
     43 H17         4.7830   -2.1820    0.1240 ha        1 0R8      0.176500
     44 H18         8.5240    3.3380    0.2450 ha        1 0R8      0.145500
     45 OP3        -1.2450    4.6100    0.6130 o         1 0R8     -0.848000
@<TRIPOS>BOND
     1    1    2 1   
     2    1   20 1   
     3    2    3 1   
     4    2    4 1   
     5    2   45 1   
     6    3   30 1   
     7    5    6 1   
     8    5   16 1   
     9    5   19 1   
    10    5   29 1   
    11    6    7 2   
    12    6   13 1   
    13    7    8 2   
    14    8    9 1   
    15    8   12 1   
    16    9   10 3   
    17   10   21 1   
    18   11   12 2   
    19   11   13 1   
    20   12   15 1   
    21   13   14 2   
    22   15   31 1   
    23   15   32 1   
    24   16   17 1   
    25   17   18 1   
    26   17   20 1   
    27   17   33 1   
    28   18   19 1   
    29   18   34 1   
    30   18   35 1   
    31   19   36 1   
    32   19   37 1   
    33   20   38 1   
    34   20   39 1   
    35   21   22 ar  
    36   21   26 ar  
    37   22   23 ar  
    38   22   40 1   
    39   23   24 ar  
    40   23   41 1   
    41   24   25 ar  
    42   24   27 1   
    43   25   26 ar  
    44   25   42 1   
    45   26   43 1   
    46   27   28 3   
    47   28   44 1   
@<TRIPOS>SUBSTRUCTURE
     1 0R8         1 TEMP              0 ****  ****    0 ROOT
