@<TRIPOS>MOLECULE
0R9
   46    49     1     0     0
SMALL
bcc


@<TRIPOS>ATOM
      1 C1          8.6280    0.8680    1.2090 c3        1 0R9     -0.107100
      2 C2          7.6100   -0.2000    0.8430 c3        1 0R9      0.085000
      3 N3          6.2970    0.3300    0.5810 n         1 0R9     -0.569900
      4 C4          5.3860   -0.3790   -0.1860 c         1 0R9      0.689300
      5 O5          5.7090   -1.4270   -0.7790 o         1 0R9     -0.589100
      6 C6          4.0180    0.1770   -0.2980 cc        1 0R9     -0.149300
      7 C7          2.8380   -0.5660   -0.3930 cd        1 0R9     -0.084200
      8 C8          1.7540    0.3750   -0.4760 ca        1 0R9     -0.207100
      9 C9          0.3450    0.2750   -0.5770 ca        1 0R9      0.067800
     10 C10        -0.4000    1.4580   -0.6430 cp        1 0R9     -0.091300
     11 C11         0.3130    2.7080   -0.5950 ca        1 0R9      0.436200
     12 N12         1.6270    2.8670   -0.4980 nb        1 0R9     -0.661000
     13 C13         2.3450    1.7000   -0.4350 ca        1 0R9      0.426800
     14 N14         3.7310    1.5530   -0.2840 na        1 0R9     -0.272100
     15 C15        -1.8480    1.5400   -0.7470 cp        1 0R9     -0.219300
     16 C16        -2.5670    2.3930    0.1110 ca        1 0R9     -0.057000
     17 C17        -3.9470    2.5150   -0.0430 ca        1 0R9     -0.233900
     18 C18        -4.5730    1.7570   -1.0550 ca        1 0R9      0.425200
     19 N19        -3.9070    0.9350   -1.8900 nb        1 0R9     -0.700000
     20 C20        -2.5740    0.8410   -1.7340 ca        1 0R9      0.391200
     21 C21        -4.7550    3.4610    0.8350 c         1 0R9      0.915200
     22 O22        -4.1180    4.1760    1.6570 o         1 0R9     -0.819300
     23 O23        -6.0060    3.4790    0.6740 o         1 0R9     -0.819300
     24 N24        -0.2490   -1.0260   -0.5920 na        1 0R9      0.175300
     25 C25        -0.5640   -1.7400   -1.7640 cc        1 0R9     -0.127300
     26 C26        -1.0240   -2.9960   -1.3520 cd        1 0R9     -0.248300
     27 C27        -0.9380   -2.9550    0.0890 cd        1 0R9      0.196600
     28 N28        -0.4580   -1.7480    0.5130 nc        1 0R9     -0.419800
     29 C29        -1.3100   -4.0740    1.0310 c3        1 0R9      0.634600
     30 F30        -1.7890   -5.1950    0.3950 f         1 0R9     -0.235633
     31 F31        -0.2670   -4.5450    1.7910 f         1 0R9     -0.235633
     32 F32        -2.2820   -3.7620    1.9460 f         1 0R9     -0.235633
     33 H1          8.7540    1.6070    0.3820 hc        1 0R9      0.041033
     34 H2          8.3260    1.4180    2.1320 hc        1 0R9      0.041033
     35 H3          9.6110    0.3730    1.3970 hc        1 0R9      0.041033
     36 H4          7.9560   -0.7510   -0.0800 h1        1 0R9      0.052700
     37 H5          7.5570   -0.9540    1.6830 h1        1 0R9      0.052700
     38 H6          5.9590    1.0150    1.2160 hn        1 0R9      0.309500
     39 H7          2.7600   -1.6510   -0.3960 ha        1 0R9      0.179000
     40 H8         -0.2820    3.6450   -0.6310 h4        1 0R9      0.054100
     41 H9          4.3910    2.2760   -0.4110 hn        1 0R9      0.307700
     42 H10        -2.0680    2.9710    0.9070 ha        1 0R9      0.162000
     43 H11        -5.6700    1.8340   -1.1840 h4        1 0R9      0.046100
     44 H12        -2.0600    0.1780   -2.4500 h4        1 0R9     -0.008900
     45 H14        -0.4420   -1.3060   -2.7560 h4        1 0R9      0.188000
     46 H15        -1.3810   -3.8230   -1.9550 ha        1 0R9      0.177000
@<TRIPOS>BOND
     1    1    2 1   
     2    1   33 1   
     3    1   34 1   
     4    1   35 1   
     5    2    3 1   
     6    2   36 1   
     7    2   37 1   
     8    3    4 1   
     9    3   38 1   
    10    4    5 2   
    11    4    6 1   
    12    6    7 2   
    13    6   14 1   
    14    7    8 1   
    15    7   39 1   
    16    8    9 ar  
    17    8   13 ar  
    18    9   10 ar  
    19    9   24 1   
    20   10   11 ar  
    21   10   15 1   
    22   11   12 ar  
    23   11   40 1   
    24   12   13 ar  
    25   13   14 1   
    26   14   41 1   
    27   15   16 ar  
    28   15   20 ar  
    29   16   17 ar  
    30   16   42 1   
    31   17   18 ar  
    32   17   21 1   
    33   18   19 ar  
    34   18   43 1   
    35   19   20 ar  
    36   20   44 1   
    37   21   22 1   
    38   21   23 1   
    39   24   25 1   
    40   24   28 1   
    41   25   26 2   
    42   25   45 1   
    43   26   27 1   
    44   26   46 1   
    45   27   28 2   
    46   27   29 1   
    47   29   30 1   
    48   29   31 1   
    49   29   32 1   
@<TRIPOS>SUBSTRUCTURE
     1 0R9         1 TEMP              0 ****  ****    0 ROOT
