@<TRIPOS>MOLECULE
0R9
   47    50     1     0     0
SMALL
bcc


@<TRIPOS>ATOM
      1 C1          0.4470   -0.1460   -0.4150 c3        1 0R9     -0.135100
      2 C2          1.8260    0.3580   -0.0500 c3        1 0R9      0.107800
      3 N3          2.1120    0.2430    1.4090 n4        1 0R9     -0.678800
      4 C4          3.5050    0.7540    1.7900 c         1 0R9      0.593300
      5 O5          4.1330    1.3040    0.8930 o         1 0R9     -0.450100
      6 C6          3.8960    0.4920    3.1420 cc        1 0R9     -0.319300
      7 C7          5.2320    0.5380    3.5900 cd        1 0R9      0.113800
      8 C8          5.2370    0.1160    4.9570 ca        1 0R9     -0.263100
      9 C9          6.2450   -0.0380    5.9510 ca        1 0R9      0.156800
     10 C10         5.8100   -0.4200    7.2400 cp        1 0R9     -0.125300
     11 C11         4.4240   -0.6870    7.4480 ca        1 0R9      0.489200
     12 N12         3.4450   -0.5820    6.5410 nb        1 0R9     -0.679000
     13 C13         3.8560   -0.1790    5.3100 ca        1 0R9      0.475800
     14 N14         3.0280   -0.0250    4.1600 na        1 0R9     -0.266100
     15 C15         6.6710   -0.5300    8.4050 cp        1 0R9     -0.266300
     16 C16         7.4260    0.5610    8.8680 ca        1 0R9     -0.060000
     17 C17         8.1980    0.4110   10.0190 ca        1 0R9     -0.236900
     18 C18         8.1740   -0.8320   10.6850 ca        1 0R9      0.436200
     19 N19         7.4490   -1.8890   10.2640 nb        1 0R9     -0.688000
     20 C20         6.7150   -1.7320    9.1490 ca        1 0R9      0.384200
     21 C21         9.0600    1.5670   10.5300 c         1 0R9      0.916200
     22 O22         9.7160    1.3670   11.5840 o         1 0R9     -0.802300
     23 O23         9.0480    2.6230    9.8440 o         1 0R9     -0.802300
     24 N24         7.6000    0.1780    5.6230 na        1 0R9      0.142300
     25 C25         8.7320   -0.3370    6.3070 cc        1 0R9     -0.071300
     26 C26         9.8580    0.1290    5.6320 cd        1 0R9     -0.233300
     27 C27         9.3270    0.9240    4.5410 cd        1 0R9      0.254600
     28 N28         7.9720    0.9340    4.5630 nc        1 0R9     -0.494800
     29 C29        10.1380    1.6550    3.4900 c3        1 0R9      0.629600
     30 F30        11.4930    1.5040    3.6320 f         1 0R9     -0.226633
     31 F31         9.8770    1.2380    2.2050 f         1 0R9     -0.226633
     32 F32         9.9310    3.0100    3.4540 f         1 0R9     -0.226633
     33 H1          0.3210   -1.2280   -0.1640 hc        1 0R9      0.074033
     34 H2         -0.3570    0.4400    0.0940 hc        1 0R9      0.074033
     35 H3          0.3180   -0.0280   -1.5210 hc        1 0R9      0.074033
     36 H4          1.9400    1.4440   -0.3360 hx        1 0R9      0.113700
     37 H5          2.6210   -0.2260   -0.5980 hx        1 0R9      0.113700
     38 H6          1.4120    0.7740    1.9340 hn        1 0R9      0.452300
     39 H7          6.0880    0.8300    2.9730 ha        1 0R9      0.210000
     40 H8          4.0950   -1.0000    8.4630 h4        1 0R9      0.063100
     41 H9          2.1550    0.4360    4.3080 hn        1 0R9      0.270700
     42 H10         7.4280    1.5360    8.3540 ha        1 0R9      0.170000
     43 H11         8.7760   -0.9610   11.6070 h4        1 0R9      0.060100
     44 H12         6.1340   -2.6130    8.8260 h4        1 0R9      0.000100
     45 H14         8.6410   -0.9650    7.1990 h4        1 0R9      0.223000
     46 H15        10.9070   -0.0320    5.8650 ha        1 0R9      0.201000
     47 H32         2.0420   -0.7410    1.6950 hn        1 0R9      0.452300
@<TRIPOS>BOND
     1    1    2 1   
     2    1   33 1   
     3    1   34 1   
     4    1   35 1   
     5    2    3 1   
     6    2   36 1   
     7    2   37 1   
     8    3    4 1   
     9    3   38 1   
    10    3   47 1   
    11    4    5 2   
    12    4    6 1   
    13    6    7 2   
    14    6   14 1   
    15    7    8 1   
    16    7   39 1   
    17    8    9 ar  
    18    8   13 ar  
    19    9   10 ar  
    20    9   24 1   
    21   10   11 ar  
    22   10   15 1   
    23   11   12 ar  
    24   11   40 1   
    25   12   13 ar  
    26   13   14 1   
    27   14   41 1   
    28   15   16 ar  
    29   15   20 ar  
    30   16   17 ar  
    31   16   42 1   
    32   17   18 ar  
    33   17   21 1   
    34   18   19 ar  
    35   18   43 1   
    36   19   20 ar  
    37   20   44 1   
    38   21   22 1   
    39   21   23 1   
    40   24   25 1   
    41   24   28 1   
    42   25   26 2   
    43   25   45 1   
    44   26   27 1   
    45   26   46 1   
    46   27   28 2   
    47   27   29 1   
    48   29   30 1   
    49   29   31 1   
    50   29   32 1   
@<TRIPOS>SUBSTRUCTURE
     1 0R9         1 TEMP              0 ****  ****    0 ROOT
