@<TRIPOS>MOLECULE
0R9
   46    38     1     0     0
SMALL
bcc


@<TRIPOS>ATOM
      1 C1         -5.7590   -1.1740   -5.1130 c3        1 0R9     -0.225000
      2 C2         -4.5110   -0.3140   -5.0330 c3        1 0R9     -0.032000
      3 N3         -4.0450   -0.2640   -3.6620 n         1 0R9     -0.380000
      4 C4         -2.8950    0.5150   -3.3290 c2        1 0R9      0.364000
      5 O5         -2.4100    1.2660   -4.1540 o         1 0R9     -0.348000
      6 C6         -2.2290    0.3490   -1.9650 c2        1 0R9     -0.115000
      7 C7         -0.8810    0.4630   -1.6620 c1        1 0R9     -0.073000
      8 C8         -0.7560    0.5030   -0.2870 c1        1 0R9     -0.138000
      9 C9          0.3630    0.5160    0.5480 c1        1 0R9      0.158000
     10 C10         0.2020    0.4400    1.9110 c1        1 0R9     -0.082000
     11 C11        -1.0710    0.3510    2.4540 c1        1 0R9     -0.034000
     12 N12        -2.1720    0.3390    1.6300 n1        1 0R9     -0.164000
     13 C13        -2.0120    0.4150    0.2540 c1        1 0R9      0.047000
     14 N14        -2.9250    0.3190   -0.7910 n1        1 0R9     -0.190000
     15 C15         1.0920    0.4760    3.1540 c2        1 0R9     -0.163000
     16 C16         1.5060   -0.7020    3.7380 c2        1 0R9     -0.052000
     17 C17         2.3550   -0.6720    4.8060 c1        1 0R9     -0.147000
     18 C18         2.8040    0.5510    5.3070 c1        1 0R9     -0.034000
     19 N19         2.3900    1.7250    4.7240 n1        1 0R9     -0.164000
     20 C20         1.5400    1.6950    3.6540 c1        1 0R9     -0.099000
     21 C21         2.7810   -1.9790    5.4830 c2        1 0R9      0.363000
     22 O22         3.7520   -2.6360    5.0270 o         1 0R9     -0.551000
     23 O23         2.1190   -2.4280    6.4690 o         1 0R9     -0.551000
     24 N24         1.7200    0.5510    0.0960 n3        1 0R9     -0.070000
     25 C25         2.4160    1.6600   -0.2310 c1        1 0R9     -0.074000
     26 C26         3.6520    1.2680   -0.6710 c1        1 0R9     -0.187000
     27 C27         3.7070   -0.1020   -0.6110 c1        1 0R9     -0.209000
     28 N28         2.5250   -0.5460   -0.1410 n2        1 0R9     -0.020000
     29 C29         4.8990   -0.9650   -0.9900 c2        1 0R9      0.513000
     30 F30         5.9860   -0.5430   -0.3280 f         1 0R9     -0.164667
     31 F31         4.6460   -2.2420   -0.6660 f         1 0R9     -0.164667
     32 F32         5.1150   -0.8740   -2.3060 f         1 0R9     -0.164667
     33 H1         -6.0630   -1.2250   -6.0490 hc        1 0R9      0.079667
     34 H2         -6.4600   -0.7800   -4.5650 hc        1 0R9      0.079667
     35 H3         -5.5560   -2.0790   -4.7840 hc        1 0R9      0.079667
     36 H4         -4.7190    0.5910   -5.3400 h1        1 0R9      0.091500
     37 H5         -3.8070   -0.7030   -5.6060 h1        1 0R9      0.091500
     38 H6         -4.4620   -0.7580   -3.0210 hn        1 0R9      0.222000
     39 H7         -0.1450    0.5020   -2.3110 DU        1 0R9      0.209750
     40 H8         -1.1870    0.2970    3.4310 ha        1 0R9      0.181500
     41 H9         -3.8200    0.2000   -0.7060 DU        1 0R9      0.209750
     42 H10         1.1730   -1.5540    3.4040 ha        1 0R9      0.169000
     43 H11         3.4130    0.5730    6.0730 ha        1 0R9      0.181500
     44 H12         1.2470    2.5290    3.2410 ha        1 0R9      0.136000
     45 H14         2.0940    2.5830   -0.1640 DU        1 0R9      0.209750
     46 H15         4.3880    1.8630   -0.9200 DU        1 0R9      0.209750
@<TRIPOS>BOND
     1    1    2 1   
     2    1   33 1   
     3    1   34 1   
     4    1   35 1   
     5    2    3 1   
     6    2   36 1   
     7    2   37 1   
     8    3    4 1   
     9    3   38 1   
    10    4    5 1   
    11    4    6 1   
    12    6    7 1   
    13    6   14 1   
    14    7    8 1   
    15    8   13 1   
    16    9   10 1   
    17    9   24 1   
    18   10   15 1   
    19   11   12 1   
    20   11   40 1   
    21   15   16 1   
    22   15   20 1   
    23   16   17 1   
    24   16   42 1   
    25   17   21 1   
    26   18   19 1   
    27   18   43 1   
    28   20   44 1   
    29   21   22 1   
    30   21   23 1   
    31   24   25 1   
    32   24   28 1   
    33   25   26 1   
    34   26   27 1   
    35   27   28 1   
    36   29   30 1   
    37   29   31 1   
    38   29   32 1   
@<TRIPOS>SUBSTRUCTURE
     1 0R9         1 TEMP              0 ****  ****    0 ROOT
