@<TRIPOS>MOLECULE
0R9
   47    50     1     0     0
SMALL
bcc


@<TRIPOS>ATOM
      1 C1          0.4090   -0.0780   -0.3820 c3        1 0R9     -0.135100
      2 C2          1.7940    0.4160   -0.0230 c3        1 0R9      0.107800
      3 N3          2.0890    0.2890    1.4330 n4        1 0R9     -0.678800
      4 C4          3.4870    0.7880    1.8080 c         1 0R9      0.593300
      5 O5          4.1120    1.3410    0.9110 o         1 0R9     -0.450100
      6 C6          3.8850    0.5150    3.1560 cc        1 0R9     -0.319300
      7 C7          5.2240    0.5500    3.5960 cd        1 0R9      0.113800
      8 C8          5.2360    0.1190    4.9600 ca        1 0R9     -0.263100
      9 C9          6.2490   -0.0470    5.9470 ca        1 0R9      0.156800
     10 C10         5.8200   -0.4350    7.2360 cp        1 0R9     -0.125300
     11 C11         4.4340   -0.6960    7.4510 ca        1 0R9      0.489200
     12 N12         3.4500   -0.5790    6.5500 nb        1 0R9     -0.679000
     13 C13         3.8560   -0.1700    5.3200 ca        1 0R9      0.475800
     14 N14         3.0210   -0.0040    4.1760 na        1 0R9     -0.266100
     15 C15         6.6880   -0.5570    8.3940 cp        1 0R9     -0.266300
     16 C16         7.4510    0.5270    8.8600 ca        1 0R9     -0.060000
     17 C17         8.2300    0.3660   10.0050 ca        1 0R9     -0.236900
     18 C18         8.2030   -0.8810   10.6630 ca        1 0R9      0.436200
     19 N19         7.4710   -1.9320   10.2390 nb        1 0R9     -0.688000
     20 C20         6.7310   -1.7640    9.1300 ca        1 0R9      0.384200
     21 C21         9.1000    1.5140   10.5180 c         1 0R9      0.916200
     22 O22         9.7610    1.3040   11.5670 o         1 0R9     -0.802300
     23 O23         9.0890    2.5750    9.8400 o         1 0R9     -0.802300
     24 N24         7.6040    0.1640    5.6110 na        1 0R9      0.142300
     25 C25         8.7370   -0.3620    6.2850 cc        1 0R9     -0.071300
     26 C26         9.8610    0.1020    5.6050 cd        1 0R9     -0.233300
     27 C27         9.3280    0.9070    4.5230 cd        1 0R9      0.254600
     28 N28         7.9730    0.9240    4.5530 nc        1 0R9     -0.494800
     29 C29        10.1360    1.6400    3.4700 c3        1 0R9      0.629600
     30 F30        11.4910    1.4810    3.6030 f         1 0R9     -0.226633
     31 F31         9.8650    1.2310    2.1860 f         1 0R9     -0.226633
     32 F32         9.9370    2.9960    3.4450 f         1 0R9     -0.226633
     33 H1          0.2780   -1.1610   -0.1380 hc        1 0R9      0.074033
     34 H2          0.2740    0.0490   -1.4860 hc        1 0R9      0.074033
     35 H3         -0.3880    0.5090    0.1360 hc        1 0R9      0.074033
     36 H4          1.9130    1.5030   -0.3020 hx        1 0R9      0.113700
     37 H5          2.5820   -0.1690   -0.5800 hx        1 0R9      0.113700
     38 H6          2.0150   -0.6970    1.7120 hn        1 0R9      0.452300
     39 H7          6.0780    0.8420    2.9750 ha        1 0R9      0.210000
     40 H8          4.1110   -1.0140    8.4650 h4        1 0R9      0.063100
     41 H9          2.1520    0.4610    4.3320 hn        1 0R9      0.270700
     42 H10         7.4550    1.5060    8.3520 ha        1 0R9      0.170000
     43 H11         8.8110   -1.0190   11.5810 h4        1 0R9      0.060100
     44 H12         6.1440   -2.6400    8.8050 h4        1 0R9      0.000100
     45 H14         8.6480   -0.9940    7.1740 h4        1 0R9      0.223000
     46 H15        10.9110   -0.0660    5.8310 ha        1 0R9      0.201000
     47 H32         1.3950    0.8210    1.9660 hn        1 0R9      0.452300
@<TRIPOS>BOND
     1    1    2 1   
     2    1   33 1   
     3    1   34 1   
     4    1   35 1   
     5    2    3 1   
     6    2   36 1   
     7    2   37 1   
     8    3    4 1   
     9    3   38 1   
    10    3   47 1   
    11    4    5 2   
    12    4    6 1   
    13    6    7 2   
    14    6   14 1   
    15    7    8 1   
    16    7   39 1   
    17    8    9 ar  
    18    8   13 ar  
    19    9   10 ar  
    20    9   24 1   
    21   10   11 ar  
    22   10   15 1   
    23   11   12 ar  
    24   11   40 1   
    25   12   13 ar  
    26   13   14 1   
    27   14   41 1   
    28   15   16 ar  
    29   15   20 ar  
    30   16   17 ar  
    31   16   42 1   
    32   17   18 ar  
    33   17   21 1   
    34   18   19 ar  
    35   18   43 1   
    36   19   20 ar  
    37   20   44 1   
    38   21   22 1   
    39   21   23 1   
    40   24   25 1   
    41   24   28 1   
    42   25   26 2   
    43   25   45 1   
    44   26   27 1   
    45   26   46 1   
    46   27   28 2   
    47   27   29 1   
    48   29   30 1   
    49   29   31 1   
    50   29   32 1   
@<TRIPOS>SUBSTRUCTURE
     1 0R9         1 TEMP              0 ****  ****    0 ROOT
