@<TRIPOS>MOLECULE
0R9
   47    50     1     0     0
SMALL
bcc


@<TRIPOS>ATOM
      1 C1          0.4100   -0.1020   -0.3810 c3        1 0R9     -0.135100
      2 C2          1.7990    0.3820   -0.0280 c3        1 0R9      0.107800
      3 N3          2.0920    0.2750    1.4300 ny        1 0R9     -0.678800
      4 C4          3.4960    0.7640    1.7980 c         1 0R9      0.593300
      5 O5          4.1280    1.2960    0.8930 o         1 0R9     -0.450100
      6 C6          3.8900    0.5080    3.1500 cc        1 0R9     -0.319300
      7 C7          5.2290    0.5340    3.5900 cd        1 0R9      0.113800
      8 C8          5.2350    0.1240    4.9610 ca        1 0R9     -0.263100
      9 C9          6.2450   -0.0380    5.9510 ca        1 0R9      0.156800
     10 C10         5.8110   -0.4010    7.2460 cp        1 0R9     -0.125300
     11 C11         4.4230   -0.6420    7.4640 ca        1 0R9      0.489200
     12 N12         3.4400   -0.5280    6.5610 nb        1 0R9     -0.679000
     13 C13         3.8510   -0.1430    5.3240 ca        1 0R9      0.475800
     14 N14         3.0190    0.0150    4.1770 na        1 0R9     -0.266100
     15 C15         6.6770   -0.5150    8.4070 cp        1 0R9     -0.266300
     16 C16         7.4520    0.5670    8.8560 ca        1 0R9     -0.060000
     17 C17         8.2290    0.4140   10.0040 ca        1 0R9     -0.236900
     18 C18         8.1870   -0.8220   10.6810 ca        1 0R9      0.436200
     19 N19         7.4430   -1.8710   10.2730 nb        1 0R9     -0.688000
     20 C20         6.7050   -1.7110    9.1610 ca        1 0R9      0.384200
     21 C21         9.1120    1.5600   10.5000 c         1 0R9      0.916200
     22 O22         9.7710    1.3590   11.5520 o         1 0R9     -0.802300
     23 O23         9.1140    2.6110    9.8050 o         1 0R9     -0.802300
     24 N24         7.6020    0.1520    5.6130 na        1 0R9      0.142300
     25 C25         8.7290   -0.3770    6.2960 cc        1 0R9     -0.071300
     26 C26         9.8590    0.0630    5.6100 cd        1 0R9     -0.233300
     27 C27         9.3360    0.8570    4.5150 cd        1 0R9      0.254600
     28 N28         7.9810    0.8910    4.5440 nc        1 0R9     -0.494800
     29 C29        10.1530    1.5640    3.4520 c3        1 0R9      0.629600
     30 F30        11.5060    1.3920    3.5880 f         1 0R9     -0.226633
     31 F31         9.8790    1.1390    2.1730 f         1 0R9     -0.226633
     32 F32         9.9700    2.9220    3.4050 f         1 0R9     -0.226633
     33 H1          0.2660   -1.1790   -0.1200 hc        1 0R9      0.074033
     34 H2         -0.3810    0.5030    0.1260 hc        1 0R9      0.074033
     35 H3          0.2770    0.0090   -1.4880 hc        1 0R9      0.074033
     36 H4          1.9310    1.4630   -0.3250 hx        1 0R9      0.113700
     37 H5          2.5810   -0.2210   -0.5750 hx        1 0R9      0.113700
     38 H6          1.4040    0.8230    1.9540 hn        1 0R9      0.452300
     39 H7          6.0860    0.8070    2.9660 ha        1 0R9      0.210000
     40 H8          4.0940   -0.9410    8.4830 h4        1 0R9      0.063100
     41 H9          2.1550    0.4920    4.3260 hn        1 0R9      0.270700
     42 H10         7.4680    1.5380    8.3330 ha        1 0R9      0.170000
     43 H11         8.7930   -0.9530   11.6010 h4        1 0R9      0.060100
     44 H12         6.1080   -2.5850    8.8490 h4        1 0R9      0.000100
     45 H14         8.6320   -0.9950    7.1940 h4        1 0R9      0.223000
     46 H15        10.9060   -0.1140    5.8400 ha        1 0R9      0.201000
     47 H32         2.0060   -0.7050    1.7240 hn        1 0R9      0.452300
@<TRIPOS>BOND
     1    1    2 1   
     2    1   33 1   
     3    1   34 1   
     4    1   35 1   
     5    2    3 1   
     6    2   36 1   
     7    2   37 1   
     8    3    4 1   
     9    3   38 1   
    10    3   47 1   
    11    4    5 2   
    12    4    6 1   
    13    6    7 2   
    14    6   14 1   
    15    7    8 1   
    16    7   39 1   
    17    8    9 ar  
    18    8   13 ar  
    19    9   10 ar  
    20    9   24 1   
    21   10   11 ar  
    22   10   15 1   
    23   11   12 ar  
    24   11   40 1   
    25   12   13 ar  
    26   13   14 1   
    27   14   41 1   
    28   15   16 ar  
    29   15   20 ar  
    30   16   17 ar  
    31   16   42 1   
    32   17   18 ar  
    33   17   21 1   
    34   18   19 ar  
    35   18   43 1   
    36   19   20 ar  
    37   20   44 1   
    38   21   22 1   
    39   21   23 1   
    40   24   25 1   
    41   24   28 1   
    42   25   26 2   
    43   25   45 1   
    44   26   27 1   
    45   26   46 1   
    46   27   28 2   
    47   27   29 1   
    48   29   30 1   
    49   29   31 1   
    50   29   32 1   
@<TRIPOS>SUBSTRUCTURE
     1 0R9         1 TEMP              0 ****  ****    0 ROOT
