@<TRIPOS>MOLECULE
0RA
   33    25     1     0     0
SMALL
bcc


@<TRIPOS>ATOM
      1 C1         -0.6350   -0.0580   -3.0510 c1        1 0RA     -0.137000
      2 C2          0.7510   -0.0420   -3.0710 c1        1 0RA     -0.128000
      3 C3          1.4610    0.0060   -1.8820 c1        1 0RA     -0.033000
      4 C4          0.7860    0.0370   -0.6720 c1        1 0RA     -0.124000
      5 C5         -0.6010    0.0200   -0.6510 c1        1 0RA     -0.048000
      6 C6         -1.3110   -0.0280   -1.8410 c2        1 0RA     -0.146000
      7 C7         -1.3380   -0.0040    0.6710 c1        1 0RA     -0.090000
      8 C8         -1.6570   -1.1520    1.3410 c1        1 0RA     -0.042000
      9 C9         -2.3680   -1.0840    2.5270 c1        1 0RA     -0.152500
     10 C10        -2.8240   -2.0590    3.3880 c1        1 0RA     -0.152500
     11 C11        -3.4910   -1.4350    4.4240 c1        1 0RA     -0.035000
     12 N1         -3.4470   -0.0870    4.2040 n2        1 0RA     -0.210000
     13 C12        -2.7510    0.1330    3.0280 c1        1 0RA     -0.035000
     14 N2         -2.4270    1.2930    2.3490 n1        1 0RA     -0.157000
     15 C13        -1.7260    1.2280    1.1800 c1        1 0RA     -0.043000
     16 C14         2.9740   -0.0590   -1.9020 c3        1 0RA     -0.124000
     17 C15         3.5370    1.3350   -2.0790 c3        1 0RA     -0.221000
     18 C16         5.0230    1.3180   -1.8040 c2        1 0RA      0.328000
     19 O1          5.8310    1.7160   -2.6840 o         1 0RA     -0.583000
     20 O2          5.4540    0.8930   -0.7010 o         1 0RA     -0.583000
     21 H1         -1.1350   -0.1150   -3.8870 ha        1 0RA      0.118000
     22 H2          1.2270   -0.0760   -3.9220 ha        1 0RA      0.140000
     23 H3          1.2850    0.0840    0.1650 ha        1 0RA      0.138000
     24 H4         -2.2860   -0.0640   -1.8260 ha        1 0RA      0.117000
     25 H5         -1.4180   -2.0200    0.9640 ha        1 0RA      0.150000
     26 H6         -2.7100   -3.0230    3.2760 DU        1 0RA      0.189333
     27 H7         -3.9260   -1.8800    5.1760 DU        1 0RA      0.189333
     28 H8         -3.8120    0.5540    4.7380 DU        1 0RA      0.189333
     29 H9         -1.5070    2.0460    0.6970 ha        1 0RA      0.161000
     30 H10         3.2960   -0.4350   -1.0580 hc        1 0RA      0.098500
     31 H11         3.2670   -0.6260   -2.6440 hc        1 0RA      0.098500
     32 H12         3.3780    1.6360   -2.9960 hc        1 0RA      0.064500
     33 H13         3.0970    1.9460   -1.4550 hc        1 0RA      0.064500
@<TRIPOS>BOND
     1    1    6 1   
     2    1   21 1   
     3    2    3 1   
     4    2   22 1   
     5    3   16 1   
     6    4    5 1   
     7    4   23 1   
     8    5    6 1   
     9    6   24 1   
    10    7    8 1   
    11    8   25 1   
    12    9   13 1   
    13   10   11 1   
    14   11   12 1   
    15   12   13 1   
    16   14   15 1   
    17   15   29 1   
    18   16   17 1   
    19   16   30 1   
    20   16   31 1   
    21   17   18 1   
    22   17   32 1   
    23   17   33 1   
    24   18   19 1   
    25   18   20 1   
@<TRIPOS>SUBSTRUCTURE
     1 0RA         1 TEMP              0 ****  ****    0 ROOT
