@<TRIPOS>MOLECULE
0RA
   33    35     1     0     0
SMALL
bcc


@<TRIPOS>ATOM
      1 C1          0.0750    0.5090    0.0720 ca        1 0RA     -0.137000
      2 C2          1.4560    0.3420    0.1290 ca        1 0RA     -0.124000
      3 C3          2.0950    0.1410    1.3610 ca        1 0RA     -0.037300
      4 C4          1.3260    0.1140    2.5280 ca        1 0RA     -0.130000
      5 C5         -0.0650    0.2820    2.4770 cp        1 0RA     -0.049000
      6 C6         -0.6880    0.4790    1.2370 ca        1 0RA     -0.145000
      7 C7         -0.8590    0.2520    3.7000 cp        1 0RA     -0.154300
      8 C8         -2.1050   -0.3720    3.7410 ca        1 0RA     -0.050000
      9 C9         -2.8130   -0.3610    4.9440 ca        1 0RA     -0.200100
     10 C10        -4.0820   -0.8750    5.3940 cc        1 0RA     -0.179200
     11 C11        -4.2130   -0.5280    6.7360 cd        1 0RA     -0.118100
     12 N1         -3.0940    0.1860    7.1700 na        1 0RA     -0.293100
     13 C12        -2.2060    0.3030    6.0890 ca        1 0RA      0.413800
     14 N2         -0.9850    0.9210    6.0630 nb        1 0RA     -0.677000
     15 C13        -0.3590    0.8750    4.8850 ca        1 0RA      0.426200
     16 C14         3.5700   -0.0520    1.4120 c3        1 0RA     -0.043100
     17 C15         4.3380    1.1970    1.0390 c3        1 0RA     -0.193400
     18 C16         5.8100    0.8660    0.7220 c         1 0RA      0.908600
     19 O1          6.0610   -0.1830    0.0610 o         1 0RA     -0.847800
     20 O2          6.6910    1.6770    1.1250 o         1 0RA     -0.847800
     21 H1         -0.4180    0.6690   -0.8980 ha        1 0RA      0.118000
     22 H2          2.0620    0.3680   -0.7900 ha        1 0RA      0.146000
     23 H3          1.8210   -0.0490    3.4980 ha        1 0RA      0.132000
     24 H4         -1.7770    0.6190    1.1870 ha        1 0RA      0.117000
     25 H5         -2.5190   -0.8660    2.8500 ha        1 0RA      0.142000
     26 H6         -4.7950   -1.4280    4.7920 ha        1 0RA      0.153000
     27 H7         -5.0320   -0.7360    7.4280 h4        1 0RA      0.159000
     28 H8         -2.9340    0.5290    8.0790 hn        1 0RA      0.302700
     29 H9          0.6290    1.3750    4.8560 h4        1 0RA      0.035100
     30 H10         3.8810   -0.3840    2.4370 hc        1 0RA      0.061200
     31 H11         3.8680   -0.8680    0.6930 hc        1 0RA      0.061200
     32 H12         4.2960    1.9470    1.8670 hc        1 0RA      0.025200
     33 H13         3.8930    1.6650    0.1250 hc        1 0RA      0.025200
@<TRIPOS>BOND
     1    1    2 ar  
     2    1    6 ar  
     3    1   21 1   
     4    2    3 ar  
     5    2   22 1   
     6    3    4 ar  
     7    3   16 1   
     8    4    5 ar  
     9    4   23 1   
    10    5    6 ar  
    11    5    7 1   
    12    6   24 1   
    13    7    8 ar  
    14    7   15 ar  
    15    8    9 ar  
    16    8   25 1   
    17    9   10 1   
    18    9   13 ar  
    19   10   11 2   
    20   10   26 1   
    21   11   12 1   
    22   11   27 1   
    23   12   13 1   
    24   12   28 1   
    25   13   14 ar  
    26   14   15 ar  
    27   15   29 1   
    28   16   17 1   
    29   16   30 1   
    30   16   31 1   
    31   17   18 1   
    32   17   32 1   
    33   17   33 1   
    34   18   19 1   
    35   18   20 1   
@<TRIPOS>SUBSTRUCTURE
     1 0RA         1 TEMP              0 ****  ****    0 ROOT
