@<TRIPOS>MOLECULE
0RA
   33    35     1     0     0
SMALL
bcc


@<TRIPOS>ATOM
      1 C1          0.0710    0.5170    0.0730 ca        1 0RA     -0.137000
      2 C2          1.4500    0.3390    0.1270 ca        1 0RA     -0.124000
      3 C3          2.0910    0.1320    1.3570 ca        1 0RA     -0.037300
      4 C4          1.3240    0.1080    2.5260 ca        1 0RA     -0.130000
      5 C5         -0.0660    0.2860    2.4780 cp        1 0RA     -0.049000
      6 C6         -0.6900    0.4900    1.2400 ca        1 0RA     -0.145000
      7 C7         -0.8580    0.2590    3.7030 cp        1 0RA     -0.154300
      8 C8         -2.1080   -0.3560    3.7450 ca        1 0RA     -0.050000
      9 C9         -2.8130   -0.3420    4.9500 ca        1 0RA     -0.200100
     10 C10        -4.0850   -0.8470    5.4010 cc        1 0RA     -0.179200
     11 C11        -4.2110   -0.5020    6.7440 cd        1 0RA     -0.118100
     12 N1         -3.0860    0.2030    7.1770 na        1 0RA     -0.293100
     13 C12        -2.1990    0.3160    6.0940 ca        1 0RA      0.413800
     14 N2         -0.9740    0.9250    6.0670 nb        1 0RA     -0.677000
     15 C13        -0.3500    0.8770    4.8880 ca        1 0RA      0.426200
     16 C14         3.5650   -0.0710    1.4050 c3        1 0RA     -0.043100
     17 C15         4.3410    1.1730    1.0310 c3        1 0RA     -0.193400
     18 C16         5.8090    0.8310    0.7100 c         1 0RA      0.908600
     19 O1          6.0510   -0.2200    0.0490 o         1 0RA     -0.847800
     20 O2          6.6970    1.6370    1.1090 o         1 0RA     -0.847800
     21 H1         -0.4230    0.6820   -0.8950 ha        1 0RA      0.118000
     22 H2          2.0550    0.3630   -0.7930 ha        1 0RA      0.146000
     23 H3          1.8200   -0.0600    3.4950 ha        1 0RA      0.132000
     24 H4         -1.7780    0.6370    1.1930 ha        1 0RA      0.117000
     25 H5         -2.5270   -0.8450    2.8550 ha        1 0RA      0.142000
     26 H6         -4.8030   -1.3950    4.8000 ha        1 0RA      0.153000
     27 H7         -5.0290   -0.7060    7.4370 h4        1 0RA      0.159000
     28 H8         -2.9210    0.5430    8.0860 hn        1 0RA      0.302700
     29 H9          0.6410    1.3700    4.8580 h4        1 0RA      0.035100
     30 H10         3.8550   -0.8890    0.6860 hc        1 0RA      0.061200
     31 H11         3.8760   -0.4060    2.4300 hc        1 0RA      0.061200
     32 H12         4.3060    1.9220    1.8590 hc        1 0RA      0.025200
     33 H13         3.8960    1.6440    0.1180 hc        1 0RA      0.025200
@<TRIPOS>BOND
     1    1    2 ar  
     2    1    6 ar  
     3    1   21 1   
     4    2    3 ar  
     5    2   22 1   
     6    3    4 ar  
     7    3   16 1   
     8    4    5 ar  
     9    4   23 1   
    10    5    6 ar  
    11    5    7 1   
    12    6   24 1   
    13    7    8 ar  
    14    7   15 ar  
    15    8    9 ar  
    16    8   25 1   
    17    9   10 1   
    18    9   13 ar  
    19   10   11 2   
    20   10   26 1   
    21   11   12 1   
    22   11   27 1   
    23   12   13 1   
    24   12   28 1   
    25   13   14 ar  
    26   14   15 ar  
    27   15   29 1   
    28   16   17 1   
    29   16   30 1   
    30   16   31 1   
    31   17   18 1   
    32   17   32 1   
    33   17   33 1   
    34   18   19 1   
    35   18   20 1   
@<TRIPOS>SUBSTRUCTURE
     1 0RA         1 TEMP              0 ****  ****    0 ROOT
