@<TRIPOS>MOLECULE
0RA
   33    35     1     0     0
SMALL
bcc


@<TRIPOS>ATOM
      1 C1         -1.0910    2.8620    0.1680 ca        1 0RA     -0.137000
      2 C2         -2.2260    2.0610    0.2520 ca        1 0RA     -0.124000
      3 C3         -2.1040    0.6670    0.3530 ca        1 0RA     -0.037300
      4 C4         -0.8270    0.0970    0.3680 ca        1 0RA     -0.130000
      5 C5          0.3200    0.8990    0.2850 cp        1 0RA     -0.049000
      6 C6          0.1800    2.2900    0.1830 ca        1 0RA     -0.145000
      7 C7          1.6480    0.2960    0.3030 cp        1 0RA     -0.153300
      8 C8          2.6720    0.7730   -0.5130 ca        1 0RA     -0.049000
      9 C9          3.9200    0.1510   -0.4420 ca        1 0RA     -0.199100
     10 C10         5.1940    0.3260   -1.0930 cc        1 0RA     -0.179200
     11 C11         6.0560   -0.6370   -0.5760 cd        1 0RA     -0.118100
     12 N1          5.4030   -1.4170    0.3820 na        1 0RA     -0.294100
     13 C12         4.0780   -0.9630    0.4840 ca        1 0RA      0.413800
     14 N2          3.0820   -1.4410    1.2900 nb        1 0RA     -0.678000
     15 C13         1.9140   -0.8060    1.1740 ca        1 0RA      0.425200
     16 C14        -3.3230   -0.1810    0.4540 c3        1 0RA     -0.043100
     17 C15        -4.1560   -0.1680   -0.8090 c3        1 0RA     -0.193400
     18 C16        -5.5760   -0.7060   -0.5400 c         1 0RA      0.907600
     19 O1         -6.1440   -0.3870    0.5440 o         1 0RA     -0.847800
     20 O2         -6.1070   -1.4240   -1.4340 o         1 0RA     -0.847800
     21 H1         -1.1950    3.9540    0.0890 ha        1 0RA      0.118000
     22 H2         -3.2310    2.5110    0.2380 ha        1 0RA      0.147000
     23 H3         -0.7250   -0.9970    0.4320 ha        1 0RA      0.132000
     24 H4          1.0730    2.9280    0.1240 ha        1 0RA      0.117000
     25 H5          2.5020    1.6130   -1.2010 ha        1 0RA      0.143000
     26 H6          5.4260    1.0710   -1.8470 ha        1 0RA      0.153000
     27 H7          7.1030   -0.8290   -0.8150 h4        1 0RA      0.159000
     28 H8          5.7810   -2.1840    0.8690 hn        1 0RA      0.302700
     29 H9          1.1030   -1.1880    1.8240 h4        1 0RA      0.032100
     30 H10        -3.0370   -1.2390    0.6960 hc        1 0RA      0.061200
     31 H11        -3.9690    0.1910    1.2990 hc        1 0RA      0.061200
     32 H12        -4.2590    0.8790   -1.1920 hc        1 0RA      0.025200
     33 H13        -3.6710   -0.7820   -1.6070 hc        1 0RA      0.025200
@<TRIPOS>BOND
     1    1    2 ar  
     2    1    6 ar  
     3    1   21 1   
     4    2    3 ar  
     5    2   22 1   
     6    3    4 ar  
     7    3   16 1   
     8    4    5 ar  
     9    4   23 1   
    10    5    6 ar  
    11    5    7 1   
    12    6   24 1   
    13    7    8 ar  
    14    7   15 ar  
    15    8    9 ar  
    16    8   25 1   
    17    9   10 1   
    18    9   13 ar  
    19   10   11 2   
    20   10   26 1   
    21   11   12 1   
    22   11   27 1   
    23   12   13 1   
    24   12   28 1   
    25   13   14 ar  
    26   14   15 ar  
    27   15   29 1   
    28   16   17 1   
    29   16   30 1   
    30   16   31 1   
    31   17   18 1   
    32   17   32 1   
    33   17   33 1   
    34   18   19 1   
    35   18   20 1   
@<TRIPOS>SUBSTRUCTURE
     1 0RA         1 TEMP              0 ****  ****    0 ROOT
