@<TRIPOS>MOLECULE
0RA
   33    35     1     0     0
SMALL
bcc


@<TRIPOS>ATOM
      1 C1          0.0640    0.6360    0.0870 ca        1 0RA     -0.137000
      2 C2          1.4390    0.4210    0.1260 ca        1 0RA     -0.124000
      3 C3          2.0800    0.1500    1.3440 ca        1 0RA     -0.037300
      4 C4          1.3180    0.1010    2.5160 ca        1 0RA     -0.130000
      5 C5         -0.0670    0.3160    2.4820 cp        1 0RA     -0.049000
      6 C6         -0.6920    0.5830    1.2560 ca        1 0RA     -0.145000
      7 C7         -0.8540    0.2620    3.7090 cp        1 0RA     -0.154300
      8 C8         -2.1190   -0.3220    3.7340 ca        1 0RA     -0.050000
      9 C9         -2.8180   -0.3380    4.9430 ca        1 0RA     -0.200100
     10 C10        -4.1010   -0.8270    5.3820 cc        1 0RA     -0.179200
     11 C11        -4.2120   -0.5310    6.7380 cd        1 0RA     -0.118100
     12 N1         -3.0660    0.1270    7.1910 na        1 0RA     -0.293100
     13 C12        -2.1820    0.2600    6.1090 ca        1 0RA      0.413800
     14 N2         -0.9420    0.8380    6.0980 nb        1 0RA     -0.677000
     15 C13        -0.3250    0.8190    4.9150 ca        1 0RA      0.426200
     16 C14         3.5480   -0.0920    1.3750 c3        1 0RA     -0.043100
     17 C15         4.3540    1.1450    1.0460 c3        1 0RA     -0.193400
     18 C16         5.8120    0.7790    0.7040 c         1 0RA      0.908600
     19 O1          6.0240   -0.2520    0.0020 o         1 0RA     -0.847800
     20 O2          6.7220    1.5450    1.1300 o         1 0RA     -0.847800
     21 H1         -0.4300    0.8510   -0.8720 ha        1 0RA      0.118000
     22 H2          2.0390    0.4650   -0.7960 ha        1 0RA      0.146000
     23 H3          1.8140   -0.1170    3.4740 ha        1 0RA      0.132000
     24 H4         -1.7760    0.7600    1.2200 ha        1 0RA      0.117000
     25 H5         -2.5550   -0.7660    2.8280 ha        1 0RA      0.142000
     26 H6         -4.8350   -1.3330    4.7630 ha        1 0RA      0.153000
     27 H7         -5.0320   -0.7410    7.4270 h4        1 0RA      0.159000
     28 H8         -2.8900    0.4280    8.1110 hn        1 0RA      0.302700
     29 H9          0.6780    1.2880    4.8980 h4        1 0RA      0.035100
     30 H10         3.8550   -0.4750    2.3850 hc        1 0RA      0.061200
     31 H11         3.8140   -0.8890    0.6230 hc        1 0RA      0.061200
     32 H12         4.3420    1.8620    1.9030 hc        1 0RA      0.025200
     33 H13         3.9180    1.6630    0.1540 hc        1 0RA      0.025200
@<TRIPOS>BOND
     1    1    2 ar  
     2    1    6 ar  
     3    1   21 1   
     4    2    3 ar  
     5    2   22 1   
     6    3    4 ar  
     7    3   16 1   
     8    4    5 ar  
     9    4   23 1   
    10    5    6 ar  
    11    5    7 1   
    12    6   24 1   
    13    7    8 ar  
    14    7   15 ar  
    15    8    9 ar  
    16    8   25 1   
    17    9   10 1   
    18    9   13 ar  
    19   10   11 2   
    20   10   26 1   
    21   11   12 1   
    22   11   27 1   
    23   12   13 1   
    24   12   28 1   
    25   13   14 ar  
    26   14   15 ar  
    27   15   29 1   
    28   16   17 1   
    29   16   30 1   
    30   16   31 1   
    31   17   18 1   
    32   17   32 1   
    33   17   33 1   
    34   18   19 1   
    35   18   20 1   
@<TRIPOS>SUBSTRUCTURE
     1 0RA         1 TEMP              0 ****  ****    0 ROOT
