@<TRIPOS>MOLECULE
0RB
   32    34     1     0     0
SMALL
bcc


@<TRIPOS>ATOM
      1 C1          0.1630    0.0580   -0.0930 cc        1 0RB      0.751100
      2 C2          2.2000    0.0330    1.1390 c         1 0RB      0.605000
      3 C3          1.3680    0.0020    2.3950 ca        1 0RB      0.273500
      4 C4         -0.0830   -0.0010    2.2920 ca        1 0RB      0.557900
      5 C5         -0.2140   -0.0530    4.5980 ca        1 0RB      0.248500
      6 C6          1.2070   -0.0490    4.6950 ca        1 0RB      0.379900
      7 O2         -0.4550   -0.1140    6.9870 o         1 0RB     -0.365100
      8 C7         -0.9720   -0.0850    5.8810 c         1 0RB      0.450600
      9 N5          1.9810   -0.0220    3.5920 nb        1 0RB     -0.508000
     10 O1          3.4210    0.0350    1.1130 o         1 0RB     -0.321100
     11 N2          1.4650    0.0620   -0.0930 nd        1 0RB     -0.610100
     12 N4         -0.8660   -0.0300    3.4090 nb        1 0RB     -0.669000
     13 N3         -0.6940    0.0260    1.0210 na        1 0RB     -0.835900
     14 N1         -0.4930    0.0910   -1.4500 n4        1 0RB     -0.812600
     15 N6         -2.4690   -0.0820    5.8000 n4        1 0RB     -0.669800
     16 C8         -3.1380   -0.0080    7.1590 c3        1 0RB      0.219100
     17 C9         -4.5940    0.0360    6.9980 cc        1 0RB     -0.347900
     18 N9         -5.4790   -1.0630    7.0910 na        1 0RB     -0.030600
     19 N8         -6.7330   -0.6440    6.9200 nc        1 0RB     -0.076800
     20 N7         -6.7600    0.6140    6.6930 nd        1 0RB     -0.323000
     21 C10        -5.4550    1.1290    6.7340 cd        1 0RB      0.352200
     22 H1          1.7350   -0.0680    5.6750 h4        1 0RB      0.109100
     23 H2         -1.6890    0.0230    0.9450 hn        1 0RB      0.490800
     24 H3         -1.0730    0.9350   -1.5410 hn        1 0RB      0.498800
     25 H4          0.2440    0.1120   -2.1820 hn        1 0RB      0.498800
     26 H5         -2.7760   -0.9350    5.3160 hn        1 0RB      0.470300
     27 H6         -2.7870   -0.8960    7.7620 hx        1 0RB      0.134700
     28 H7         -2.7700    0.9340    7.6670 hx        1 0RB      0.134700
     29 H8         -5.2720   -1.9820    7.4220 hn        1 0RB      0.348700
     30 H9         -5.2470    2.1910    6.5990 h4        1 0RB      0.078100
     31 H13        -1.0670   -0.7520   -1.5850 hn        1 0RB      0.498800
     32 H62        -2.7760    0.7230    5.2360 hn        1 0RB      0.470300
@<TRIPOS>BOND
     1    1   11 2   
     2    1   13 1   
     3    1   14 1   
     4    2    3 1   
     5    2   10 2   
     6    2   11 1   
     7    3    4 ar  
     8    3    9 ar  
     9    4   12 ar  
    10    4   13 1   
    11    5    6 ar  
    12    5    8 1   
    13    5   12 ar  
    14    6    9 ar  
    15    6   22 1   
    16    7    8 2   
    17    8   15 1   
    18   13   23 1   
    19   14   24 1   
    20   14   25 1   
    21   14   31 1   
    22   15   16 1   
    23   15   26 1   
    24   15   32 1   
    25   16   17 1   
    26   16   27 1   
    27   16   28 1   
    28   17   18 1   
    29   17   21 2   
    30   18   19 1   
    31   18   29 1   
    32   19   20 2   
    33   20   21 1   
    34   21   30 1   
@<TRIPOS>SUBSTRUCTURE
     1 0RB         1 TEMP              0 ****  ****    0 ROOT
