@<TRIPOS>MOLECULE
0RB
   30    32     1     0     0
SMALL
bcc


@<TRIPOS>ATOM
      1 C1          3.8650   -1.9850   -0.1540 cc        1 0RB      0.857100
      2 C2          4.2290    0.1780    0.7770 c         1 0RB      0.617000
      3 C3          2.7630    0.4790    0.5880 ca        1 0RB      0.214500
      4 C4          1.9330   -0.5250   -0.0420 ca        1 0RB      0.545900
      5 C5          0.1040    0.8650    0.1810 ca        1 0RB      0.295500
      6 C6          0.9260    1.8470    0.8080 ca        1 0RB      0.300900
      7 O2         -1.8940    1.9940    0.8230 o         1 0RB     -0.611100
      8 C7         -1.3610    1.1890    0.0310 c         1 0RB      0.573600
      9 N5          2.2390    1.6520    1.0050 nb        1 0RB     -0.547000
     10 O1          5.0130    1.0060    1.2510 o         1 0RB     -0.481100
     11 N2          4.6880   -1.0910    0.3860 nd        1 0RB     -0.735100
     12 N4          0.5910   -0.3170   -0.2420 nb        1 0RB     -0.677000
     13 N3          2.5060   -1.7230   -0.4810 na        1 0RB     -0.836900
     14 N1          4.3220   -3.2970   -0.4040 nh        1 0RB     -0.891800
     15 N6         -2.0530    0.6340   -1.0220 n         1 0RB     -0.539900
     16 C8         -3.4550    0.8990   -1.2160 c3        1 0RB      0.164300
     17 C9         -4.3640    0.2280   -0.2490 cc        1 0RB     -0.239900
     18 N9         -4.3780    0.4710    1.1340 na        1 0RB     -0.034600
     19 N8         -5.3240   -0.2700    1.7210 nc        1 0RB     -0.164800
     20 N7         -5.9310   -0.9760    0.8460 nd        1 0RB     -0.365000
     21 C10        -5.3860   -0.7260   -0.4260 cd        1 0RB      0.266200
     22 H1          0.4930    2.8010    1.1640 h4        1 0RB      0.070100
     23 H2          1.9070   -2.4570   -0.7940 hn        1 0RB      0.463800
     24 H3          5.3010   -3.4290   -0.2510 hn        1 0RB      0.427300
     25 H4          3.9760   -3.7290   -1.2320 hn        1 0RB      0.427300
     26 H5         -1.6720   -0.1550   -1.4920 hn        1 0RB      0.332500
     27 H6         -3.6150    2.0180   -1.1460 h1        1 0RB      0.082200
     28 H7         -3.7330    0.5580   -2.2550 h1        1 0RB      0.082200
     29 H8         -3.7890    1.1070    1.6310 hn        1 0RB      0.349700
     30 H9         -5.7510   -1.2160   -1.3250 h4        1 0RB      0.054100
@<TRIPOS>BOND
     1    1   11 2   
     2    1   13 1   
     3    1   14 1   
     4    2    3 1   
     5    2   10 2   
     6    2   11 1   
     7    3    4 ar  
     8    3    9 ar  
     9    4   12 ar  
    10    4   13 1   
    11    5    6 ar  
    12    5    8 1   
    13    5   12 ar  
    14    6    9 ar  
    15    6   22 1   
    16    7    8 2   
    17    8   15 1   
    18   13   23 1   
    19   14   24 1   
    20   14   25 1   
    21   15   16 1   
    22   15   26 1   
    23   16   17 1   
    24   16   27 1   
    25   16   28 1   
    26   17   18 1   
    27   17   21 2   
    28   18   19 1   
    29   18   29 1   
    30   19   20 2   
    31   20   21 1   
    32   21   30 1   
@<TRIPOS>SUBSTRUCTURE
     1 0RB         1 TEMP              0 ****  ****    0 ROOT
