@<TRIPOS>MOLECULE
0RB
   30    24     1     0     0
SMALL
bcc


@<TRIPOS>ATOM
      1 C1          1.3250    0.0170   -4.3610 c1        1 0RB      0.265000
      2 C2          3.4550    0.0170   -3.1470 c1        1 0RB      0.328000
      3 C3          2.7000    0.0170   -1.8410 c1        1 0RB     -0.138000
      4 C4          1.3270    0.0170   -1.8440 c1        1 0RB      0.090000
      5 C5          1.3140    0.0170    0.4990 c1        1 0RB     -0.057000
      6 C6          2.7030    0.0170    0.5020 c1        1 0RB     -0.099000
      7 O2          1.4360   -0.0160    2.8630 o         1 0RB     -0.372000
      8 C7          0.7120    0.0030    1.8880 c1        1 0RB      0.357000
      9 N5          3.3780    0.0170   -0.6600 n1        1 0RB     -0.021000
     10 O1          4.6690    0.0170   -3.1460 o         1 0RB     -0.242000
     11 N2          2.7540    0.0170   -4.3610 n2        1 0RB     -0.308000
     12 N4          0.6440    0.0170   -0.6640 n1        1 0RB     -0.151000
     13 N3          0.6000    0.0170   -3.1100 n2        1 0RB     -0.287000
     14 N1          0.6160    0.0200   -5.5900 n3        1 0RB     -0.330000
     15 N6         -0.6970    0.0020    2.0500 n2        1 0RB     -0.349000
     16 C8         -1.2630   -0.0560    3.3540 c3        1 0RB      0.041000
     17 C9         -2.7720   -0.0450    3.2510 c2        1 0RB     -0.143000
     18 N9         -3.5540   -1.1110    3.0510 n2        1 0RB     -0.179000
     19 N8         -4.8430   -0.6870    3.0190 n2        1 0RB      0.005000
     20 N7         -4.8470    0.6580    3.2020 n2        1 0RB     -0.102000
     21 C10        -3.5800    1.0600    3.3450 c1        1 0RB     -0.199000
     22 H1          3.1900    0.0200    1.3480 ha        1 0RB      0.207000
     23 H2         -0.3120    0.0170   -3.1110 hn        1 0RB      0.259000
     24 H3          1.0720    0.0220   -6.3800 hn        1 0RB      0.222500
     25 H4         -0.2960    0.0190   -5.5910 hn        1 0RB      0.222500
     26 H5         -1.2410    0.0570    1.3200 hn        1 0RB      0.246000
     27 H6         -0.9730   -0.8760    3.7980 h1        1 0RB      0.121500
     28 H7         -0.9660    0.7160    3.8720 h1        1 0RB      0.121500
     29 H8         -3.2710   -1.9730    2.9530 DU        1 0RB      0.245500
     30 H9         -3.2820    1.9780    3.4910 DU        1 0RB      0.245500
@<TRIPOS>BOND
     1    1   11 1   
     2    1   14 1   
     3    2   10 1   
     4    2   11 1   
     5    3    4 1   
     6    4   13 1   
     7    5    8 1   
     8    5   12 1   
     9    6    9 1   
    10    6   22 1   
    11    7    8 1   
    12   13   23 1   
    13   14   24 1   
    14   14   25 1   
    15   15   16 1   
    16   15   26 1   
    17   16   17 1   
    18   16   27 1   
    19   16   28 1   
    20   17   18 1   
    21   17   21 1   
    22   18   19 1   
    23   19   20 1   
    24   20   21 1   
@<TRIPOS>SUBSTRUCTURE
     1 0RB         1 TEMP              0 ****  ****    0 ROOT
