@<TRIPOS>MOLECULE
0RB
   32    34     1     0     0
SMALL
bcc


@<TRIPOS>ATOM
      1 C1          0.1670    0.0560   -0.0920 cc        1 0RB      0.751100
      2 C2          2.2020    0.0410    1.1430 c         1 0RB      0.605000
      3 C3          1.3700    0.0090    2.3980 ca        1 0RB      0.273500
      4 C4         -0.0820   -0.0000    2.2930 ca        1 0RB      0.557900
      5 C5         -0.2140   -0.0490    4.5990 ca        1 0RB      0.248500
      6 C6          1.2070   -0.0400    4.6980 ca        1 0RB      0.379900
      7 O2         -0.4580   -0.1090    6.9880 o         1 0RB     -0.365100
      8 C7         -0.9730   -0.0810    5.8810 c         1 0RB      0.450600
      9 N5          1.9820   -0.0110    3.5950 nb        1 0RB     -0.508000
     10 O1          3.4240    0.0470    1.1180 o         1 0RB     -0.321100
     11 N2          1.4690    0.0650   -0.0900 nd        1 0RB     -0.610100
     12 N4         -0.8660   -0.0290    3.4090 nb        1 0RB     -0.669000
     13 N3         -0.6910    0.0220    1.0220 na        1 0RB     -0.835900
     14 N1         -0.4880    0.0840   -1.4490 n4        1 0RB     -0.812600
     15 N6         -2.4710   -0.0810    5.7990 n4        1 0RB     -0.669800
     16 C8         -3.1410   -0.0080    7.1580 c3        1 0RB      0.219100
     17 C9         -4.5970    0.0340    6.9950 cc        1 0RB     -0.347900
     18 N9         -5.4800   -1.0670    7.0880 na        1 0RB     -0.030600
     19 N8         -6.7350   -0.6500    6.9140 nc        1 0RB     -0.076800
     20 N7         -6.7630    0.6080    6.6870 nd        1 0RB     -0.323000
     21 C10        -5.4590    1.1250    6.7300 cd        1 0RB      0.352200
     22 H1          1.7340   -0.0550    5.6780 h4        1 0RB      0.109100
     23 H2         -1.6860    0.0160    0.9440 hn        1 0RB      0.490800
     24 H3          0.2500    0.1060   -2.1800 hn        1 0RB      0.498800
     25 H4         -1.0710    0.9260   -1.5430 hn        1 0RB      0.498800
     26 H5         -2.7780    0.7220    5.2350 hn        1 0RB      0.470300
     27 H6         -2.7750    0.9350    7.6650 hx        1 0RB      0.134700
     28 H7         -2.7890   -0.8960    7.7610 hx        1 0RB      0.134700
     29 H8         -5.2720   -1.9850    7.4190 hn        1 0RB      0.348700
     30 H9         -5.2530    2.1870    6.5950 h4        1 0RB      0.078100
     31 H13        -1.0590   -0.7610   -1.5830 hn        1 0RB      0.498800
     32 H62        -2.7760   -0.9360    5.3150 hn        1 0RB      0.470300
@<TRIPOS>BOND
     1    1   11 2   
     2    1   13 1   
     3    1   14 1   
     4    2    3 1   
     5    2   10 2   
     6    2   11 1   
     7    3    4 ar  
     8    3    9 ar  
     9    4   12 ar  
    10    4   13 1   
    11    5    6 ar  
    12    5    8 1   
    13    5   12 ar  
    14    6    9 ar  
    15    6   22 1   
    16    7    8 2   
    17    8   15 1   
    18   13   23 1   
    19   14   24 1   
    20   14   25 1   
    21   14   31 1   
    22   15   16 1   
    23   15   26 1   
    24   15   32 1   
    25   16   17 1   
    26   16   27 1   
    27   16   28 1   
    28   17   18 1   
    29   17   21 2   
    30   18   19 1   
    31   18   29 1   
    32   19   20 2   
    33   20   21 1   
    34   21   30 1   
@<TRIPOS>SUBSTRUCTURE
     1 0RB         1 TEMP              0 ****  ****    0 ROOT
