@<TRIPOS>MOLECULE
0RB
   32    34     1     0     0
SMALL
bcc


@<TRIPOS>ATOM
      1 C1          0.1610    0.0640   -0.0940 cc        1 0RB      0.751100
      2 C2          2.1980    0.0300    1.1370 c         1 0RB      0.605000
      3 C3          1.3670   -0.0020    2.3930 ca        1 0RB      0.273500
      4 C4         -0.0850   -0.0010    2.2910 ca        1 0RB      0.557900
      5 C5         -0.2130   -0.0590    4.5970 ca        1 0RB      0.248500
      6 C6          1.2080   -0.0590    4.6930 ca        1 0RB      0.379900
      7 O2         -0.4530   -0.1260    6.9860 o         1 0RB     -0.365100
      8 C7         -0.9710   -0.0920    5.8800 c         1 0RB      0.450600
      9 N5          1.9810   -0.0310    3.5890 nb        1 0RB     -0.508000
     10 O1          3.4190    0.0290    1.1090 o         1 0RB     -0.321100
     11 N2          1.4630    0.0650   -0.0950 nd        1 0RB     -0.610100
     12 N4         -0.8670   -0.0310    3.4080 nb        1 0RB     -0.669000
     13 N3         -0.6960    0.0310    1.0200 na        1 0RB     -0.835900
     14 N1         -0.4960    0.1020   -1.4500 nz        1 0RB     -0.812600
     15 N6         -2.4680   -0.0840    5.8010 ny        1 0RB     -0.669800
     16 C8         -3.1360   -0.0120    7.1600 c3        1 0RB      0.219100
     17 C9         -4.5920    0.0370    7.0000 cc        1 0RB     -0.347900
     18 N9         -5.4800   -1.0600    7.0910 na        1 0RB     -0.030600
     19 N8         -6.7330   -0.6370    6.9210 nc        1 0RB     -0.076800
     20 N7         -6.7560    0.6220    6.6980 nd        1 0RB     -0.323000
     21 C10        -5.4490    1.1330    6.7400 cd        1 0RB      0.352200
     22 H1          1.7360   -0.0830    5.6720 h4        1 0RB      0.109100
     23 H2         -1.6910    0.0310    0.9450 hn        1 0RB      0.490800
     24 H3         -1.0740    0.9480   -1.5390 hn        1 0RB      0.498800
     25 H4          0.2410    0.1230   -2.1830 hn        1 0RB      0.498800
     26 H5         -2.7780   -0.9350    5.3140 hn        1 0RB      0.470300
     27 H6         -2.7870   -0.9040    7.7600 hx        1 0RB      0.134700
     28 H7         -2.7640    0.9270    7.6700 hx        1 0RB      0.134700
     29 H8         -5.2760   -1.9800    7.4190 hn        1 0RB      0.348700
     30 H9         -5.2380    2.1950    6.6090 h4        1 0RB      0.078100
     31 H13        -1.0730   -0.7390   -1.5870 hn        1 0RB      0.498800
     32 H62        -2.7720    0.7230    5.2390 hn        1 0RB      0.470300
@<TRIPOS>BOND
     1    1   11 2   
     2    1   13 1   
     3    1   14 1   
     4    2    3 1   
     5    2   10 2   
     6    2   11 1   
     7    3    4 ar  
     8    3    9 ar  
     9    4   12 ar  
    10    4   13 1   
    11    5    6 ar  
    12    5    8 1   
    13    5   12 ar  
    14    6    9 ar  
    15    6   22 1   
    16    7    8 2   
    17    8   15 1   
    18   13   23 1   
    19   14   24 1   
    20   14   25 1   
    21   14   31 1   
    22   15   16 1   
    23   15   26 1   
    24   15   32 1   
    25   16   17 1   
    26   16   27 1   
    27   16   28 1   
    28   17   18 1   
    29   17   21 2   
    30   18   19 1   
    31   18   29 1   
    32   19   20 2   
    33   20   21 1   
    34   21   30 1   
@<TRIPOS>SUBSTRUCTURE
     1 0RB         1 TEMP              0 ****  ****    0 ROOT
