@<TRIPOS>MOLECULE
0RD
   55    58     1     0     0
SMALL
bcc


@<TRIPOS>ATOM
      1 CL1         0.7370    0.9900    0.0690 cl        1 0RD     -0.080400
      2 C23         2.4240    0.8550   -0.0660 ca        1 0RD     -0.055600
      3 C11         3.1900    0.5520    1.0490 ca        1 0RD      0.003000
      4 C30         3.0380    1.0580   -1.3160 ca        1 0RD     -0.015000
      5 C22         4.4100    0.9360   -1.4340 ca        1 0RD     -0.224000
      6 C18         5.1870    0.6110   -0.3010 ca        1 0RD      0.277100
      7 O32         6.5380    0.4340   -0.3540 os        1 0RD     -0.347900
      8 C34         7.1910    0.6970   -1.6070 c3        1 0RD      0.125700
      9 C3          4.5920    0.4300    0.9670 ca        1 0RD     -0.450500
     10 S1          5.4330    0.1730    2.3900 sy        1 0RD      1.539200
     11 O12         6.4280    1.1400    2.6010 o         1 0RD     -0.645300
     12 O13         4.5010    0.0290    3.4370 o         1 0RD     -0.645300
     13 N2          6.1620   -1.3010    2.1560 nh        1 0RD     -0.656900
     14 C9          5.3990   -2.5210    1.8790 c3        1 0RD      0.212800
     15 C17         6.4040   -3.7020    1.8150 c3        1 0RD     -0.043100
     16 C5          7.7230   -3.0460    2.0630 ca        1 0RD     -0.089300
     17 C4          7.5190   -1.6410    2.2530 ca        1 0RD      0.207600
     18 C10         8.9900   -3.6070    2.1290 ca        1 0RD     -0.031300
     19 C33         9.1950   -5.0610    1.9350 c3        1 0RD     -0.060800
     20 C16        10.0830   -2.7600    2.3730 ca        1 0RD     -0.143000
     21 C8          9.8830   -1.3890    2.5560 ca        1 0RD     -0.140600
     22 C7          8.6090   -0.8020    2.5100 ca        1 0RD     -0.107000
     23 C6         11.0240   -0.5010    2.8170 c         1 0RD      0.585700
     24 O20        11.2020    0.2950    3.7260 o         1 0RD     -0.427100
     25 N14        12.1530   -0.5720    1.7970 n4        1 0RD     -0.533200
     26 C24        11.7350   -0.0090    0.5100 ca        1 0RD     -0.106400
     27 C28        11.1750   -0.8570   -0.4640 ca        1 0RD     -0.115000
     28 C25        10.7000   -0.3000   -1.6450 ca        1 0RD     -0.099000
     29 C29        11.8730    1.3720    0.2770 ca        1 0RD     -0.115000
     30 C26        11.4030    1.9010   -0.9210 ca        1 0RD     -0.099000
     31 C19        10.7840    1.0790   -1.8690 ca        1 0RD     -0.074600
     32 C15        10.1350    1.6880   -3.1210 c         1 0RD      0.913200
     33 O21        10.7100    2.6660   -3.6500 o         1 0RD     -0.791800
     34 O27         9.0520    1.1520   -3.4840 o         1 0RD     -0.791800
     35 H1          2.7000    0.4090    2.0330 ha        1 0RD      0.179000
     36 H2          2.4270    1.3140   -2.1970 ha        1 0RD      0.157000
     37 H3          4.8940    1.0990   -2.4100 ha        1 0RD      0.172000
     38 H4          6.8310   -0.0080   -2.3920 h1        1 0RD      0.074033
     39 H5          7.0410    1.7580   -1.9180 h1        1 0RD      0.074033
     40 H6          8.2720    0.5090   -1.3780 h1        1 0RD      0.074033
     41 H7          4.8600   -2.4110    0.8990 h1        1 0RD      0.067200
     42 H8          4.6480   -2.6830    2.7000 h1        1 0RD      0.067200
     43 H9          6.3750   -4.1970    0.8130 hc        1 0RD      0.073700
     44 H10         6.1740   -4.4680    2.5960 hc        1 0RD      0.073700
     45 H11        10.1650   -5.3960    2.3770 hc        1 0RD      0.055033
     46 H12         9.2010   -5.3020    0.8410 hc        1 0RD      0.055033
     47 H13         8.3670   -5.6400    2.4140 hc        1 0RD      0.055033
     48 H14        11.0880   -3.2000    2.4440 ha        1 0RD      0.125000
     49 H15         8.4790    0.2860    2.6610 ha        1 0RD      0.205000
     50 H16        12.9610   -0.0420    2.1460 hn        1 0RD      0.447800
     51 H17        11.0870   -1.9400   -0.2920 ha        1 0RD      0.134000
     52 H18        10.2260   -0.9310   -2.4150 ha        1 0RD      0.178000
     53 H19        12.3320    2.0340    1.0270 ha        1 0RD      0.134000
     54 H20        11.5050    2.9780   -1.1420 ha        1 0RD      0.178000
     55 H142       12.4180   -1.5510    1.6590 hn        1 0RD      0.447800
@<TRIPOS>BOND
     1    1    2 1   
     2    2    3 ar  
     3    2    4 ar  
     4    3    9 ar  
     5    3   35 1   
     6    4    5 ar  
     7    4   36 1   
     8    5    6 ar  
     9    5   37 1   
    10    6    7 1   
    11    6    9 ar  
    12    7    8 1   
    13    8   38 1   
    14    8   39 1   
    15    8   40 1   
    16    9   10 1   
    17   10   11 2   
    18   10   12 2   
    19   10   13 1   
    20   13   14 1   
    21   13   17 1   
    22   14   15 1   
    23   14   41 1   
    24   14   42 1   
    25   15   16 1   
    26   15   43 1   
    27   15   44 1   
    28   16   17 ar  
    29   16   18 ar  
    30   17   22 ar  
    31   18   19 1   
    32   18   20 ar  
    33   19   45 1   
    34   19   46 1   
    35   19   47 1   
    36   20   21 ar  
    37   20   48 1   
    38   21   22 ar  
    39   21   23 1   
    40   22   49 1   
    41   23   24 2   
    42   23   25 1   
    43   25   26 1   
    44   25   50 1   
    45   25   55 1   
    46   26   27 ar  
    47   26   29 ar  
    48   27   28 ar  
    49   27   51 1   
    50   28   31 ar  
    51   28   52 1   
    52   29   30 ar  
    53   29   53 1   
    54   30   31 ar  
    55   30   54 1   
    56   31   32 1   
    57   32   33 1   
    58   32   34 1   
@<TRIPOS>SUBSTRUCTURE
     1 0RD         1 TEMP              0 ****  ****    0 ROOT
