@<TRIPOS>MOLECULE
0RD
   54    57     1     0     0
SMALL
bcc


@<TRIPOS>ATOM
      1 Cl1        -0.1970   -0.8720    0.7970 cl        1 0RD     -0.096400
      2 C23         1.4380   -0.4970    0.5100 ca        1 0RD     -0.056600
      3 C11         2.3310   -0.4210    1.5730 ca        1 0RD      0.008000
      4 C30         1.8730   -0.2630   -0.8030 ca        1 0RD     -0.028000
      5 C22         3.2040    0.0380   -1.0410 ca        1 0RD     -0.228000
      6 C18         4.1090    0.1020    0.0360 ca        1 0RD      0.261100
      7 O32         5.4410    0.3670   -0.1160 os        1 0RD     -0.317900
      8 C34         5.9210    0.6510   -1.4310 c3        1 0RD      0.100700
      9 C3          3.6860   -0.1170    1.3650 ca        1 0RD     -0.405500
     10 S1          4.6950    0.0250    2.7220 sy        1 0RD      1.527200
     11 O12         5.5070    1.1610    2.6100 o         1 0RD     -0.644300
     12 O13         3.8580   -0.0200    3.8650 o         1 0RD     -0.644300
     13 N2          5.5790   -1.3490    2.7000 nh        1 0RD     -0.680900
     14 C9          5.1110   -2.5770    3.3480 c3        1 0RD      0.219800
     15 C17         6.2150   -3.6530    3.1810 c3        1 0RD     -0.033100
     16 C5          7.2680   -2.9480    2.3890 ca        1 0RD     -0.119300
     17 C4          6.8500   -1.6050    2.1380 ca        1 0RD      0.166600
     18 C10         8.4810   -3.4170    1.9110 ca        1 0RD     -0.048300
     19 C33         8.9380   -4.8000    2.1750 c3        1 0RD     -0.051800
     20 C16         9.2870   -2.5400    1.1620 ca        1 0RD     -0.135000
     21 C8          8.8780   -1.2320    0.9160 ca        1 0RD     -0.108600
     22 C7          7.6630   -0.7350    1.4110 ca        1 0RD     -0.117000
     23 C6          9.7000   -0.3250    0.0420 c         1 0RD      0.674700
     24 O20         9.1490    0.2940   -0.8930 o         1 0RD     -0.621100
     25 N14        11.0390   -0.2600    0.3420 ns        1 0RD     -0.445100
     26 C24        12.0470    0.4620   -0.3380 ca        1 0RD      0.012600
     27 C28        13.3250    0.5440    0.2680 ca        1 0RD     -0.184000
     28 C25        14.3610    1.2040   -0.3800 ca        1 0RD     -0.090500
     29 C29        11.8470    1.0710   -1.5900 ca        1 0RD     -0.184000
     30 C26        12.9030    1.7300   -2.2180 ca        1 0RD     -0.090500
     31 C19        14.1660    1.8000   -1.6300 ca        1 0RD     -0.133600
     32 C15        15.3160    2.5070   -2.3320 c         1 0RD      0.909200
     33 O21        15.0890    3.0260   -3.4620 o         1 0RD     -0.830300
     34 O27        16.4360    2.5330   -1.7480 o         1 0RD     -0.830300
     35 H1          1.9750   -0.5870    2.6080 ha        1 0RD      0.175000
     36 H2          1.1610   -0.3170   -1.6410 ha        1 0RD      0.148000
     37 H3          3.5490    0.2260   -2.0680 ha        1 0RD      0.154000
     38 H4          7.0250    0.8010   -1.2640 h1        1 0RD      0.069033
     39 H5          5.4400    1.5770   -1.8260 h1        1 0RD      0.069033
     40 H6          5.7390   -0.2170   -2.1090 h1        1 0RD      0.069033
     41 H7          4.1560   -2.9160    2.8620 h1        1 0RD      0.054200
     42 H8          4.9110   -2.3720    4.4350 h1        1 0RD      0.054200
     43 H9          6.6010   -3.9830    4.1760 hc        1 0RD      0.059700
     44 H10         5.8210   -4.5470    2.6380 hc        1 0RD      0.059700
     45 H11         9.6330   -4.8120    3.0520 hc        1 0RD      0.044700
     46 H12         9.4840   -5.2120    1.2900 hc        1 0RD      0.044700
     47 H13         8.0720   -5.4700    2.4040 hc        1 0RD      0.044700
     48 H14        10.2400   -2.9110    0.7550 ha        1 0RD      0.144000
     49 H15         7.3650    0.3080    1.2030 ha        1 0RD      0.187000
     50 H16        11.3410   -0.7370    1.1630 hn        1 0RD      0.310500
     51 H17        13.5080    0.0850    1.2500 ha        1 0RD      0.124000
     52 H18        15.3620    1.2720    0.0790 ha        1 0RD      0.155000
     53 H19        10.8620    1.0350   -2.0800 ha        1 0RD      0.124000
     54 H20        12.7580    2.2090   -3.2010 ha        1 0RD      0.155000
@<TRIPOS>BOND
     1    1    2 1   
     2    2    3 ar  
     3    2    4 ar  
     4    3    9 ar  
     5    3   35 1   
     6    4    5 ar  
     7    4   36 1   
     8    5    6 ar  
     9    5   37 1   
    10    6    7 1   
    11    6    9 ar  
    12    7    8 1   
    13    8   38 1   
    14    8   39 1   
    15    8   40 1   
    16    9   10 1   
    17   10   11 2   
    18   10   12 2   
    19   10   13 1   
    20   13   14 1   
    21   13   17 1   
    22   14   15 1   
    23   14   41 1   
    24   14   42 1   
    25   15   16 1   
    26   15   43 1   
    27   15   44 1   
    28   16   17 ar  
    29   16   18 ar  
    30   17   22 ar  
    31   18   19 1   
    32   18   20 ar  
    33   19   45 1   
    34   19   46 1   
    35   19   47 1   
    36   20   21 ar  
    37   20   48 1   
    38   21   22 ar  
    39   21   23 1   
    40   22   49 1   
    41   23   24 2   
    42   23   25 1   
    43   25   26 1   
    44   25   50 1   
    45   26   27 ar  
    46   26   29 ar  
    47   27   28 ar  
    48   27   51 1   
    49   28   31 ar  
    50   28   52 1   
    51   29   30 ar  
    52   29   53 1   
    53   30   31 ar  
    54   30   54 1   
    55   31   32 1   
    56   32   33 1   
    57   32   34 1   
@<TRIPOS>SUBSTRUCTURE
     1 0RD         1 TEMP              0 ****  ****    0 ROOT
