@<TRIPOS>MOLECULE
0RD
   54    47     1     0     0
SMALL
bcc


@<TRIPOS>ATOM
      1 CL1        -5.3460   -3.9870   -3.1230 cl        1 0RD      0.015000
      2 C23        -4.1050   -2.9870   -3.8790 c1        1 0RD     -0.120000
      3 C11        -3.0520   -2.4990   -3.1150 c1        1 0RD     -0.040000
      4 C30        -4.1300   -2.7640   -5.2490 c1        1 0RD     -0.028000
      5 C22        -3.0870   -2.0420   -5.8630 c1        1 0RD     -0.226000
      6 C18        -2.0310   -1.5520   -5.0950 c1        1 0RD      0.196000
      7 O32        -0.9930   -0.7990   -5.7100 os        1 0RD     -0.216000
      8 C34        -0.3980   -1.4390   -6.8420 c3        1 0RD     -0.072000
      9 C3         -2.0070   -1.7760   -3.7290 c1        1 0RD     -0.476000
     10 S1         -0.7480   -1.0740   -2.7550 ss        1 0RD      2.864000
     11 O12         0.3740   -0.7020   -3.5540 o         1 0RD     -0.924500
     12 O13        -0.1650   -2.0440   -1.8890 o         1 0RD     -0.924500
     13 N2         -1.3340    0.2270   -1.8890 n2        1 0RD     -0.773000
     14 C9         -2.3390    1.1390   -2.3190 c3        1 0RD     -0.012000
     15 C17        -2.6220    2.0500   -1.1950 c3        1 0RD     -0.119000
     16 C5         -1.6390    1.7410   -0.1060 c2        1 0RD     -0.113000
     17 C4         -0.7960    0.7190   -0.5640 c2        1 0RD      0.085000
     18 C10        -1.4300    2.3050    1.1690 c1        1 0RD     -0.038000
     19 C33        -2.4280    3.4010    1.7240 c2        1 0RD     -0.178000
     20 C16        -0.3890    1.8470    1.9690 c2        1 0RD     -0.138000
     21 C8          0.4490    0.8290    1.5100 c1        1 0RD     -0.076000
     22 C7          0.2420    0.2640    0.2370 c1        1 0RD     -0.128000
     23 C6          1.6870    0.4270    2.3370 c2        1 0RD      0.338000
     24 O20         2.3400   -0.5220    2.0110 o         1 0RD     -0.348000
     25 N14         1.9720    1.1070    3.5790 n         1 0RD     -0.307000
     26 C24         3.0690    0.6310    4.4500 c2        1 0RD      0.022000
     27 C28         4.4170    0.8970    4.1010 c2        1 0RD     -0.168000
     28 C25         5.4500    0.4430    4.9180 c1        1 0RD     -0.092000
     29 C29         2.7790   -0.0840    5.6070 c1        1 0RD     -0.204000
     30 C26         3.8240   -0.5430    6.4320 c1        1 0RD     -0.040000
     31 C19         5.1550   -0.2800    6.0880 c1        1 0RD     -0.476000
     32 C15         6.2650   -0.8320    6.9250 c1        1 0RD      0.358000
     33 O21         6.7550   -0.1460    7.8380 o         1 0RD     -0.565500
     34 O27         6.6890   -1.9750    6.7140 o         1 0RD     -0.565500
     35 H1         -3.0350   -2.6590   -2.1420 ha        1 0RD      0.170500
     36 H2         -4.9160   -3.0340   -5.7760 ha        1 0RD      0.153000
     37 H3         -3.0990   -1.9010   -6.7880 ha        1 0RD      0.145000
     38 H4         -0.4970   -2.4210   -6.7580 h1        1 0RD      0.090333
     39 H5         -0.8530   -1.1280   -7.6780 h1        1 0RD      0.090333
     40 H6          0.5520   -1.2100   -6.8830 h1        1 0RD      0.090333
     41 H7         -1.9980    1.6610   -3.0820 h1        1 0RD      0.098000
     42 H8         -3.1390    0.6510   -2.5410 h1        1 0RD      0.098000
     43 H9         -2.4970    2.9860   -1.4920 hc        1 0RD      0.097500
     44 H10        -3.5080    1.8880   -0.8730 hc        1 0RD      0.097500
     45 H11        -2.0960    3.7370    2.6050 ha        1 0RD      0.084333
     46 H12        -2.4820    4.1380    1.0960 ha        1 0RD      0.084333
     47 H13        -3.3130    3.0070    1.8390 ha        1 0RD      0.084333
     48 H14        -0.2460    2.2320    2.8410 ha        1 0RD      0.145000
     49 H15         0.8270   -0.4470   -0.0810 ha        1 0RD      0.168000
     50 H16         1.4010    1.7730    3.8810 hn        1 0RD      0.220000
     51 H17         4.6240    1.4070    3.2780 ha        1 0RD      0.149000
     52 H18         6.4100    0.6730    4.6950 ha        1 0RD      0.156000
     53 H19         1.8270   -0.2690    5.8550 ha        1 0RD      0.102000
     54 H20         3.6120   -1.0640    7.2700 ha        1 0RD      0.170500
@<TRIPOS>BOND
     1    1    2 1   
     2    2    4 1   
     3    3    9 1   
     4    3   35 1   
     5    4   36 1   
     6    5    6 1   
     7    5   37 1   
     8    6    7 1   
     9    7    8 1   
    10    8   38 1   
    11    8   39 1   
    12    8   40 1   
    13   10   11 1   
    14   10   12 1   
    15   13   14 1   
    16   13   17 1   
    17   14   15 1   
    18   14   41 1   
    19   14   42 1   
    20   15   16 1   
    21   15   43 1   
    22   15   44 1   
    23   16   17 1   
    24   16   18 1   
    25   17   22 1   
    26   18   20 1   
    27   19   45 1   
    28   19   46 1   
    29   19   47 1   
    30   20   21 1   
    31   20   48 1   
    32   21   23 1   
    33   22   49 1   
    34   23   24 1   
    35   23   25 1   
    36   25   26 1   
    37   25   50 1   
    38   26   27 1   
    39   26   29 1   
    40   27   28 1   
    41   27   51 1   
    42   28   52 1   
    43   29   53 1   
    44   30   31 1   
    45   30   54 1   
    46   32   33 1   
    47   32   34 1   
@<TRIPOS>SUBSTRUCTURE
     1 0RD         1 TEMP              0 ****  ****    0 ROOT
