@<TRIPOS>MOLECULE
0RD
   54    57     1     0     0
SMALL
bcc


@<TRIPOS>ATOM
      1 CL1        -0.1970   -0.8690    0.8270 cl        1 0RD     -0.096400
      2 C23         1.4360   -0.4930    0.5360 ca        1 0RD     -0.056600
      3 C11         2.3340   -0.4230    1.5950 ca        1 0RD      0.008000
      4 C30         1.8670   -0.2510   -0.7780 ca        1 0RD     -0.028000
      5 C22         3.1970    0.0510   -1.0190 ca        1 0RD     -0.228000
      6 C18         4.1060    0.1090    0.0550 ca        1 0RD      0.261100
      7 O32         5.4380    0.3740   -0.1000 os        1 0RD     -0.317900
      8 C34         5.9130    0.6660   -1.4160 c3        1 0RD      0.100700
      9 C3          3.6880   -0.1190    1.3840 ca        1 0RD     -0.405500
     10 S1          4.7020    0.0140    2.7380 sy        1 0RD      1.527200
     11 O12         5.5140    1.1510    2.6300 o         1 0RD     -0.644300
     12 O13         3.8700   -0.0380    3.8840 o         1 0RD     -0.644300
     13 N2          5.5860   -1.3600    2.7040 nh        1 0RD     -0.680900
     14 C9          5.1190   -2.5920    3.3450 c3        1 0RD      0.219800
     15 C17         6.2220   -3.6670    3.1660 c3        1 0RD     -0.033100
     16 C5          7.2720   -2.9580    2.3750 ca        1 0RD     -0.119300
     17 C4          6.8550   -1.6130    2.1340 ca        1 0RD      0.166600
     18 C10         8.4830   -3.4240    1.8890 ca        1 0RD     -0.048300
     19 C33         8.9400   -4.8100    2.1410 c3        1 0RD     -0.051800
     20 C16         9.2860   -2.5430    1.1430 ca        1 0RD     -0.135000
     21 C8          8.8780   -1.2330    0.9070 ca        1 0RD     -0.108600
     22 C7          7.6650   -0.7390    1.4100 ca        1 0RD     -0.117000
     23 C6          9.6960   -0.3200    0.0360 c         1 0RD      0.674700
     24 O20         9.1420    0.3070   -0.8910 o         1 0RD     -0.621100
     25 N14        11.0370   -0.2590    0.3320 n         1 0RD     -0.445100
     26 C24        12.0450    0.4640   -0.3480 ca        1 0RD      0.012600
     27 C28        13.3300    0.5220    0.2430 ca        1 0RD     -0.184000
     28 C25        14.3650    1.1850   -0.4050 ca        1 0RD     -0.090500
     29 C29        11.8360    1.0980   -1.5870 ca        1 0RD     -0.184000
     30 C26        12.8910    1.7580   -2.2160 ca        1 0RD     -0.090500
     31 C19        14.1610    1.8060   -1.6410 ca        1 0RD     -0.133600
     32 C15        15.3100    2.5140   -2.3440 c         1 0RD      0.909200
     33 O21        15.0750    3.0560   -3.4610 o         1 0RD     -0.830300
     34 O27        16.4370    2.5180   -1.7730 o         1 0RD     -0.830300
     35 H1          1.9820   -0.5960    2.6310 ha        1 0RD      0.175000
     36 H2          1.1510   -0.2990   -1.6130 ha        1 0RD      0.148000
     37 H3          3.5380    0.2450   -2.0470 ha        1 0RD      0.154000
     38 H4          7.0170    0.8150   -1.2520 h1        1 0RD      0.069033
     39 H5          5.7270   -0.1980   -2.0980 h1        1 0RD      0.069033
     40 H6          5.4290    1.5940   -1.8030 h1        1 0RD      0.069033
     41 H7          4.1620   -2.9270    2.8610 h1        1 0RD      0.054200
     42 H8          4.9240   -2.3940    4.4350 h1        1 0RD      0.054200
     43 H9          5.8250   -4.5570    2.6190 hc        1 0RD      0.059700
     44 H10         6.6120   -4.0050    4.1570 hc        1 0RD      0.059700
     45 H11         8.0750   -5.4810    2.3690 hc        1 0RD      0.044700
     46 H12         9.6380   -4.8280    3.0150 hc        1 0RD      0.044700
     47 H13         9.4820   -5.2160    1.2520 hc        1 0RD      0.044700
     48 H14        10.2380   -2.9120    0.7300 ha        1 0RD      0.144000
     49 H15         7.3670    0.3060    1.2110 ha        1 0RD      0.187000
     50 H16        11.3430   -0.7460    1.1450 hn        1 0RD      0.310500
     51 H17        13.5200    0.0440    1.2140 ha        1 0RD      0.124500
     52 H18        15.3720    1.2340    0.0430 ha        1 0RD      0.155000
     53 H19        10.8450    1.0810   -2.0660 ha        1 0RD      0.124500
     54 H20        12.7390    2.2560   -3.1880 ha        1 0RD      0.155000
@<TRIPOS>BOND
     1    1    2 1   
     2    2    3 ar  
     3    2    4 ar  
     4    3    9 ar  
     5    3   35 1   
     6    4    5 ar  
     7    4   36 1   
     8    5    6 ar  
     9    5   37 1   
    10    6    7 1   
    11    6    9 ar  
    12    7    8 1   
    13    8   38 1   
    14    8   39 1   
    15    8   40 1   
    16    9   10 1   
    17   10   11 2   
    18   10   12 2   
    19   10   13 1   
    20   13   14 1   
    21   13   17 1   
    22   14   15 1   
    23   14   41 1   
    24   14   42 1   
    25   15   16 1   
    26   15   43 1   
    27   15   44 1   
    28   16   17 ar  
    29   16   18 ar  
    30   17   22 ar  
    31   18   19 1   
    32   18   20 ar  
    33   19   45 1   
    34   19   46 1   
    35   19   47 1   
    36   20   21 ar  
    37   20   48 1   
    38   21   22 ar  
    39   21   23 1   
    40   22   49 1   
    41   23   24 2   
    42   23   25 1   
    43   25   26 1   
    44   25   50 1   
    45   26   27 ar  
    46   26   29 ar  
    47   27   28 ar  
    48   27   51 1   
    49   28   31 ar  
    50   28   52 1   
    51   29   30 ar  
    52   29   53 1   
    53   30   31 ar  
    54   30   54 1   
    55   31   32 1   
    56   32   33 1   
    57   32   34 1   
@<TRIPOS>SUBSTRUCTURE
     1 0RD         1 TEMP              0 ****  ****    0 ROOT
