@<TRIPOS>MOLECULE
0RD
   54    57     1     0     0
SMALL
bcc


@<TRIPOS>ATOM
      1 CL1        -7.4950   -1.8240    0.6860 cl        1 0RD     -0.096400
      2 C23        -5.8010   -1.7500    0.5560 ca        1 0RD     -0.056600
      3 C11        -5.2080   -0.8320   -0.3030 ca        1 0RD      0.008000
      4 C30        -5.0090   -2.6240    1.3170 ca        1 0RD     -0.028000
      5 C22        -3.6290   -2.5640    1.2170 ca        1 0RD     -0.228000
      6 C18        -3.0320   -1.6240    0.3550 ca        1 0RD      0.261100
      7 O32        -1.6800   -1.4820    0.2180 os        1 0RD     -0.317900
      8 C34        -0.8360   -2.3780    0.9450 c3        1 0RD      0.100700
      9 C3         -3.8130   -0.7460   -0.4280 ca        1 0RD     -0.405500
     10 S1         -3.1730    0.3550   -1.5500 sy        1 0RD      1.527200
     11 O12        -2.1500   -0.2460   -2.2950 o         1 0RD     -0.644300
     12 O13        -4.2630    0.8590   -2.3010 o         1 0RD     -0.644300
     13 N2         -2.6020    1.5740   -0.6230 nh        1 0RD     -0.680900
     14 C9         -3.4530    2.6960   -0.2180 c3        1 0RD      0.219800
     15 C17        -2.5790    3.6830    0.5980 c3        1 0RD     -0.033100
     16 C5         -1.2430    3.0170    0.6330 ca        1 0RD     -0.119300
     17 C4         -1.3080    1.7900   -0.0990 ca        1 0RD      0.166600
     18 C10        -0.0670    3.4170    1.2450 ca        1 0RD     -0.048300
     19 C33         0.0210    4.6780    2.0150 c3        1 0RD     -0.051800
     20 C16         1.0610    2.5830    1.1360 ca        1 0RD     -0.136000
     21 C8          0.9960    1.3870    0.4260 ca        1 0RD     -0.108600
     22 C7         -0.1820    0.9760   -0.2170 ca        1 0RD     -0.117000
     23 C6          2.1750    0.4550    0.3860 c         1 0RD      0.674700
     24 O20         2.0130   -0.7550    0.6550 o         1 0RD     -0.621100
     25 N14         3.3790    1.0300    0.0610 n         1 0RD     -0.445100
     26 C24         4.6500    0.4110    0.0030 ca        1 0RD      0.012600
     27 C28         5.7230    1.1540   -0.5460 ca        1 0RD     -0.184000
     28 C25         7.0000    0.6080   -0.5870 ca        1 0RD     -0.090500
     29 C29         4.8980   -0.8860    0.4880 ca        1 0RD     -0.184000
     30 C26         6.1880   -1.4120    0.4340 ca        1 0RD     -0.090500
     31 C19         7.2490   -0.6770   -0.0950 ca        1 0RD     -0.133600
     32 C15         8.6560   -1.2550   -0.1330 c         1 0RD      0.909200
     33 O21         8.8310   -2.4180    0.3280 o         1 0RD     -0.830300
     34 O27         9.5750   -0.5370   -0.6200 o         1 0RD     -0.830300
     35 H1         -5.8400   -0.1590   -0.9150 ha        1 0RD      0.175000
     36 H2         -5.4830   -3.3560    1.9900 ha        1 0RD      0.148000
     37 H3         -3.0060   -3.2490    1.8090 ha        1 0RD      0.154000
     38 H4         -1.0100   -2.2730    2.0420 h1        1 0RD      0.069033
     39 H5         -1.0090   -3.4280    0.6090 h1        1 0RD      0.069033
     40 H6          0.1960   -2.0220    0.6680 h1        1 0RD      0.069033
     41 H7         -3.8750    3.1940   -1.1330 h1        1 0RD      0.054200
     42 H8         -4.3030    2.3130    0.4100 h1        1 0RD      0.054200
     43 H9         -2.5280    4.6790    0.0930 hc        1 0RD      0.059700
     44 H10        -2.9950    3.8280    1.6250 hc        1 0RD      0.059700
     45 H11        -0.0200    4.4600    3.1120 hc        1 0RD      0.044700
     46 H12         0.9830    5.2060    1.8000 hc        1 0RD      0.044700
     47 H13        -0.8260    5.3630    1.7610 hc        1 0RD      0.044700
     48 H14         1.9940    2.8820    1.6380 ha        1 0RD      0.144000
     49 H15        -0.2040    0.0250   -0.7780 ha        1 0RD      0.187000
     50 H16         3.3630    1.9880   -0.2120 hn        1 0RD      0.310500
     51 H17         5.5570    2.1670   -0.9410 ha        1 0RD      0.124000
     52 H18         7.8450    1.1770   -1.0080 ha        1 0RD      0.155000
     53 H19         4.0820   -1.4930    0.9090 ha        1 0RD      0.124000
     54 H20         6.3940   -2.4270    0.8130 ha        1 0RD      0.155000
@<TRIPOS>BOND
     1    1    2 1   
     2    2    3 ar  
     3    2    4 ar  
     4    3    9 ar  
     5    3   35 1   
     6    4    5 ar  
     7    4   36 1   
     8    5    6 ar  
     9    5   37 1   
    10    6    7 1   
    11    6    9 ar  
    12    7    8 1   
    13    8   38 1   
    14    8   39 1   
    15    8   40 1   
    16    9   10 1   
    17   10   11 2   
    18   10   12 2   
    19   10   13 1   
    20   13   14 1   
    21   13   17 1   
    22   14   15 1   
    23   14   41 1   
    24   14   42 1   
    25   15   16 1   
    26   15   43 1   
    27   15   44 1   
    28   16   17 ar  
    29   16   18 ar  
    30   17   22 ar  
    31   18   19 1   
    32   18   20 ar  
    33   19   45 1   
    34   19   46 1   
    35   19   47 1   
    36   20   21 ar  
    37   20   48 1   
    38   21   22 ar  
    39   21   23 1   
    40   22   49 1   
    41   23   24 2   
    42   23   25 1   
    43   25   26 1   
    44   25   50 1   
    45   26   27 ar  
    46   26   29 ar  
    47   27   28 ar  
    48   27   51 1   
    49   28   31 ar  
    50   28   52 1   
    51   29   30 ar  
    52   29   53 1   
    53   30   31 ar  
    54   30   54 1   
    55   31   32 1   
    56   32   33 1   
    57   32   34 1   
@<TRIPOS>SUBSTRUCTURE
     1 0RD         1 TEMP              0 ****  ****    0 ROOT
