@<TRIPOS>MOLECULE
0RE
   22    21     1     0     0
SMALL
bcc


@<TRIPOS>ATOM
      1 O01        -2.5210    1.3620    0.7170 oh        1 0RE     -0.597800
      2 C02        -2.3500    0.4180   -0.3260 c3        1 0RE      0.096400
      3 C03        -1.0690   -0.3690   -0.0180 c3        1 0RE      0.136100
      4 O04        -1.0420   -1.5430   -0.8130 oh        1 0RE     -0.593800
      5 C05         0.1620    0.5020   -0.2270 c3        1 0RE     -0.109400
      6 C06         1.4210   -0.2040    0.2230 c3        1 0RE     -0.079400
      7 C07         2.6540    0.6220   -0.0790 c3        1 0RE     -0.079400
      8 C08         3.9090   -0.0720    0.3840 c3        1 0RE     -0.092100
      9 H1         -3.3760    1.7830    0.5680 ho        1 0RE      0.403000
     10 H2         -3.2230   -0.2880   -0.3650 h1        1 0RE      0.028700
     11 H3         -2.2610    0.9470   -1.3120 h1        1 0RE      0.028700
     12 H4         -1.1060   -0.7510    1.0410 h1        1 0RE      0.091700
     13 H5         -0.8730   -1.2710   -1.7240 ho        1 0RE      0.396000
     14 H6          0.2470    0.7770   -1.3110 hc        1 0RE      0.051700
     15 H7          0.0200    1.4520    0.3540 hc        1 0RE      0.051700
     16 H8          1.3650   -0.4070    1.3250 hc        1 0RE      0.047200
     17 H9          1.4920   -1.1980   -0.2930 hc        1 0RE      0.047200
     18 H10         2.7150    0.8140   -1.1830 hc        1 0RE      0.037700
     19 H11         2.5670    1.6210    0.4250 hc        1 0RE      0.037700
     20 H12         3.8800   -0.2460    1.4870 hc        1 0RE      0.033033
     21 H13         4.0230   -1.0610   -0.1230 hc        1 0RE      0.033033
     22 H14         4.8060    0.5500    0.1490 hc        1 0RE      0.033033
@<TRIPOS>BOND
     1    1    2 1   
     2    1    9 1   
     3    2    3 1   
     4    2   10 1   
     5    2   11 1   
     6    3    4 1   
     7    3    5 1   
     8    3   12 1   
     9    4   13 1   
    10    5    6 1   
    11    5   14 1   
    12    5   15 1   
    13    6    7 1   
    14    6   16 1   
    15    6   17 1   
    16    7    8 1   
    17    7   18 1   
    18    7   19 1   
    19    8   20 1   
    20    8   21 1   
    21    8   22 1   
@<TRIPOS>SUBSTRUCTURE
     1 0RE         1 TEMP              0 ****  ****    0 ROOT
