@<TRIPOS>MOLECULE
0RE
   22    21     1     0     0
SMALL
bcc


@<TRIPOS>ATOM
      1 O01        -3.3480   -0.2330   -1.9720 oh        1 0RE     -0.612800
      2 C02        -1.9370   -0.2330   -1.9720 c3        1 0RE      0.090400
      3 C03        -1.4330   -0.2330   -0.5470 c3        1 0RE      0.144100
      4 O04        -1.9360   -1.3610    0.1290 oh        1 0RE     -0.601800
      5 C05         0.0780   -0.2790   -0.5470 c3        1 0RE     -0.076400
      6 C06         0.5970    0.2190    0.7840 c3        1 0RE     -0.078400
      7 C07         2.1100    0.2220    0.7660 c3        1 0RE     -0.079400
      8 C08         2.6290    0.6840    2.1100 c3        1 0RE     -0.092100
      9 H1         -3.6430   -0.1310   -2.8030 ho        1 0RE      0.407000
     10 H2         -1.6120   -1.0300   -2.4320 h1        1 0RE      0.034200
     11 H3         -1.6120    0.5640   -2.4320 h1        1 0RE      0.034200
     12 H4         -1.7350    0.5780   -0.0950 h1        1 0RE      0.046700
     13 H5         -2.5930   -1.1120    0.6710 ho        1 0RE      0.416000
     14 H6          0.3760   -1.1970   -0.6890 hc        1 0RE      0.048700
     15 H7          0.4210    0.2900   -1.2630 hc        1 0RE      0.048700
     16 H8          0.2720    1.1260    0.9420 hc        1 0RE      0.048700
     17 H9          0.2810   -0.3680    1.4970 hc        1 0RE      0.048700
     18 H10         2.4350   -0.6800    0.5840 hc        1 0RE      0.037200
     19 H11         2.4260    0.8290    0.0700 hc        1 0RE      0.037200
     20 H12         2.3040    0.0840    2.8080 hc        1 0RE      0.032700
     21 H13         3.6050    0.6740    2.1030 hc        1 0RE      0.032700
     22 H14         2.3140    1.5900    2.2870 hc        1 0RE      0.032700
@<TRIPOS>BOND
     1    1    2 1   
     2    1    9 1   
     3    2    3 1   
     4    2   10 1   
     5    2   11 1   
     6    3    4 1   
     7    3    5 1   
     8    3   12 1   
     9    4   13 1   
    10    5    6 1   
    11    5   14 1   
    12    5   15 1   
    13    6    7 1   
    14    6   16 1   
    15    6   17 1   
    16    7    8 1   
    17    7   18 1   
    18    7   19 1   
    19    8   20 1   
    20    8   21 1   
    21    8   22 1   
@<TRIPOS>SUBSTRUCTURE
     1 0RE         1 TEMP              0 ****  ****    0 ROOT
