@<TRIPOS>MOLECULE
0RE
   22    21     1     0     0
SMALL
bcc


@<TRIPOS>ATOM
      1 O01        -0.0020   -0.0110    0.1290 oh        1 0RE     -0.612800
      2 C02         1.4100    0.1000    0.0430 c3        1 0RE      0.090400
      3 C03         1.9350    0.0080    1.4810 c3        1 0RE      0.144100
      4 O04         1.5710   -1.2370    2.0590 oh        1 0RE     -0.601800
      5 C05         3.4570    0.0900    1.4930 c3        1 0RE     -0.076400
      6 C06         3.9820    0.2940    2.8970 c3        1 0RE     -0.078400
      7 C07         5.4960    0.3200    2.9180 c3        1 0RE     -0.079400
      8 C08         6.0240    0.5350    4.3130 c3        1 0RE     -0.092100
      9 H1         -0.3340   -0.0610   -0.7740 ho        1 0RE      0.407000
     10 H2          1.6900    1.0860   -0.4130 h1        1 0RE      0.034200
     11 H3          1.8280   -0.7350   -0.5780 h1        1 0RE      0.034200
     12 H4          1.4870    0.8430    2.0900 h1        1 0RE      0.046700
     13 H5          0.6110   -1.3100    1.9680 ho        1 0RE      0.416000
     14 H6          3.8780   -0.8570    1.0650 hc        1 0RE      0.048700
     15 H7          3.7760    0.9400    0.8360 hc        1 0RE      0.048700
     16 H8          3.5840    1.2550    3.3150 hc        1 0RE      0.048700
     17 H9          3.6060   -0.5360    3.5520 hc        1 0RE      0.048700
     18 H10         5.8920   -0.6480    2.5100 hc        1 0RE      0.037200
     19 H11         5.8660    1.1380    2.2450 hc        1 0RE      0.037200
     20 H12         7.1410    0.5470    4.3080 hc        1 0RE      0.032700
     21 H13         5.6620    1.5070    4.7260 hc        1 0RE      0.032700
     22 H14         5.6830   -0.2830    4.9930 hc        1 0RE      0.032700
@<TRIPOS>BOND
     1    1    2 1   
     2    1    9 1   
     3    2    3 1   
     4    2   10 1   
     5    2   11 1   
     6    3    4 1   
     7    3    5 1   
     8    3   12 1   
     9    4   13 1   
    10    5    6 1   
    11    5   14 1   
    12    5   15 1   
    13    6    7 1   
    14    6   16 1   
    15    6   17 1   
    16    7    8 1   
    17    7   18 1   
    18    7   19 1   
    19    8   20 1   
    20    8   21 1   
    21    8   22 1   
@<TRIPOS>SUBSTRUCTURE
     1 0RE         1 TEMP              0 ****  ****    0 ROOT
