@<TRIPOS>MOLECULE
0RE
   22    21     1     0     0
SMALL
bcc


@<TRIPOS>ATOM
      1 O01        -0.0060   -0.0120    0.1360 oh        1 0RE     -0.612800
      2 C02         1.4060    0.1030    0.0470 c3        1 0RE      0.090400
      3 C03         1.9350    0.0060    1.4840 c3        1 0RE      0.144100
      4 O04         1.5740   -1.2430    2.0570 oh        1 0RE     -0.601800
      5 C05         3.4560    0.0920    1.4930 c3        1 0RE     -0.076400
      6 C06         3.9840    0.2920    2.8960 c3        1 0RE     -0.078400
      7 C07         5.4970    0.3220    2.9150 c3        1 0RE     -0.079400
      8 C08         6.0270    0.5340    4.3090 c3        1 0RE     -0.092100
      9 H1         -0.3390   -0.0590   -0.7670 ho        1 0RE      0.407000
     10 H2          1.8250   -0.7290   -0.5780 h1        1 0RE      0.034200
     11 H3          1.6830    1.0910   -0.4050 h1        1 0RE      0.034200
     12 H4          1.4860    0.8370    2.0970 h1        1 0RE      0.046700
     13 H5          0.6150   -1.3180    1.9680 ho        1 0RE      0.416000
     14 H6          3.8790   -0.8520    1.0610 hc        1 0RE      0.048700
     15 H7          3.7720    0.9460    0.8380 hc        1 0RE      0.048700
     16 H8          3.5830    1.2510    3.3180 hc        1 0RE      0.048700
     17 H9          3.6100   -0.5410    3.5500 hc        1 0RE      0.048700
     18 H10         5.8940   -0.6440    2.5030 hc        1 0RE      0.037200
     19 H11         5.8640    1.1420    2.2430 hc        1 0RE      0.037200
     20 H12         5.6640    1.5040    4.7260 hc        1 0RE      0.032700
     21 H13         5.6890   -0.2860    4.9880 hc        1 0RE      0.032700
     22 H14         7.1440    0.5480    4.3020 hc        1 0RE      0.032700
@<TRIPOS>BOND
     1    1    2 1   
     2    1    9 1   
     3    2    3 1   
     4    2   10 1   
     5    2   11 1   
     6    3    4 1   
     7    3    5 1   
     8    3   12 1   
     9    4   13 1   
    10    5    6 1   
    11    5   14 1   
    12    5   15 1   
    13    6    7 1   
    14    6   16 1   
    15    6   17 1   
    16    7    8 1   
    17    7   18 1   
    18    7   19 1   
    19    8   20 1   
    20    8   21 1   
    21    8   22 1   
@<TRIPOS>SUBSTRUCTURE
     1 0RE         1 TEMP              0 ****  ****    0 ROOT
