@<TRIPOS>MOLECULE
0RE
   22    21     1     0     0
SMALL
bcc


@<TRIPOS>ATOM
      1 O01        -0.0010   -0.0170    0.1280 oh        1 0RE     -0.612800
      2 C02         1.4110    0.0950    0.0420 c3        1 0RE      0.090400
      3 C03         1.9360    0.0050    1.4810 c3        1 0RE      0.144100
      4 O04         1.5710   -1.2390    2.0610 oh        1 0RE     -0.601800
      5 C05         3.4570    0.0880    1.4930 c3        1 0RE     -0.076400
      6 C06         3.9820    0.2960    2.8970 c3        1 0RE     -0.078400
      7 C07         5.4950    0.3220    2.9190 c3        1 0RE     -0.079400
      8 C08         6.0230    0.5430    4.3130 c3        1 0RE     -0.092100
      9 H1         -0.3330   -0.0680   -0.7750 ho        1 0RE      0.407000
     10 H2          1.8300   -0.7410   -0.5770 h1        1 0RE      0.034200
     11 H3          1.6910    1.0800   -0.4150 h1        1 0RE      0.034200
     12 H4          1.4870    0.8410    2.0880 h1        1 0RE      0.046700
     13 H5          0.6120   -1.3120    1.9700 ho        1 0RE      0.416000
     14 H6          3.8790   -0.8600    1.0690 hc        1 0RE      0.048700
     15 H7          3.7770    0.9360    0.8340 hc        1 0RE      0.048700
     16 H8          3.5830    1.2590    3.3110 hc        1 0RE      0.048700
     17 H9          3.6040   -0.5310    3.5550 hc        1 0RE      0.048700
     18 H10         5.8910   -0.6480    2.5160 hc        1 0RE      0.037200
     19 H11         5.8660    1.1370    2.2420 hc        1 0RE      0.037200
     20 H12         5.6620    1.5170    4.7220 hc        1 0RE      0.032700
     21 H13         5.6800   -0.2710    4.9970 hc        1 0RE      0.032700
     22 H14         7.1390    0.5540    4.3090 hc        1 0RE      0.032700
@<TRIPOS>BOND
     1    1    2 1   
     2    1    9 1   
     3    2    3 1   
     4    2   10 1   
     5    2   11 1   
     6    3    4 1   
     7    3    5 1   
     8    3   12 1   
     9    4   13 1   
    10    5    6 1   
    11    5   14 1   
    12    5   15 1   
    13    6    7 1   
    14    6   16 1   
    15    6   17 1   
    16    7    8 1   
    17    7   18 1   
    18    7   19 1   
    19    8   20 1   
    20    8   21 1   
    21    8   22 1   
@<TRIPOS>SUBSTRUCTURE
     1 0RE         1 TEMP              0 ****  ****    0 ROOT
