@<TRIPOS>MOLECULE
0RF
   65    68     1     0     0
SMALL
bcc


@<TRIPOS>ATOM
      1 N1          0.1260   -0.4550    0.2830 nb        1 0RF     -0.732000
      2 C2          1.4540   -0.6150    0.4470 ca        1 0RF      0.642900
      3 N3          2.1750   -0.5090    1.6080 nb        1 0RF     -0.669000
      4 C4          1.4450   -0.1980    2.6860 ca        1 0RF      0.397600
      5 C5          0.0300    0.0150    2.6490 ca        1 0RF     -0.257900
      6 C6         -0.6110   -0.1420    1.4050 ca        1 0RF      0.595200
      7 C7          1.9600   -0.0370    4.1070 c3        1 0RF      0.095800
      8 C8          0.6930    0.1770    4.9590 c3        1 0RF     -0.086400
      9 C9         -0.5090    0.3280    4.0050 c3        1 0RF     -0.005400
     10 N10        -2.0460    0.0130    1.3290 nh        1 0RF     -0.710300
     11 C11        -1.1100    1.7140    4.0960 c3        1 0RF     -0.087100
     12 O12         2.6080   -1.1990    4.5790 oh        1 0RF     -0.579800
     13 C13        -2.4360    1.2050    0.5790 c3        1 0RF      0.146800
     14 C14        -3.9680    1.3830    0.5340 c3        1 0RF      0.076000
     15 N15        -4.6640    0.1780    0.1070 n         1 0RF     -0.416800
     16 C16        -4.2500   -1.0190    0.8090 c3        1 0RF      0.076000
     17 C17        -2.7130   -1.1900    0.8420 c3        1 0RF      0.146800
     18 C18        -5.4880    0.2010   -0.9800 c         1 0RF      0.652100
     19 C19        -6.1880   -1.0740   -1.4690 c3        1 0RF     -0.091400
     20 O20        -5.7010    1.2740   -1.6070 o         1 0RF     -0.685100
     21 C21        -7.0720   -1.6730   -0.4230 ca        1 0RF     -0.139300
     22 C22        -7.0830   -0.7660   -2.6840 c3        1 0RF      0.118800
     23 N23        -6.3540   -0.1740   -3.8400 ny        1 0RF     -0.774000
     24 C24        -7.0360   -3.0530   -0.1850 ca        1 0RF     -0.107500
     25 C25        -7.8710   -3.6230    0.7710 ca        1 0RF     -0.117000
     26 C26        -8.7510   -2.8110    1.4980 ca        1 0RF      0.039400
     27 C27        -8.7900   -1.4300    1.2670 ca        1 0RF     -0.117000
     28 C28        -7.9520   -0.8670    0.3080 ca        1 0RF     -0.107500
     29 Cl1        -9.7680   -3.5000    2.6590 cl        1 0RF     -0.042400
     30 C29        -7.2270   -0.0240   -5.0630 c3        1 0RF      0.133500
     31 C30        -6.6680    1.0520   -5.9870 c3        1 0RF     -0.133600
     32 C31        -7.3730   -1.3380   -5.8170 c3        1 0RF     -0.133600
     33 H1          2.0380   -0.8660   -0.4640 h5        1 0RF      0.061100
     34 H2          2.6530    0.8470    4.1620 h1        1 0RF      0.065700
     35 H3          0.5470   -0.7040    5.6330 hc        1 0RF      0.072700
     36 H4          0.8170    1.0870    5.5950 hc        1 0RF      0.072700
     37 H5         -1.3000   -0.4260    4.2710 hc        1 0RF      0.072700
     38 H6         -1.4420    1.9110    5.1450 hc        1 0RF      0.041700
     39 H7         -0.3620    2.4920    3.8110 hc        1 0RF      0.041700
     40 H8         -1.9940    1.8040    3.4220 hc        1 0RF      0.041700
     41 H9          3.4070   -1.3170    4.0480 ho        1 0RF      0.421000
     42 H10        -2.0370    1.1970   -0.4760 h1        1 0RF      0.061450
     43 H11        -2.0040    2.0990    1.1110 h1        1 0RF      0.061450
     44 H12        -4.3460    1.6450    1.5640 h1        1 0RF      0.076950
     45 H13        -4.2050    2.2350   -0.1650 h1        1 0RF      0.076950
     46 H14        -4.6910   -1.9390    0.3370 h1        1 0RF      0.076950
     47 H15        -4.6370   -0.9460    1.8680 h1        1 0RF      0.076950
     48 H16        -2.3620   -1.4970   -0.1850 h1        1 0RF      0.061450
     49 H17        -2.4780   -2.0270    1.5580 h1        1 0RF      0.061450
     50 H18        -5.3920   -1.8150   -1.7700 hc        1 0RF      0.085700
     51 H19        -7.8780   -0.0270   -2.3690 hx        1 0RF      0.112200
     52 H20        -7.5760   -1.7210   -3.0230 hx        1 0RF      0.112200
     53 H21        -6.0080    0.7630   -3.5540 hn        1 0RF      0.461800
     54 H23        -6.3420   -3.6960   -0.7490 ha        1 0RF      0.144000
     55 H24        -7.8380   -4.7090    0.9560 ha        1 0RF      0.167000
     56 H25        -9.4780   -0.7890    1.8430 ha        1 0RF      0.167000
     57 H26        -7.9760    0.2220    0.1350 ha        1 0RF      0.144000
     58 H27        -8.2420    0.3080   -4.6870 hx        1 0RF      0.107700
     59 H28        -5.6700    0.7600   -6.3970 hc        1 0RF      0.076867
     60 H29        -6.5770    2.0360   -5.4660 hc        1 0RF      0.076867
     61 H30        -7.3750    1.1780   -6.8450 hc        1 0RF      0.076867
     62 H31        -6.3920   -1.6900   -6.2190 hc        1 0RF      0.076867
     63 H32        -7.8130   -2.1380   -5.1730 hc        1 0RF      0.076867
     64 H33        -8.0640   -1.1710   -6.6820 hc        1 0RF      0.076867
     65 H232       -5.5450   -0.7560   -4.0740 hn        1 0RF      0.461800
@<TRIPOS>BOND
     1    1    2 ar  
     2    1    6 ar  
     3    2    3 ar  
     4    2   33 1   
     5    3    4 ar  
     6    4    5 ar  
     7    4    7 1   
     8    5    6 ar  
     9    5    9 1   
    10    6   10 1   
    11    7    8 1   
    12    7   12 1   
    13    7   34 1   
    14    8    9 1   
    15    8   35 1   
    16    8   36 1   
    17    9   11 1   
    18    9   37 1   
    19   10   13 1   
    20   10   17 1   
    21   11   38 1   
    22   11   39 1   
    23   11   40 1   
    24   12   41 1   
    25   13   14 1   
    26   13   42 1   
    27   13   43 1   
    28   14   15 1   
    29   14   44 1   
    30   14   45 1   
    31   15   16 1   
    32   15   18 1   
    33   16   17 1   
    34   16   46 1   
    35   16   47 1   
    36   17   48 1   
    37   17   49 1   
    38   18   19 1   
    39   18   20 2   
    40   19   21 1   
    41   19   22 1   
    42   19   50 1   
    43   21   24 ar  
    44   21   28 ar  
    45   22   23 1   
    46   22   51 1   
    47   22   52 1   
    48   23   30 1   
    49   23   53 1   
    50   23   65 1   
    51   24   25 ar  
    52   24   54 1   
    53   25   26 ar  
    54   25   55 1   
    55   26   27 ar  
    56   26   29 1   
    57   27   28 ar  
    58   27   56 1   
    59   28   57 1   
    60   30   31 1   
    61   30   32 1   
    62   30   58 1   
    63   31   59 1   
    64   31   60 1   
    65   31   61 1   
    66   32   62 1   
    67   32   63 1   
    68   32   64 1   
@<TRIPOS>SUBSTRUCTURE
     1 0RF         1 TEMP              0 ****  ****    0 ROOT
