@<TRIPOS>MOLECULE
0RF
   65    68     1     0     0
SMALL
bcc


@<TRIPOS>ATOM
      1 N1          0.1230   -0.4510    0.2810 nb        1 0RF     -0.732000
      2 C2          1.4510   -0.6090    0.4430 ca        1 0RF      0.642900
      3 N3          2.1730   -0.5040    1.6040 nb        1 0RF     -0.669000
      4 C4          1.4450   -0.1950    2.6830 ca        1 0RF      0.397600
      5 C5          0.0300    0.0170    2.6470 ca        1 0RF     -0.257900
      6 C6         -0.6130   -0.1390    1.4050 ca        1 0RF      0.595200
      7 C7          1.9620   -0.0350    4.1030 c3        1 0RF      0.095800
      8 C8          0.6960    0.1780    4.9570 c3        1 0RF     -0.086400
      9 C9         -0.5080    0.3290    4.0050 c3        1 0RF     -0.005400
     10 N10        -2.0480    0.0150    1.3300 nh        1 0RF     -0.710300
     11 C11        -1.1090    1.7140    4.0980 c3        1 0RF     -0.087100
     12 O12         2.6110   -1.1970    4.5740 oh        1 0RF     -0.579800
     13 C13        -2.4390    1.2070    0.5810 c3        1 0RF      0.146800
     14 C14        -3.9720    1.3850    0.5370 c3        1 0RF      0.076000
     15 N15        -4.6670    0.1790    0.1110 n         1 0RF     -0.416800
     16 C16        -4.2520   -1.0180    0.8130 c3        1 0RF      0.076000
     17 C17        -2.7160   -1.1880    0.8440 c3        1 0RF      0.146800
     18 C18        -5.4900    0.2010   -0.9770 c         1 0RF      0.652100
     19 C19        -6.1880   -1.0750   -1.4670 c3        1 0RF     -0.091400
     20 O20        -5.7020    1.2730   -1.6060 o         1 0RF     -0.685100
     21 C21        -7.0740   -1.6740   -0.4220 ca        1 0RF     -0.139300
     22 C22        -7.0810   -0.7680   -2.6840 c3        1 0RF      0.118800
     23 N23        -6.3500   -0.1760   -3.8390 n4        1 0RF     -0.774000
     24 C24        -7.0370   -3.0530   -0.1830 ca        1 0RF     -0.107500
     25 C25        -7.8740   -3.6230    0.7720 ca        1 0RF     -0.117000
     26 C26        -8.7560   -2.8100    1.4970 ca        1 0RF      0.039400
     27 C27        -8.7950   -1.4290    1.2650 ca        1 0RF     -0.117000
     28 C28        -7.9560   -0.8670    0.3070 ca        1 0RF     -0.107500
     29 CL1        -9.7750   -3.4990    2.6570 cl        1 0RF     -0.042400
     30 C29        -7.2210   -0.0270   -5.0640 c3        1 0RF      0.133500
     31 C30        -6.6620    1.0480   -5.9870 c3        1 0RF     -0.133600
     32 C31        -7.3650   -1.3420   -5.8170 c3        1 0RF     -0.133600
     33 H1          2.0340   -0.8590   -0.4690 h5        1 0RF      0.061100
     34 H2          2.6540    0.8490    4.1580 h1        1 0RF      0.065700
     35 H3          0.8200    1.0870    5.5930 hc        1 0RF      0.072700
     36 H4          0.5510   -0.7040    5.6310 hc        1 0RF      0.072700
     37 H5         -1.2980   -0.4270    4.2710 hc        1 0RF      0.072700
     38 H6         -1.9940    1.8050    3.4240 hc        1 0RF      0.042033
     39 H7         -1.4410    1.9100    5.1470 hc        1 0RF      0.042033
     40 H8         -0.3620    2.4930    3.8130 hc        1 0RF      0.042033
     41 H9          3.4090   -1.3150    4.0420 ho        1 0RF      0.421000
     42 H10        -2.0080    2.1010    1.1130 h1        1 0RF      0.061450
     43 H11        -2.0420    1.2000   -0.4740 h1        1 0RF      0.061450
     44 H12        -4.2100    2.2360   -0.1610 h1        1 0RF      0.076950
     45 H13        -4.3490    1.6460    1.5680 h1        1 0RF      0.076950
     46 H14        -4.6380   -0.9450    1.8720 h1        1 0RF      0.076950
     47 H15        -4.6940   -1.9380    0.3420 h1        1 0RF      0.076950
     48 H16        -2.3650   -1.4950   -0.1830 h1        1 0RF      0.061450
     49 H17        -2.4790   -2.0250    1.5600 h1        1 0RF      0.061450
     50 H18        -5.3920   -1.8160   -1.7670 hc        1 0RF      0.085700
     51 H19        -7.8770   -0.0300   -2.3710 hx        1 0RF      0.112200
     52 H20        -7.5730   -1.7240   -3.0240 hx        1 0RF      0.112200
     53 H21        -5.5410   -0.7580   -4.0710 hn        1 0RF      0.461800
     54 H23        -6.3430   -3.6960   -0.7450 ha        1 0RF      0.144000
     55 H24        -7.8400   -4.7080    0.9580 ha        1 0RF      0.166500
     56 H25        -9.4840   -0.7880    1.8390 ha        1 0RF      0.166500
     57 H26        -7.9790    0.2210    0.1330 ha        1 0RF      0.144000
     58 H27        -8.2380    0.3040   -4.6890 hx        1 0RF      0.107700
     59 H28        -5.6630    0.7580   -6.3950 hc        1 0RF      0.076867
     60 H29        -6.5730    2.0330   -5.4660 hc        1 0RF      0.076867
     61 H30        -7.3680    1.1730   -6.8460 hc        1 0RF      0.076867
     62 H31        -6.3820   -1.6930   -6.2170 hc        1 0RF      0.076867
     63 H32        -7.8050   -2.1420   -5.1740 hc        1 0RF      0.076867
     64 H33        -8.0540   -1.1760   -6.6830 hc        1 0RF      0.076867
     65 H232       -6.0060    0.7610   -3.5530 hn        1 0RF      0.461800
@<TRIPOS>BOND
     1    1    2 ar  
     2    1    6 ar  
     3    2    3 ar  
     4    2   33 1   
     5    3    4 ar  
     6    4    5 ar  
     7    4    7 1   
     8    5    6 ar  
     9    5    9 1   
    10    6   10 1   
    11    7    8 1   
    12    7   12 1   
    13    7   34 1   
    14    8    9 1   
    15    8   35 1   
    16    8   36 1   
    17    9   11 1   
    18    9   37 1   
    19   10   13 1   
    20   10   17 1   
    21   11   38 1   
    22   11   39 1   
    23   11   40 1   
    24   12   41 1   
    25   13   14 1   
    26   13   42 1   
    27   13   43 1   
    28   14   15 1   
    29   14   44 1   
    30   14   45 1   
    31   15   16 1   
    32   15   18 1   
    33   16   17 1   
    34   16   46 1   
    35   16   47 1   
    36   17   48 1   
    37   17   49 1   
    38   18   19 1   
    39   18   20 2   
    40   19   21 1   
    41   19   22 1   
    42   19   50 1   
    43   21   24 ar  
    44   21   28 ar  
    45   22   23 1   
    46   22   51 1   
    47   22   52 1   
    48   23   30 1   
    49   23   53 1   
    50   23   65 1   
    51   24   25 ar  
    52   24   54 1   
    53   25   26 ar  
    54   25   55 1   
    55   26   27 ar  
    56   26   29 1   
    57   27   28 ar  
    58   27   56 1   
    59   28   57 1   
    60   30   31 1   
    61   30   32 1   
    62   30   58 1   
    63   31   59 1   
    64   31   60 1   
    65   31   61 1   
    66   32   62 1   
    67   32   63 1   
    68   32   64 1   
@<TRIPOS>SUBSTRUCTURE
     1 0RF         1 TEMP              0 ****  ****    0 ROOT
