@<TRIPOS>MOLECULE
0RF
   65    68     1     0     0
SMALL
bcc


@<TRIPOS>ATOM
      1 N1          0.1260   -0.4690    0.2880 nb        1 0RF     -0.732000
      2 C2          1.4530   -0.6320    0.4540 ca        1 0RF      0.642900
      3 N3          2.1720   -0.5240    1.6160 nb        1 0RF     -0.669000
      4 C4          1.4430   -0.2060    2.6910 ca        1 0RF      0.397600
      5 C5          0.0290    0.0120    2.6520 ca        1 0RF     -0.257900
      6 C6         -0.6110   -0.1480    1.4090 ca        1 0RF      0.595200
      7 C7          1.9580   -0.0410    4.1120 c3        1 0RF      0.095800
      8 C8          0.6910    0.1820    4.9620 c3        1 0RF     -0.086400
      9 C9         -0.5100    0.3330    4.0060 c3        1 0RF     -0.005400
     10 N10        -2.0450    0.0120    1.3300 nh        1 0RF     -0.710300
     11 C11        -1.1060    1.7210    4.0910 c3        1 0RF     -0.087100
     12 O12         2.6010   -1.2030    4.5900 oh        1 0RF     -0.579800
     13 C13        -2.4300    1.2020    0.5740 c3        1 0RF      0.146800
     14 C14        -3.9620    1.3860    0.5270 c3        1 0RF      0.076000
     15 N15        -4.6620    0.1810    0.1060 n         1 0RF     -0.416800
     16 C16        -4.2530   -1.0150    0.8130 c3        1 0RF      0.076000
     17 C17        -2.7170   -1.1910    0.8480 c3        1 0RF      0.146800
     18 C18        -5.4850    0.2020   -0.9820 c         1 0RF      0.652100
     19 C19        -6.1890   -1.0720   -1.4660 c3        1 0RF     -0.091400
     20 O20        -5.6940    1.2730   -1.6150 o         1 0RF     -0.685100
     21 C21        -7.0770   -1.6640   -0.4190 ca        1 0RF     -0.139300
     22 C22        -7.0830   -0.7660   -2.6840 c3        1 0RF      0.118800
     23 N23        -6.3510   -0.1820   -3.8410 n4        1 0RF     -0.774000
     24 C24        -7.0450   -3.0420   -0.1750 ca        1 0RF     -0.107500
     25 C25        -7.8840   -3.6050    0.7840 ca        1 0RF     -0.117000
     26 C26        -8.7610   -2.7870    1.5060 ca        1 0RF      0.039400
     27 C27        -8.7950   -1.4070    1.2700 ca        1 0RF     -0.117000
     28 C28        -7.9540   -0.8510    0.3090 ca        1 0RF     -0.107500
     29 CL1        -9.7810   -3.4670    2.6700 cl        1 0RF     -0.042400
     30 C29        -7.2230   -0.0340   -5.0660 c3        1 0RF      0.133500
     31 C30        -6.6590    1.0360   -5.9940 c3        1 0RF     -0.133600
     32 C31        -7.3730   -1.3500   -5.8140 c3        1 0RF     -0.133600
     33 H1          2.0370   -0.8890   -0.4560 h5        1 0RF      0.061100
     34 H2          2.6540    0.8410    4.1630 h1        1 0RF      0.065700
     35 H3          0.8180    1.0950    5.5930 hc        1 0RF      0.072700
     36 H4          0.5410   -0.6950    5.6400 hc        1 0RF      0.072700
     37 H5         -1.3040   -0.4170    4.2750 hc        1 0RF      0.072700
     38 H6         -1.4380    1.9250    5.1380 hc        1 0RF      0.041700
     39 H7         -0.3540    2.4950    3.8020 hc        1 0RF      0.041700
     40 H8         -1.9890    1.8120    3.4150 hc        1 0RF      0.041700
     41 H9          3.4000   -1.3270    4.0600 ho        1 0RF      0.421000
     42 H10        -1.9960    2.0970    1.1030 h1        1 0RF      0.061450
     43 H11        -2.0310    1.1880   -0.4800 h1        1 0RF      0.061450
     44 H12        -4.1950    2.2350   -0.1750 h1        1 0RF      0.076950
     45 H13        -4.3400    1.6530    1.5560 h1        1 0RF      0.076950
     46 H14        -4.6410   -0.9350    1.8710 h1        1 0RF      0.076950
     47 H15        -4.6970   -1.9350    0.3440 h1        1 0RF      0.076950
     48 H16        -2.4850   -2.0250    1.5670 h1        1 0RF      0.061450
     49 H17        -2.3660   -1.5040   -0.1770 h1        1 0RF      0.061450
     50 H18        -5.3960   -1.8180   -1.7640 hc        1 0RF      0.085700
     51 H19        -7.5790   -1.7210   -3.0190 hx        1 0RF      0.112200
     52 H20        -7.8750   -0.0240   -2.3720 hx        1 0RF      0.112200
     53 H21        -6.0020    0.7550   -3.5590 hn        1 0RF      0.461800
     54 H23        -6.3540   -3.6910   -0.7350 ha        1 0RF      0.144000
     55 H24        -7.8540   -4.6910    0.9730 ha        1 0RF      0.167000
     56 H25        -9.4810   -0.7610    1.8420 ha        1 0RF      0.167000
     57 H26        -7.9730    0.2370    0.1310 ha        1 0RF      0.144000
     58 H27        -8.2370    0.3030   -4.6910 hx        1 0RF      0.107700
     59 H28        -5.6620    0.7400   -6.4020 hc        1 0RF      0.076867
     60 H29        -7.3660    1.1610   -6.8530 hc        1 0RF      0.076867
     61 H30        -6.5650    2.0230   -5.4770 hc        1 0RF      0.076867
     62 H31        -7.8160   -2.1460   -5.1670 hc        1 0RF      0.076867
     63 H32        -8.0630   -1.1840   -6.6800 hc        1 0RF      0.076867
     64 H33        -6.3930   -1.7070   -6.2140 hc        1 0RF      0.076867
     65 H232       -5.5440   -0.7680   -4.0720 hn        1 0RF      0.461800
@<TRIPOS>BOND
     1    1    2 ar  
     2    1    6 ar  
     3    2    3 ar  
     4    2   33 1   
     5    3    4 ar  
     6    4    5 ar  
     7    4    7 1   
     8    5    6 ar  
     9    5    9 1   
    10    6   10 1   
    11    7    8 1   
    12    7   12 1   
    13    7   34 1   
    14    8    9 1   
    15    8   35 1   
    16    8   36 1   
    17    9   11 1   
    18    9   37 1   
    19   10   13 1   
    20   10   17 1   
    21   11   38 1   
    22   11   39 1   
    23   11   40 1   
    24   12   41 1   
    25   13   14 1   
    26   13   42 1   
    27   13   43 1   
    28   14   15 1   
    29   14   44 1   
    30   14   45 1   
    31   15   16 1   
    32   15   18 1   
    33   16   17 1   
    34   16   46 1   
    35   16   47 1   
    36   17   48 1   
    37   17   49 1   
    38   18   19 1   
    39   18   20 2   
    40   19   21 1   
    41   19   22 1   
    42   19   50 1   
    43   21   24 ar  
    44   21   28 ar  
    45   22   23 1   
    46   22   51 1   
    47   22   52 1   
    48   23   30 1   
    49   23   53 1   
    50   23   65 1   
    51   24   25 ar  
    52   24   54 1   
    53   25   26 ar  
    54   25   55 1   
    55   26   27 ar  
    56   26   29 1   
    57   27   28 ar  
    58   27   56 1   
    59   28   57 1   
    60   30   31 1   
    61   30   32 1   
    62   30   58 1   
    63   31   59 1   
    64   31   60 1   
    65   31   61 1   
    66   32   62 1   
    67   32   63 1   
    68   32   64 1   
@<TRIPOS>SUBSTRUCTURE
     1 0RF         1 TEMP              0 ****  ****    0 ROOT
