@<TRIPOS>MOLECULE
0RF
   64    60     1     0     0
SMALL
bcc


@<TRIPOS>ATOM
      1 N1          4.0300    0.9790    0.1660 n1        1 0RF     -0.527800
      2 C2          5.4240    0.9780    0.1270 c1        1 0RF      0.365300
      3 N3          6.1520    0.7980    1.2950 n1        1 0RF     -0.491800
      4 C4          5.5040    0.6210    2.4900 c1        1 0RF      0.000900
      5 C5          4.1260    0.6210    2.5340 c1        1 0RF     -0.128100
      6 C6          3.3850    0.8040    1.3470 c1        1 0RF      0.497600
      7 C7          6.0290    0.2890    3.9110 c3        1 0RF      0.162200
      8 C8          4.8860    0.0830    4.7730 c3        1 0RF     -0.085400
      9 C9          3.6940    0.3130    3.9870 c3        1 0RF     -0.034600
     10 N10         1.9560    0.8660    1.3990 n3        1 0RF     -0.588200
     11 C11         2.9120    1.5210    4.5600 c3        1 0RF     -0.088100
     12 O12         6.8310   -0.9090    3.8630 oh        1 0RF     -0.586800
     13 C13         1.5090    2.0880    0.8310 c3        1 0RF      0.152800
     14 C14        -0.0190    2.1490    0.7160 c3        1 0RF      0.084500
     15 N15        -0.5590    0.9900    0.0600 n         1 0RF     -0.463800
     16 C16        -0.1220   -0.2360    0.6160 c3        1 0RF      0.084500
     17 C17         1.3880   -0.3090    0.7200 c3        1 0RF      0.152800
     18 C18        -1.4700    1.0680   -1.0770 c         1 0RF      0.661100
     19 C19        -2.1420   -0.1530   -1.5620 c3        1 0RF     -0.116600
     20 O20        -1.8040    2.1480   -1.5080 o         1 0RF     -0.610100
     21 C21        -3.3270   -0.4730   -0.6640 c1        1 0RF     -0.035100
     22 C22        -2.6390    0.0770   -3.0400 c3        1 0RF      0.175800
     23 N23        -2.4940   -1.1610   -3.7960 n3        1 0RF     -0.822200
     24 C24        -3.4960   -1.8200   -0.2800 c1        1 0RF     -0.059500
     25 C25        -4.5810   -2.1870    0.5060 c1        1 0RF     -0.059500
     26 C26        -5.4850   -1.2420    0.9070 c1        1 0RF     -0.060000
     27 C27        -5.3150    0.1030    0.5230 c1        1 0RF     -0.064500
     28 C28        -4.2330    0.4700   -0.2620 c1        1 0RF     -0.053500
     29 CL1        -6.8950   -1.7170    1.8360 cl        1 0RF     -0.017000
     30 C29        -3.1690   -1.0400   -5.0500 c3        1 0RF      0.174500
     31 C30        -2.2510   -1.5560   -6.1820 c3        1 0RF     -0.112600
     32 C31        -4.4540   -1.8660   -5.0220 c3        1 0RF     -0.112600
     33 H1          5.8720    1.1000   -0.6930 ha        1 0RF      0.135500
     34 H2          6.5940    1.0740    4.2670 h1        1 0RF      0.059700
     35 H3          4.9140    0.7210    5.4970 hc        1 0RF      0.067200
     36 H4          4.8880   -0.8290    5.0900 hc        1 0RF      0.067200
     37 H5          3.1680   -0.4330    4.0010 hc        1 0RF      0.060700
     38 H6          3.0970    1.6070    5.5460 hc        1 0RF      0.043700
     39 H7          1.9600    1.3870    4.4190 hc        1 0RF      0.043700
     40 H8          3.1940    2.3290    4.1070 hc        1 0RF      0.043700
     41 H9          7.6440   -0.7700    4.3410 ho        1 0RF      0.418000
     42 H10         1.8130    2.8240    1.3880 h1        1 0RF      0.054450
     43 H11         1.9030    2.1850   -0.0680 h1        1 0RF      0.054450
     44 H12        -0.2590    2.9170    0.2290 h1        1 0RF      0.068700
     45 H13        -0.3800    2.2070    1.5620 h1        1 0RF      0.068700
     46 H14        -0.4450   -0.9920    0.0400 h1        1 0RF      0.068700
     47 H15        -0.5240   -0.3360    1.5570 h1        1 0RF      0.068700
     48 H16         1.7640   -0.3630   -0.1920 h1        1 0RF      0.054450
     49 H17         1.6400   -1.1290    1.2230 h1        1 0RF      0.054450
     50 H18        -1.5000   -0.9130   -1.5450 hc        1 0RF      0.068700
     51 H19        -2.0840    0.7970   -3.4730 h1        1 0RF      0.052200
     52 H20        -3.5980    0.3560   -3.0310 h1        1 0RF      0.052200
     53 H21        -1.6130   -1.3190   -3.9450 hn        1 0RF      0.351800
     54 H23        -2.8590   -2.4840   -0.5620 ha        1 0RF      0.084000
     55 H24        -4.6990   -3.1260    0.7750 ha        1 0RF      0.084000
     56 H25        -5.9580    0.7740    0.8070 ha        1 0RF      0.091500
     57 H26        -4.1170    1.3990   -0.5270 ha        1 0RF      0.093500
     58 H27        -3.3840   -0.1270   -5.2070 h1        1 0RF      0.059700
     59 H28        -2.7600   -1.5510   -7.0560 hc        1 0RF      0.039367
     60 H29        -1.9540   -2.4900   -5.9730 hc        1 0RF      0.039367
     61 H30        -1.4750   -0.9790   -6.2590 hc        1 0RF      0.039367
     62 H31        -5.1320   -1.4180   -4.4160 hc        1 0RF      0.039367
     63 H32        -4.8280   -1.9310   -5.9470 hc        1 0RF      0.039367
     64 H33        -4.2520   -2.7880   -4.6770 hc        1 0RF      0.039367
@<TRIPOS>BOND
     1    1    6 3   
     2    2    3 3   
     3    2   33 1   
     4    4    5 3   
     5    4    7 1   
     6    5    9 1   
     7    6   10 1   
     8    7    8 1   
     9    7   12 1   
    10    7   34 1   
    11    8    9 1   
    12    8   35 1   
    13    8   36 1   
    14    9   11 1   
    15    9   37 1   
    16   10   13 1   
    17   10   17 1   
    18   11   38 1   
    19   11   39 1   
    20   11   40 1   
    21   12   41 1   
    22   13   14 1   
    23   13   42 1   
    24   13   43 1   
    25   14   15 1   
    26   14   44 1   
    27   14   45 1   
    28   15   16 1   
    29   15   18 1   
    30   16   17 1   
    31   16   46 1   
    32   16   47 1   
    33   17   48 1   
    34   17   49 1   
    35   18   19 1   
    36   18   20 2   
    37   19   21 1   
    38   19   22 1   
    39   19   50 1   
    40   21   28 3   
    41   22   23 1   
    42   22   51 1   
    43   22   52 1   
    44   23   30 1   
    45   23   53 1   
    46   24   25 3   
    47   24   54 1   
    48   25   55 1   
    49   26   27 3   
    50   27   56 1   
    51   28   57 1   
    52   30   31 1   
    53   30   32 1   
    54   30   58 1   
    55   31   59 1   
    56   31   60 1   
    57   31   61 1   
    58   32   62 1   
    59   32   63 1   
    60   32   64 1   
@<TRIPOS>SUBSTRUCTURE
     1 0RF         1 TEMP              0 ****  ****    0 ROOT
