@<TRIPOS>MOLECULE
0RF
   64    67     1     0     0
SMALL
bcc


@<TRIPOS>ATOM
      1 N1          3.6200    1.6310   -0.8740 nb        1 0RF     -0.718000
      2 C2          4.8530    1.9630   -1.3070 ca        1 0RF      0.637900
      3 N3          6.0140    1.2500   -1.1620 nb        1 0RF     -0.684000
      4 C4          5.8710    0.0940   -0.5000 ca        1 0RF      0.388600
      5 C5          4.6260   -0.3700    0.0210 ca        1 0RF     -0.266900
      6 C6          3.4890    0.4370   -0.2000 ca        1 0RF      0.615200
      7 C7          6.9700   -0.9110   -0.2020 c3        1 0RF      0.095800
      8 C8          6.2400   -2.1090    0.4370 c3        1 0RF     -0.085400
      9 C9          4.7720   -1.7010    0.6800 c3        1 0RF     -0.002400
     10 N10         2.2060   -0.0210    0.2740 nh        1 0RF     -0.716300
     11 C11         4.4490   -1.6730    2.1580 c3        1 0RF     -0.087100
     12 O12         7.6250   -1.3710   -1.3660 oh        1 0RF     -0.585800
     13 C13         1.7310    0.7480    1.4240 c3        1 0RF      0.141300
     14 C14         0.3810    0.2170    1.9540 c3        1 0RF      0.084500
     15 N15        -0.6200    0.0610    0.9180 n         1 0RF     -0.457800
     16 C16        -0.1420   -0.6510   -0.2430 c3        1 0RF      0.084500
     17 C17         1.2010   -0.1050   -0.7840 c3        1 0RF      0.141300
     18 C18        -1.7640    0.8470    0.9340 c         1 0RF      0.665100
     19 C19        -2.7230    0.8270   -0.2560 c3        1 0RF     -0.087400
     20 O20        -2.0250    1.5320    1.9460 o         1 0RF     -0.622100
     21 C21        -3.4140   -0.4930   -0.3660 ca        1 0RF     -0.086300
     22 C22        -3.7840    1.9370   -0.1010 c3        1 0RF      0.180800
     23 N23        -3.2050    3.2630   -0.1470 n3        1 0RF     -0.828200
     24 C24        -3.4880   -1.1450   -1.6030 ca        1 0RF     -0.113500
     25 C25        -4.1490   -2.3660   -1.7190 ca        1 0RF     -0.123000
     26 C26        -4.7410   -2.9410   -0.5900 ca        1 0RF      0.019400
     27 C27        -4.6740   -2.2980    0.6510 ca        1 0RF     -0.123000
     28 C28        -4.0120   -1.0780    0.7570 ca        1 0RF     -0.113500
     29 CL1        -5.5470   -4.4300   -0.7270 cl        1 0RF     -0.091400
     30 C29        -4.2060    4.3300   -0.0940 c3        1 0RF      0.177500
     31 C30        -3.6300    5.6270    0.4750 c3        1 0RF     -0.095100
     32 C31        -4.7970    4.6210   -1.4750 c3        1 0RF     -0.095100
     33 H1          4.9400    2.9280   -1.8490 h5        1 0RF      0.057100
     34 H2          7.7190   -0.4560    0.5040 h1        1 0RF      0.058700
     35 H3          6.2910   -2.9860   -0.2550 hc        1 0RF      0.067200
     36 H4          6.7430   -2.3890    1.3940 hc        1 0RF      0.067200
     37 H5          4.0870   -2.4380    0.1770 hc        1 0RF      0.074700
     38 H6          3.3690   -1.4380    2.3180 hc        1 0RF      0.041367
     39 H7          4.6640   -2.6710    2.6100 hc        1 0RF      0.041367
     40 H8          5.0640   -0.9050    2.6850 hc        1 0RF      0.041367
     41 H9          8.0180   -0.5990   -1.7960 ho        1 0RF      0.418000
     42 H10         2.4930    0.6420    2.2460 h1        1 0RF      0.055200
     43 H11         1.6240    1.8450    1.1840 h1        1 0RF      0.055200
     44 H12         0.5430   -0.7930    2.4280 h1        1 0RF      0.067450
     45 H13         0.0110    0.9300    2.7440 h1        1 0RF      0.067450
     46 H14        -0.0020   -1.7310    0.0550 h1        1 0RF      0.067450
     47 H15        -0.8920   -0.6200   -1.0790 h1        1 0RF      0.067450
     48 H16         1.0140    0.8890   -1.2820 h1        1 0RF      0.055200
     49 H17         1.5810   -0.8230   -1.5620 h1        1 0RF      0.055200
     50 H18        -2.1340    1.0370   -1.1950 hc        1 0RF      0.085700
     51 H19        -4.5100    1.8400   -0.9570 h1        1 0RF      0.043700
     52 H20        -4.3490    1.7420    0.8590 h1        1 0RF      0.043700
     53 H21        -2.5470    3.3740    0.6060 hn        1 0RF      0.376800
     54 H23        -3.0260   -0.6920   -2.4930 ha        1 0RF      0.146000
     55 H24        -4.2050   -2.8720   -2.6950 ha        1 0RF      0.150000
     56 H25        -5.1400   -2.7520    1.5390 ha        1 0RF      0.150000
     57 H26        -3.9530   -0.5650    1.7310 ha        1 0RF      0.146000
     58 H27        -5.0690    4.0240    0.5800 h1        1 0RF      0.019700
     59 H28        -2.7910    6.0010   -0.1590 hc        1 0RF      0.038533
     60 H29        -4.4320    6.4030    0.4980 hc        1 0RF      0.038533
     61 H30        -3.2530    5.4740    1.5150 hc        1 0RF      0.038533
     62 H31        -5.5640    5.4260   -1.3800 hc        1 0RF      0.038533
     63 H32        -4.0040    4.9630   -2.1810 hc        1 0RF      0.038533
     64 H33        -5.2850    3.7130   -1.9010 hc        1 0RF      0.038533
@<TRIPOS>BOND
     1    1    2 ar  
     2    1    6 ar  
     3    2    3 ar  
     4    2   33 1   
     5    3    4 ar  
     6    4    5 ar  
     7    4    7 1   
     8    5    6 ar  
     9    5    9 1   
    10    6   10 1   
    11    7    8 1   
    12    7   12 1   
    13    7   34 1   
    14    8    9 1   
    15    8   35 1   
    16    8   36 1   
    17    9   11 1   
    18    9   37 1   
    19   10   13 1   
    20   10   17 1   
    21   11   38 1   
    22   11   39 1   
    23   11   40 1   
    24   12   41 1   
    25   13   14 1   
    26   13   42 1   
    27   13   43 1   
    28   14   15 1   
    29   14   44 1   
    30   14   45 1   
    31   15   16 1   
    32   15   18 1   
    33   16   17 1   
    34   16   46 1   
    35   16   47 1   
    36   17   48 1   
    37   17   49 1   
    38   18   19 1   
    39   18   20 2   
    40   19   21 1   
    41   19   22 1   
    42   19   50 1   
    43   21   24 ar  
    44   21   28 ar  
    45   22   23 1   
    46   22   51 1   
    47   22   52 1   
    48   23   30 1   
    49   23   53 1   
    50   24   25 ar  
    51   24   54 1   
    52   25   26 ar  
    53   25   55 1   
    54   26   27 ar  
    55   26   29 1   
    56   27   28 ar  
    57   27   56 1   
    58   28   57 1   
    59   30   31 1   
    60   30   32 1   
    61   30   58 1   
    62   31   59 1   
    63   31   60 1   
    64   31   61 1   
    65   32   62 1   
    66   32   63 1   
    67   32   64 1   
@<TRIPOS>SUBSTRUCTURE
     1 0RF         1 TEMP              0 ****  ****    0 ROOT
