@<TRIPOS>MOLECULE
0RK
   54    57     1     0     0
SMALL
bcc


@<TRIPOS>ATOM
      1 CL2        -7.7090    2.1400   -0.7140 cl        1 0RK     -0.096400
      2 C27        -6.0240    1.9510   -0.5750 ca        1 0RK     -0.056600
      3 C14        -5.5000    0.9930    0.2860 ca        1 0RK      0.008000
      4 C31        -5.1710    2.7700   -1.3300 ca        1 0RK     -0.027000
      5 C26        -3.7990    2.6160   -1.2230 ca        1 0RK     -0.227000
      6 C21        -3.2720    1.6360   -0.3590 ca        1 0RK      0.261100
      7 O33        -1.9330    1.4030   -0.2160 os        1 0RK     -0.318900
      8 C35        -1.0270    2.2430   -0.9340 c3        1 0RK      0.100700
      9 C3         -4.1150    0.8130    0.4190 ca        1 0RK     -0.406500
     10 S1         -3.5580   -0.3290    1.5420 sy        1 0RK      1.527200
     11 O16        -2.4970    0.1980    2.2910 o         1 0RK     -0.643800
     12 O17        -4.6830   -0.7570    2.2890 o         1 0RK     -0.643800
     13 N2         -3.0700   -1.5860    0.6170 nh        1 0RK     -0.679900
     14 C12        -3.9940   -2.6470    0.2100 c3        1 0RK      0.219800
     15 C19        -3.1870   -3.6950   -0.5990 c3        1 0RK     -0.033100
     16 C6         -1.8080   -3.1220   -0.6290 ca        1 0RK     -0.118300
     17 C4         -1.7910   -1.8930    0.1000 ca        1 0RK      0.167600
     18 C13        -0.6590   -3.6040   -1.2340 ca        1 0RK     -0.048300
     19 C34        -0.6560   -4.8710   -2.0010 c3        1 0RK     -0.051800
     20 C18         0.5220   -2.8490   -1.1230 ca        1 0RK     -0.135000
     21 C9          0.5360   -1.6490   -0.4170 ca        1 0RK     -0.109600
     22 C8         -0.6130   -1.1570    0.2210 ca        1 0RK     -0.117000
     23 C7          1.7750   -0.7990   -0.3760 c         1 0RK      0.675700
     24 O24         1.7010    0.4170   -0.6510 o         1 0RK     -0.617100
     25 N15         2.9380   -1.4530   -0.0440 n         1 0RK     -0.447100
     26 C23         4.2430   -0.9140    0.0210 ca        1 0RK      0.013600
     27 C20         4.5840    0.3300   -0.5340 ca        1 0RK     -0.154000
     28 C10         5.9110    0.7740   -0.4740 ca        1 0RK      0.047400
     29 CL1         6.2620    2.2920   -1.1690 cl        1 0RK     -0.108400
     30 C29         5.2530   -1.6860    0.6450 ca        1 0RK     -0.185000
     31 C22         6.5590   -1.2190    0.6860 ca        1 0RK     -0.095000
     32 C5          6.9170    0.0130    0.1250 ca        1 0RK     -0.094600
     33 C11         8.3840    0.4440    0.1920 c         1 0RK      0.918200
     34 O25         9.1280    0.0980   -0.7640 o         1 0RK     -0.812800
     35 O30         8.7550    1.0780    1.2150 o         1 0RK     -0.812800
     36 H1         -6.1800    0.3640    0.8940 ha        1 0RK      0.175000
     37 H2         -5.5910    3.5330   -2.0050 ha        1 0RK      0.148000
     38 H3         -3.1270    3.2590   -1.8110 ha        1 0RK      0.154000
     39 H4         -0.0220    1.8190   -0.6530 h1        1 0RK      0.069033
     40 H5         -1.2000    2.1540   -2.0330 h1        1 0RK      0.069033
     41 H6         -1.1310    3.3010   -0.5950 h1        1 0RK      0.069033
     42 H7         -4.4540   -3.1120    1.1240 h1        1 0RK      0.054700
     43 H8         -4.8130   -2.2090   -0.4230 h1        1 0RK      0.054700
     44 H9         -3.2070   -4.6910   -0.0900 hc        1 0RK      0.059700
     45 H10        -3.6070   -3.8140   -1.6270 hc        1 0RK      0.059700
     46 H11        -0.6810   -4.6530   -3.0990 hc        1 0RK      0.045367
     47 H12         0.2690   -5.4600   -1.7840 hc        1 0RK      0.045367
     48 H13        -1.5460   -5.4970   -1.7460 hc        1 0RK      0.045367
     49 H14         1.4350   -3.2130   -1.6210 ha        1 0RK      0.144000
     50 H15        -0.5730   -0.2050    0.7790 ha        1 0RK      0.187000
     51 H16         2.8580   -2.4040    0.2420 hn        1 0RK      0.312500
     52 H17         3.8180    0.9610   -1.0120 ha        1 0RK      0.159000
     53 H18         5.0130   -2.6590    1.0980 ha        1 0RK      0.109000
     54 H19         7.3420   -1.8230    1.1690 ha        1 0RK      0.141000
@<TRIPOS>BOND
     1    1    2 1   
     2    2    3 ar  
     3    2    4 ar  
     4    3    9 ar  
     5    3   36 1   
     6    4    5 ar  
     7    4   37 1   
     8    5    6 ar  
     9    5   38 1   
    10    6    7 1   
    11    6    9 ar  
    12    7    8 1   
    13    8   39 1   
    14    8   40 1   
    15    8   41 1   
    16    9   10 1   
    17   10   11 2   
    18   10   12 2   
    19   10   13 1   
    20   13   14 1   
    21   13   17 1   
    22   14   15 1   
    23   14   42 1   
    24   14   43 1   
    25   15   16 1   
    26   15   44 1   
    27   15   45 1   
    28   16   17 ar  
    29   16   18 ar  
    30   17   22 ar  
    31   18   19 1   
    32   18   20 ar  
    33   19   46 1   
    34   19   47 1   
    35   19   48 1   
    36   20   21 ar  
    37   20   49 1   
    38   21   22 ar  
    39   21   23 1   
    40   22   50 1   
    41   23   24 2   
    42   23   25 1   
    43   25   26 1   
    44   25   51 1   
    45   26   27 ar  
    46   26   30 ar  
    47   27   28 ar  
    48   27   52 1   
    49   28   29 1   
    50   28   32 ar  
    51   30   31 ar  
    52   30   53 1   
    53   31   32 ar  
    54   31   54 1   
    55   32   33 1   
    56   33   34 1   
    57   33   35 1   
@<TRIPOS>SUBSTRUCTURE
     1 0RK         1 TEMP              0 ****  ****    0 ROOT
