@<TRIPOS>MOLECULE
0RK
   55    58     1     0     0
SMALL
bcc


@<TRIPOS>ATOM
      1 CL2         0.7660    0.9340   -0.1530 cl        1 0RK     -0.081400
      2 C27         2.4640    0.8870   -0.1700 ca        1 0RK     -0.055600
      3 C14         3.1620    0.5530    0.9800 ca        1 0RK      0.003000
      4 C31         3.1550    1.1940   -1.3570 ca        1 0RK     -0.015000
      5 C26         4.5360    1.1520   -1.3790 ca        1 0RK     -0.223000
      6 C21         5.2460    0.8030   -0.2090 ca        1 0RK      0.277100
      7 O33         6.6050    0.7170   -0.1620 os        1 0RK     -0.350900
      8 C35         7.3310    1.0980   -1.3430 c3        1 0RK      0.131700
      9 C3          4.5710    0.5050    0.9960 ca        1 0RK     -0.452500
     10 S1          5.3280    0.1720    2.4480 sy        1 0RK      1.540200
     11 O16         6.3070    1.1250    2.7710 o         1 0RK     -0.645800
     12 O17         4.3380   -0.0350    3.4300 o         1 0RK     -0.645800
     13 N2          6.0730   -1.2870    2.1680 nh        1 0RK     -0.656900
     14 C12         5.3190   -2.5000    1.8390 c3        1 0RK      0.211800
     15 C19         6.3320   -3.6700    1.7280 c3        1 0RK     -0.044100
     16 C6          7.6460   -3.0160    2.0060 ca        1 0RK     -0.085300
     17 C4          7.4320   -1.6210    2.2510 ca        1 0RK      0.207600
     18 C13         8.9170   -3.5690    2.0500 ca        1 0RK     -0.030300
     19 C34         9.1360   -5.0110    1.7960 c3        1 0RK     -0.060800
     20 C18        10.0040   -2.7240    2.3290 ca        1 0RK     -0.136000
     21 C9          9.7960   -1.3630    2.5630 ca        1 0RK     -0.141600
     22 C8          8.5150   -0.7850    2.5420 ca        1 0RK     -0.107000
     23 C7         10.9220   -0.4690    2.8520 c         1 0RK      0.585700
     24 O24        11.0610    0.3480    3.7500 o         1 0RK     -0.429100
     25 N15        12.0950   -0.5480    1.8820 n4        1 0RK     -0.534200
     26 C23        11.7210   -0.0500    0.5570 ca        1 0RK     -0.097400
     27 C20        11.5600   -0.9590   -0.5030 ca        1 0RK     -0.117000
     28 C10        11.1430   -0.4790   -1.7460 ca        1 0RK      0.035400
     29 CL1        10.9550   -1.5930   -3.0080 cl        1 0RK     -0.044400
     30 C29        11.5070    1.3280    0.3680 ca        1 0RK     -0.111000
     31 C22        11.0890    1.7740   -0.8790 ca        1 0RK     -0.101000
     32 C5         10.8760    0.8850   -1.9400 ca        1 0RK     -0.056600
     33 C11        10.2920    1.4390   -3.2580 c         1 0RK      0.925200
     34 O25        11.1050    1.8020   -4.1340 o         1 0RK     -0.779300
     35 O30         9.0350    1.4930   -3.2920 o         1 0RK     -0.779300
     36 H1          2.6120    0.3250    1.9150 ha        1 0RK      0.178000
     37 H2          2.5940    1.4660   -2.2670 ha        1 0RK      0.158000
     38 H3          5.0800    1.3910   -2.3070 ha        1 0RK      0.174000
     39 H4          7.1070    0.4000   -2.1840 h1        1 0RK      0.072700
     40 H5          7.1050    2.1530   -1.6260 h1        1 0RK      0.072700
     41 H6          8.4020    1.0000   -1.0300 h1        1 0RK      0.072700
     42 H7          4.7810   -2.3540    0.8640 h1        1 0RK      0.067700
     43 H8          4.5670   -2.7000    2.6510 h1        1 0RK      0.067700
     44 H9          6.1060   -4.4690    2.4780 hc        1 0RK      0.074200
     45 H10         6.3090   -4.1240    0.7070 hc        1 0RK      0.074200
     46 H11         8.2850   -5.6150    2.1990 hc        1 0RK      0.056033
     47 H12         9.2040   -5.1970    0.6930 hc        1 0RK      0.056033
     48 H13        10.0820   -5.3680    2.2730 hc        1 0RK      0.056033
     49 H14        11.0110   -3.1620    2.3820 ha        1 0RK      0.123000
     50 H15         8.3760    0.2940    2.7380 ha        1 0RK      0.204000
     51 H16        12.3990   -1.5220    1.8000 hn        1 0RK      0.449300
     52 H17        11.7450   -2.0360   -0.3640 ha        1 0RK      0.140000
     53 H18        11.6520    2.0460    1.1910 ha        1 0RK      0.144000
     54 H19        10.9080    2.8500   -1.0470 ha        1 0RK      0.174000
     55 H152       12.8700    0.0230    2.2420 hn        1 0RK      0.449300
@<TRIPOS>BOND
     1    1    2 1   
     2    2    3 ar  
     3    2    4 ar  
     4    3    9 ar  
     5    3   36 1   
     6    4    5 ar  
     7    4   37 1   
     8    5    6 ar  
     9    5   38 1   
    10    6    7 1   
    11    6    9 ar  
    12    7    8 1   
    13    8   39 1   
    14    8   40 1   
    15    8   41 1   
    16    9   10 1   
    17   10   11 2   
    18   10   12 2   
    19   10   13 1   
    20   13   14 1   
    21   13   17 1   
    22   14   15 1   
    23   14   42 1   
    24   14   43 1   
    25   15   16 1   
    26   15   44 1   
    27   15   45 1   
    28   16   17 ar  
    29   16   18 ar  
    30   17   22 ar  
    31   18   19 1   
    32   18   20 ar  
    33   19   46 1   
    34   19   47 1   
    35   19   48 1   
    36   20   21 ar  
    37   20   49 1   
    38   21   22 ar  
    39   21   23 1   
    40   22   50 1   
    41   23   24 2   
    42   23   25 1   
    43   25   26 1   
    44   25   51 1   
    45   25   55 1   
    46   26   27 ar  
    47   26   30 ar  
    48   27   28 ar  
    49   27   52 1   
    50   28   29 1   
    51   28   32 ar  
    52   30   31 ar  
    53   30   53 1   
    54   31   32 ar  
    55   31   54 1   
    56   32   33 1   
    57   33   34 1   
    58   33   35 1   
@<TRIPOS>SUBSTRUCTURE
     1 0RK         1 TEMP              0 ****  ****    0 ROOT
