@<TRIPOS>MOLECULE
0RK
   54    49     1     0     0
SMALL
bcc


@<TRIPOS>ATOM
      1 CL2        -6.9180   -2.9220    2.1320 cl        1 0RK     -0.018000
      2 C27        -6.3230   -1.2820    1.8990 c1        1 0RK     -0.135000
      3 C14        -5.0000   -1.0760    1.5000 c1        1 0RK      0.008000
      4 C31        -7.1760   -0.1840    2.1120 c1        1 0RK     -0.027000
      5 C26        -6.6960    1.1260    1.9220 c1        1 0RK     -0.227000
      6 C21        -5.3470    1.3390    1.5160 c1        1 0RK      0.216000
      7 O33        -4.9000    2.6370    1.2320 o         1 0RK     -0.202000
      8 C35        -5.5170    3.6360    2.0200 c3        1 0RK     -0.089000
      9 C3         -4.5080    0.2500    1.3070 c2        1 0RK     -0.851000
     10 S1         -2.8260    0.5000    0.6870 s4        1 0RK      2.082800
     11 O16        -2.8260    0.7880   -0.7270 o         1 0RK     -0.531400
     12 O17        -2.2250    1.7400    1.2350 o         1 0RK     -0.531400
     13 N2         -1.8670   -0.8510    1.0400 n2        1 0RK     -0.776000
     14 C12        -2.3140   -2.0660    1.6460 c3        1 0RK     -0.017000
     15 C19        -1.1760   -2.9820    1.6920 c3        1 0RK     -0.119000
     16 C6         -0.0030   -2.2740    1.1240 c2        1 0RK     -0.111000
     17 C4         -0.3970   -0.9600    0.8150 c2        1 0RK      0.086000
     18 C13         1.2850   -2.7210    0.7790 c1        1 0RK     -0.041000
     19 C34         1.7180   -4.1510    1.1230 c2        1 0RK     -0.177000
     20 C18         2.1930   -1.8390    0.1130 c2        1 0RK     -0.135000
     21 C9          1.7970   -0.5210   -0.1970 c1        1 0RK     -0.089000
     22 C8          0.5150   -0.0770    0.1470 c1        1 0RK     -0.117000
     23 C7          2.7180    0.3770   -1.0610 c2        1 0RK      0.349000
     24 O24         2.4190    1.5090   -1.2690 o         1 0RK     -0.378000
     25 N15         3.9580   -0.1300   -1.5410 n         1 0RK     -0.301000
     26 C23         4.8300    0.7060   -2.2680 c2        1 0RK      0.021000
     27 C20         5.1800    1.9370   -1.7710 c2        1 0RK     -0.154000
     28 C10         6.1100    2.7280   -2.4550 c1        1 0RK     -0.031000
     29 CL1         6.4790    4.3240   -1.8890 cl        1 0RK     -0.030000
     30 C29         5.3990    0.2470   -3.4460 c1        1 0RK     -0.185000
     31 C22         6.3120    1.0200   -4.1200 c1        1 0RK     -0.095000
     32 C5          6.6690    2.2700   -3.6190 c1        1 0RK     -0.074000
     33 C11         7.6450    3.1580   -4.3980 c2        1 0RK      0.367000
     34 O25         7.1920    4.0620   -5.2100 o         1 0RK     -0.547500
     35 O30         8.9020    3.0190   -4.2350 o         1 0RK     -0.547500
     36 H1         -4.4150   -1.8380    1.3530 ha        1 0RK      0.175000
     37 H2         -8.1440   -0.3370    2.3220 ha        1 0RK      0.148000
     38 H3         -7.2840    1.9110    2.1370 ha        1 0RK      0.154000
     39 H4         -5.3850    3.4240    2.9900 h1        1 0RK      0.108333
     40 H5         -5.1230    4.4890    1.8230 h1        1 0RK      0.108333
     41 H6         -6.5030    3.6660    1.8150 h1        1 0RK      0.108333
     42 H7         -2.6110   -1.8820    2.5490 h1        1 0RK      0.094000
     43 H8         -3.0130   -2.4550    1.1040 h1        1 0RK      0.094000
     44 H9         -1.3720   -3.7670    1.1440 hc        1 0RK      0.099000
     45 H10        -0.9930   -3.2130    2.6060 hc        1 0RK      0.099000
     46 H11         2.6270   -4.2880    0.8350 ha        1 0RK      0.084667
     47 H12         1.1360   -4.7840    0.6710 ha        1 0RK      0.084667
     48 H13         1.6570   -4.2900    2.1140 ha        1 0RK      0.084667
     49 H14         3.0510   -2.1880   -0.2370 ha        1 0RK      0.144000
     50 H15         0.2320    0.8650   -0.0760 ha        1 0RK      0.187000
     51 H16         4.1900   -0.9770   -1.3730 hn        1 0RK      0.226000
     52 H17         4.8130    2.2420   -0.9020 ha        1 0RK      0.159000
     53 H18         5.1490   -0.6280   -3.7960 ha        1 0RK      0.109000
     54 H19         6.6870    0.7120   -4.9100 ha        1 0RK      0.141000
@<TRIPOS>BOND
     1    1    2 1   
     2    2    4 1   
     3    3    9 1   
     4    3   36 1   
     5    4   37 1   
     6    5    6 1   
     7    5   38 1   
     8    6    9 1   
     9    7    8 1   
    10    8   39 1   
    11    8   40 1   
    12    8   41 1   
    13    9   10 1   
    14   10   11 1   
    15   10   12 1   
    16   13   14 1   
    17   13   17 1   
    18   14   15 1   
    19   14   42 1   
    20   14   43 1   
    21   15   16 1   
    22   15   44 1   
    23   15   45 1   
    24   16   17 1   
    25   16   18 1   
    26   17   22 1   
    27   18   20 1   
    28   19   46 1   
    29   19   47 1   
    30   19   48 1   
    31   20   21 1   
    32   20   49 1   
    33   21   23 1   
    34   22   50 1   
    35   23   24 1   
    36   23   25 1   
    37   25   26 1   
    38   25   51 1   
    39   26   27 1   
    40   26   30 1   
    41   27   28 1   
    42   27   52 1   
    43   28   29 1   
    44   30   53 1   
    45   31   32 1   
    46   31   54 1   
    47   32   33 1   
    48   33   34 1   
    49   33   35 1   
@<TRIPOS>SUBSTRUCTURE
     1 0RK         1 TEMP              0 ****  ****    0 ROOT
