@<TRIPOS>MOLECULE
0RK
   54    57     1     0     0
SMALL
bcc


@<TRIPOS>ATOM
      1 Cl2        -0.1890   -0.9060    0.8460 cl        1 0RK     -0.096400
      2 C27         1.4410   -0.5210    0.5460 ca        1 0RK     -0.056600
      3 C14         2.3400   -0.4270    1.6030 ca        1 0RK      0.008000
      4 C31         1.8670   -0.2950   -0.7720 ca        1 0RK     -0.027000
      5 C26         3.1940    0.0140   -1.0200 ca        1 0RK     -0.227000
      6 C21         4.1050    0.0960    0.0510 ca        1 0RK      0.261100
      7 O33         5.4340    0.3690   -0.1110 os        1 0RK     -0.318900
      8 C35         5.9030    0.6490   -1.4320 c3        1 0RK      0.100700
      9 C3          3.6900   -0.1140    1.3850 ca        1 0RK     -0.406500
     10 S1          4.7050    0.0490    2.7350 sy        1 0RK      1.527200
     11 O16         5.5110    1.1880    2.6050 o         1 0RK     -0.643800
     12 O17         3.8740    0.0130    3.8820 o         1 0RK     -0.643800
     13 N2          5.5970   -1.3200    2.7250 nh        1 0RK     -0.679900
     14 C12         5.1410   -2.5420    3.3930 c3        1 0RK      0.219800
     15 C19         6.2520   -3.6120    3.2340 c3        1 0RK     -0.033100
     16 C6          7.2940   -2.9130    2.4250 ca        1 0RK     -0.118300
     17 C4          6.8660   -1.5750    2.1580 ca        1 0RK      0.167600
     18 C13         8.5080   -3.3780    1.9470 ca        1 0RK     -0.048300
     19 C34         8.9670   -4.7620    2.2040 c3        1 0RK     -0.051800
     20 C18         9.3050   -2.5060    1.1840 ca        1 0RK     -0.135000
     21 C9          8.8850   -1.2050    0.9200 ca        1 0RK     -0.109600
     22 C8          7.6690   -0.7100    1.4150 ca        1 0RK     -0.117000
     23 C7          9.6940   -0.3040    0.0300 c         1 0RK      0.675700
     24 O24         9.1370    0.2960   -0.9130 o         1 0RK     -0.617100
     25 N15        11.0350   -0.2240    0.3210 ns        1 0RK     -0.447100
     26 C23        12.0280    0.5020   -0.3760 ca        1 0RK      0.013600
     27 C20        11.8270    1.0300   -1.6630 ca        1 0RK     -0.154000
     28 C10        12.8770    1.6930   -2.3090 ca        1 0RK      0.047400
     29 Cl1        12.5710    2.3080   -3.8710 cl        1 0RK     -0.108400
     30 C29        13.2910    0.6680    0.2430 ca        1 0RK     -0.185000
     31 C22        14.3110    1.3290   -0.4250 ca        1 0RK     -0.095000
     32 C5         14.1300    1.8480   -1.7130 ca        1 0RK     -0.094600
     33 C11        15.3140    2.5420   -2.3900 c         1 0RK      0.918200
     34 O25        16.0820    1.8220   -3.0830 o         1 0RK     -0.812800
     35 O30        15.4620    3.7740   -2.1780 o         1 0RK     -0.812800
     36 H1          1.9910   -0.5870    2.6420 ha        1 0RK      0.175000
     37 H2          1.1500   -0.3630   -1.6050 ha        1 0RK      0.148000
     38 H3          3.5310    0.1950   -2.0510 ha        1 0RK      0.154000
     39 H4          5.7240   -0.2260   -2.1020 h1        1 0RK      0.069033
     40 H5          7.0060    0.8100   -1.2730 h1        1 0RK      0.069033
     41 H6          5.4110    1.5670   -1.8300 h1        1 0RK      0.069033
     42 H7          4.1860   -2.8940    2.9180 h1        1 0RK      0.054700
     43 H8          4.9460   -2.3230    4.4780 h1        1 0RK      0.054700
     44 H9          5.8600   -4.5170    2.7090 hc        1 0RK      0.059700
     45 H10         6.6480   -3.9240    4.2320 hc        1 0RK      0.059700
     46 H11        10.0580   -4.7760    2.4480 hc        1 0RK      0.045367
     47 H12         8.4060   -5.2200    3.0560 hc        1 0RK      0.045367
     48 H13         8.8040   -5.3940    1.2950 hc        1 0RK      0.045367
     49 H14        10.2610   -2.8750    0.7800 ha        1 0RK      0.144000
     50 H15         7.3620    0.3280    1.1950 ha        1 0RK      0.187000
     51 H16        11.3470   -0.6770    1.1510 hn        1 0RK      0.312500
     52 H17        10.8520    0.9300   -2.1640 ha        1 0RK      0.159000
     53 H18        13.4730    0.2750    1.2540 ha        1 0RK      0.109000
     54 H19        15.2920    1.4540    0.0580 ha        1 0RK      0.141000
@<TRIPOS>BOND
     1    1    2 1   
     2    2    3 ar  
     3    2    4 ar  
     4    3    9 ar  
     5    3   36 1   
     6    4    5 ar  
     7    4   37 1   
     8    5    6 ar  
     9    5   38 1   
    10    6    7 1   
    11    6    9 ar  
    12    7    8 1   
    13    8   39 1   
    14    8   40 1   
    15    8   41 1   
    16    9   10 1   
    17   10   11 2   
    18   10   12 2   
    19   10   13 1   
    20   13   14 1   
    21   13   17 1   
    22   14   15 1   
    23   14   42 1   
    24   14   43 1   
    25   15   16 1   
    26   15   44 1   
    27   15   45 1   
    28   16   17 ar  
    29   16   18 ar  
    30   17   22 ar  
    31   18   19 1   
    32   18   20 ar  
    33   19   46 1   
    34   19   47 1   
    35   19   48 1   
    36   20   21 ar  
    37   20   49 1   
    38   21   22 ar  
    39   21   23 1   
    40   22   50 1   
    41   23   24 2   
    42   23   25 1   
    43   25   26 1   
    44   25   51 1   
    45   26   27 ar  
    46   26   30 ar  
    47   27   28 ar  
    48   27   52 1   
    49   28   29 1   
    50   28   32 ar  
    51   30   31 ar  
    52   30   53 1   
    53   31   32 ar  
    54   31   54 1   
    55   32   33 1   
    56   33   34 1   
    57   33   35 1   
@<TRIPOS>SUBSTRUCTURE
     1 0RK         1 TEMP              0 ****  ****    0 ROOT
