@<TRIPOS>MOLECULE
0RK
   54    57     1     0     0
SMALL
bcc


@<TRIPOS>ATOM
      1 CL2        -0.1900   -0.9040    0.8470 cl        1 0RK     -0.096400
      2 C27         1.4400   -0.5180    0.5490 ca        1 0RK     -0.056600
      3 C14         2.3390   -0.4330    1.6050 ca        1 0RK      0.008000
      4 C31         1.8650   -0.2820   -0.7670 ca        1 0RK     -0.027000
      5 C26         3.1920    0.0280   -1.0150 ca        1 0RK     -0.227000
      6 C21         4.1040    0.1010    0.0570 ca        1 0RK      0.261100
      7 O33         5.4330    0.3750   -0.1040 os        1 0RK     -0.318900
      8 C35         5.9010    0.6640   -1.4230 c3        1 0RK      0.100700
      9 C3          3.6900   -0.1190    1.3890 ca        1 0RK     -0.406500
     10 S1          4.7050    0.0330    2.7390 sy        1 0RK      1.527200
     11 O16         5.5120    1.1720    2.6190 o         1 0RK     -0.643800
     12 O17         3.8760   -0.0110    3.8870 o         1 0RK     -0.643800
     13 N2          5.5970   -1.3370    2.7180 nh        1 0RK     -0.679900
     14 C12         5.1410   -2.5630    3.3770 c3        1 0RK      0.219800
     15 C19         6.2500   -3.6330    3.2090 c3        1 0RK     -0.033100
     16 C6          7.2930   -2.9280    2.4050 ca        1 0RK     -0.118300
     17 C4          6.8650   -1.5880    2.1490 ca        1 0RK      0.167600
     18 C13         8.5060   -3.3900    1.9230 ca        1 0RK     -0.048300
     19 C34         8.9650   -4.7770    2.1680 c3        1 0RK     -0.051800
     20 C18         9.3030   -2.5120    1.1660 ca        1 0RK     -0.135000
     21 C9          8.8840   -1.2090    0.9130 ca        1 0RK     -0.109600
     22 C8          7.6680   -0.7170    1.4120 ca        1 0RK     -0.117000
     23 C7          9.6920   -0.3020    0.0290 c         1 0RK      0.675700
     24 O24         9.1360    0.3060   -0.9090 o         1 0RK     -0.617100
     25 N15        11.0340   -0.2240    0.3200 n         1 0RK     -0.447100
     26 C23        12.0270    0.5060   -0.3720 ca        1 0RK      0.013600
     27 C20        11.8260    1.0440   -1.6550 ca        1 0RK     -0.154000
     28 C10        12.8760    1.7110   -2.2970 ca        1 0RK      0.047400
     29 CL1        12.5690    2.3390   -3.8530 cl        1 0RK     -0.108400
     30 C29        13.2900    0.6670    0.2480 ca        1 0RK     -0.185000
     31 C22        14.3100    1.3310   -0.4170 ca        1 0RK     -0.095000
     32 C5         14.1290    1.8610   -1.7010 ca        1 0RK     -0.094600
     33 C11        15.3130    2.5590   -2.3730 c         1 0RK      0.918200
     34 O25        16.0810    1.8440   -3.0710 o         1 0RK     -0.812800
     35 O30        15.4620    3.7900   -2.1520 o         1 0RK     -0.812800
     36 H1          1.9910   -0.6000    2.6430 ha        1 0RK      0.175000
     37 H2          1.1480   -0.3430   -1.6010 ha        1 0RK      0.148000
     38 H3          3.5290    0.2170   -2.0440 ha        1 0RK      0.154000
     39 H4          5.4090    1.5860   -1.8140 h1        1 0RK      0.069033
     40 H5          5.7210   -0.2050   -2.1000 h1        1 0RK      0.069033
     41 H6          7.0050    0.8230   -1.2640 h1        1 0RK      0.069033
     42 H7          4.9470   -2.3520    4.4640 h1        1 0RK      0.054700
     43 H8          4.1850   -2.9120    2.9000 h1        1 0RK      0.054700
     44 H9          6.6470   -3.9530    4.2040 hc        1 0RK      0.059700
     45 H10         5.8580   -4.5330    2.6770 hc        1 0RK      0.059700
     46 H11         8.4050   -5.2390    3.0190 hc        1 0RK      0.045367
     47 H12         8.7980   -5.4020    1.2550 hc        1 0RK      0.045367
     48 H13        10.0560   -4.7940    2.4090 hc        1 0RK      0.045367
     49 H14        10.2580   -2.8790    0.7580 ha        1 0RK      0.144000
     50 H15         7.3620    0.3230    1.2010 ha        1 0RK      0.187000
     51 H16        11.3470   -0.6840    1.1460 hn        1 0RK      0.312500
     52 H17        10.8500    0.9490   -2.1560 ha        1 0RK      0.159000
     53 H18        13.4730    0.2660    1.2550 ha        1 0RK      0.109000
     54 H19        15.2920    1.4520    0.0660 ha        1 0RK      0.141000
@<TRIPOS>BOND
     1    1    2 1   
     2    2    3 ar  
     3    2    4 ar  
     4    3    9 ar  
     5    3   36 1   
     6    4    5 ar  
     7    4   37 1   
     8    5    6 ar  
     9    5   38 1   
    10    6    7 1   
    11    6    9 ar  
    12    7    8 1   
    13    8   39 1   
    14    8   40 1   
    15    8   41 1   
    16    9   10 1   
    17   10   11 2   
    18   10   12 2   
    19   10   13 1   
    20   13   14 1   
    21   13   17 1   
    22   14   15 1   
    23   14   42 1   
    24   14   43 1   
    25   15   16 1   
    26   15   44 1   
    27   15   45 1   
    28   16   17 ar  
    29   16   18 ar  
    30   17   22 ar  
    31   18   19 1   
    32   18   20 ar  
    33   19   46 1   
    34   19   47 1   
    35   19   48 1   
    36   20   21 ar  
    37   20   49 1   
    38   21   22 ar  
    39   21   23 1   
    40   22   50 1   
    41   23   24 2   
    42   23   25 1   
    43   25   26 1   
    44   25   51 1   
    45   26   27 ar  
    46   26   30 ar  
    47   27   28 ar  
    48   27   52 1   
    49   28   29 1   
    50   28   32 ar  
    51   30   31 ar  
    52   30   53 1   
    53   31   32 ar  
    54   31   54 1   
    55   32   33 1   
    56   33   34 1   
    57   33   35 1   
@<TRIPOS>SUBSTRUCTURE
     1 0RK         1 TEMP              0 ****  ****    0 ROOT
