@<TRIPOS>MOLECULE
0RM
   48    49     1     0     0
SMALL
bcc


@<TRIPOS>ATOM
      1 O16        -0.5730   -0.7700    0.1620 o         1 0RM     -0.485100
      2 C15         0.4690   -0.1190    0.1490 c         1 0RM      0.618700
      3 N14         0.5310    1.0450    1.0870 ny        1 0RM     -0.640800
      4 C9          0.5040    0.7400    2.5650 c3        1 0RM     -0.017500
      5 C5          1.6880   -0.1450    2.9480 c3        1 0RM      0.249600
      6 S1          1.7630   -0.5030    4.7380 ss        1 0RM     -0.377200
      7 C2          2.6510   -2.0690    4.4580 c3        1 0RM      0.051100
      8 C10         4.0560   -1.9520    4.9920 c3        1 0RM     -0.080600
      9 C6          1.8900   -3.1480    5.1950 c3        1 0RM     -0.080600
     10 C3          2.6260   -2.3290    2.9260 c3        1 0RM      0.029500
     11 C11         4.0430   -2.2420    2.2520 c         1 0RM      0.932600
     12 O12         4.4650   -3.3280    1.7580 o         1 0RM     -0.828800
     13 O13         4.6440   -1.1400    2.1940 o         1 0RM     -0.828800
     14 N4          1.6900   -1.4250    2.2590 n7        1 0RM     -0.792200
     15 C7          0.5380    2.1690    3.2920 c         1 0RM      0.929600
     16 O8         -0.2170    2.2930    4.2740 o         1 0RM     -0.776800
     17 OG          1.2500    3.0400    2.7270 o         1 0RM     -0.776800
     18 C17         1.6510   -0.3510   -0.6880 ca        1 0RM     -0.221600
     19 C18         2.4150    0.6950   -1.2530 ca        1 0RM      0.220100
     20 O25         1.9050    1.9780   -1.1220 os        1 0RM     -0.345900
     21 C26         2.8820    3.0060   -0.9410 c3        1 0RM      0.096700
     22 C19         3.5890    0.4410   -1.9600 ca        1 0RM     -0.217000
     23 C20         4.0360   -0.8770   -2.0930 ca        1 0RM     -0.020000
     24 C21         3.3000   -1.9330   -1.5780 ca        1 0RM     -0.217000
     25 C22         2.0970   -1.6790   -0.8920 ca        1 0RM      0.220100
     26 O23         1.2820   -2.6760   -0.4290 os        1 0RM     -0.345900
     27 C24         1.9230   -3.9230   -0.1320 c3        1 0RM      0.096700
     28 H1          1.3960    1.5940    0.9370 hn        1 0RM      0.460300
     29 H2         -0.4740    0.2360    2.7980 hx        1 0RM      0.094700
     30 H3          2.6660    0.3690    2.7050 h2        1 0RM      0.137700
     31 H4          4.6380   -2.8700    4.7290 hc        1 0RM      0.040867
     32 H5          4.0440   -1.8330    6.1020 hc        1 0RM      0.040867
     33 H6          4.5710   -1.0720    4.5300 hc        1 0RM      0.040867
     34 H7          2.4200   -4.1270    5.0940 hc        1 0RM      0.040867
     35 H8          0.8580   -3.2570    4.7820 hc        1 0RM      0.040867
     36 H9          1.8130   -2.8990    6.2810 hc        1 0RM      0.040867
     37 H10         2.2710   -3.3880    2.7510 h1        1 0RM      0.053700
     38 H12         0.7650   -1.8250    2.2760 hn        1 0RM      0.337800
     39 H15         2.3000    3.8440   -0.4800 h1        1 0RM      0.063200
     40 H16         3.2930    3.3030   -1.9360 h1        1 0RM      0.063200
     41 H17         3.6990    2.6690   -0.2580 h1        1 0RM      0.063200
     42 H18         4.1730    1.2700   -2.3810 ha        1 0RM      0.151000
     43 H19         4.9880   -1.0750   -2.6090 ha        1 0RM      0.138000
     44 H20         3.6780   -2.9630   -1.6560 ha        1 0RM      0.151000
     45 H21         2.1260   -4.4700   -1.0840 h1        1 0RM      0.063200
     46 H22         2.8640   -3.7640    0.4670 h1        1 0RM      0.063200
     47 H23         1.1520   -4.4620    0.4740 h1        1 0RM      0.063200
     48 H142       -0.2620    1.6650    0.9010 hn        1 0RM      0.460300
@<TRIPOS>BOND
     1    1    2 2   
     2    2    3 1   
     3    2   18 1   
     4    3    4 1   
     5    3   28 1   
     6    3   48 1   
     7    4    5 1   
     8    4   15 1   
     9    4   29 1   
    10    5    6 1   
    11    5   14 1   
    12    5   30 1   
    13    6    7 1   
    14    7    8 1   
    15    7    9 1   
    16    7   10 1   
    17    8   31 1   
    18    8   32 1   
    19    8   33 1   
    20    9   34 1   
    21    9   35 1   
    22    9   36 1   
    23   10   11 1   
    24   10   14 1   
    25   10   37 1   
    26   11   12 1   
    27   11   13 1   
    28   14   38 1   
    29   15   16 1   
    30   15   17 1   
    31   18   19 ar  
    32   18   25 ar  
    33   19   20 1   
    34   19   22 ar  
    35   20   21 1   
    36   21   39 1   
    37   21   40 1   
    38   21   41 1   
    39   22   23 ar  
    40   22   42 1   
    41   23   24 ar  
    42   23   43 1   
    43   24   25 ar  
    44   24   44 1   
    45   25   26 1   
    46   26   27 1   
    47   27   45 1   
    48   27   46 1   
    49   27   47 1   
@<TRIPOS>SUBSTRUCTURE
     1 0RM         1 TEMP              0 ****  ****    0 ROOT
