@<TRIPOS>MOLECULE
0RM
   47    44     1     0     0
SMALL
bcc


@<TRIPOS>ATOM
      1 O16        -0.1670    2.2260    0.3000 o         1 0RM     -0.435000
      2 C15         0.3310    1.4690   -0.5300 c1        1 0RM      0.340000
      3 N14         0.0940    0.0650   -0.4480 n2        1 0RM     -0.270000
      4 C9         -0.5960   -0.4630    0.6240 c3        1 0RM     -0.056000
      5 C5         -0.2660   -2.0480    0.7350 c3        1 0RM     -0.044000
      6 S1         -0.3860   -2.5480    2.3490 ss        1 0RM     -0.172000
      7 C2         -1.7250   -2.7350    2.5960 c3        1 0RM     -0.103000
      8 C10        -2.3320   -1.4510    3.1350 c3        1 0RM     -0.196000
      9 C6         -1.9250   -3.8520    3.5700 c3        1 0RM     -0.196000
     10 C3         -2.3870   -3.1100    1.1660 c3        1 0RM     -0.101000
     11 C11        -2.8370   -4.3710    1.0810 c2        1 0RM      0.339000
     12 O12        -4.0930   -4.6030    1.1260 o         1 0RM     -0.579500
     13 O13        -2.0200   -5.3280    0.9530 o         1 0RM     -0.579500
     14 N4         -1.1440   -2.7280    0.0620 n3        1 0RM     -0.273000
     15 C7         -0.1840    0.2150    1.8640 c2        1 0RM      0.334000
     16 O8         -0.8210    1.2260    2.2700 o         1 0RM     -0.576000
     17 OG          0.7860   -0.2150    2.5190 o         1 0RM     -0.576000
     18 C17         1.1590    2.0590   -1.7410 c2        1 0RM     -0.188000
     19 C18         0.6470    3.1360   -2.4810 c2        1 0RM      0.117000
     20 O25        -0.6200    3.6760   -2.1600 os        1 0RM     -0.218000
     21 C26        -0.6950    5.0980   -2.3050 c3        1 0RM     -0.083000
     22 C19         1.3810    3.6660   -3.5330 c1        1 0RM     -0.203000
     23 C20         2.6320    3.1310   -3.8540 c1        1 0RM     -0.150000
     24 C21         3.1430    2.0550   -3.1140 c1        1 0RM     -0.150000
     25 C22         2.4060    1.5210   -2.0600 c1        1 0RM      0.147000
     26 O23         2.9650    0.4310   -1.2550 o         1 0RM     -0.234000
     27 C24         4.3440    0.6150   -0.9130 c3        1 0RM     -0.114000
     28 H1          0.3730   -0.4870   -1.1300 hn        1 0RM      0.244000
     29 H2         -1.5610   -0.3380    0.4890 h1        1 0RM      0.119000
     30 H3          0.6380   -2.2310    0.3890 h2        1 0RM      0.134000
     31 H4         -1.6230   -0.9180    3.5980 hc        1 0RM      0.076167
     32 H5         -2.6880   -0.9490    2.4210 hc        1 0RM      0.076167
     33 H6         -3.0170   -1.6600    3.7440 hc        1 0RM      0.076167
     34 H7         -1.5250   -4.7030    3.1950 hc        1 0RM      0.076167
     35 H8         -2.9170   -3.9860    3.7320 hc        1 0RM      0.076167
     36 H9         -1.4880   -3.6300    4.4100 hc        1 0RM      0.076167
     37 H10        -3.1950   -2.6030    0.9930 h1        1 0RM      0.102000
     38 H12        -0.7560   -3.5090   -0.2500 hn        1 0RM      0.185000
     39 H15         0.1580    5.5110   -1.9790 h1        1 0RM      0.086333
     40 H16        -1.4520    5.4430   -1.7740 h1        1 0RM      0.086333
     41 H17        -0.8340    5.3290   -3.2790 h1        1 0RM      0.086333
     42 H18         1.0080    4.4520   -4.0710 ha        1 0RM      0.133000
     43 H19         3.1630    3.5240   -4.5830 ha        1 0RM      0.121000
     44 H20         4.0430    1.6690   -3.3460 ha        1 0RM      0.121000
     45 H21         4.6240   -0.0850   -0.2640 h1        1 0RM      0.115333
     46 H22         4.4620    1.4890   -0.5170 h1        1 0RM      0.115333
     47 H23         4.8990    0.5460   -1.7350 h1        1 0RM      0.115333
@<TRIPOS>BOND
     1    1    2 1   
     2    2   18 1   
     3    3    4 1   
     4    3   28 1   
     5    4    5 1   
     6    4   15 1   
     7    4   29 1   
     8    5    6 1   
     9    5   14 1   
    10    5   30 1   
    11    6    7 1   
    12    7    8 1   
    13    7    9 1   
    14    7   10 1   
    15    8   31 1   
    16    8   32 1   
    17    8   33 1   
    18    9   34 1   
    19    9   35 1   
    20    9   36 1   
    21   10   11 1   
    22   10   14 1   
    23   10   37 1   
    24   11   12 1   
    25   11   13 1   
    26   14   38 1   
    27   15   16 1   
    28   15   17 1   
    29   18   19 1   
    30   18   25 1   
    31   19   20 1   
    32   19   22 1   
    33   20   21 1   
    34   21   39 1   
    35   21   40 1   
    36   21   41 1   
    37   22   42 1   
    38   23   24 1   
    39   23   43 1   
    40   24   44 1   
    41   26   27 1   
    42   27   45 1   
    43   27   46 1   
    44   27   47 1   
@<TRIPOS>SUBSTRUCTURE
     1 0RM         1 TEMP              0 ****  ****    0 ROOT
