@<TRIPOS>MOLECULE
0RM
   47    48     1     0     0
SMALL
bcc


@<TRIPOS>ATOM
      1 O16        -1.3850    1.5100    1.6430 o         1 0RM     -0.630100
      2 C15        -1.5490    0.7230    0.6860 c         1 0RM      0.679700
      3 N14        -0.6550    0.5640   -0.3510 n         1 0RM     -0.480900
      4 C9          0.2760    1.6090   -0.7360 c3        1 0RM     -0.076300
      5 C5          1.6980    1.0850   -1.0490 c3        1 0RM      0.326600
      6 S1          2.8000    1.3810    0.3980 ss        1 0RM     -0.497200
      7 C2          3.3730   -0.3540    0.5040 c3        1 0RM      0.118100
      8 C10         4.7380   -0.4540   -0.1280 c3        1 0RM     -0.078100
      9 C6          3.4090   -0.7890    1.9460 c3        1 0RM     -0.078100
     10 C3          2.2800   -1.1100   -0.2740 c3        1 0RM      0.044500
     11 C11         2.5890   -2.5900   -0.6490 c         1 0RM      0.930600
     12 O12         3.6030   -3.1670   -0.1650 o         1 0RM     -0.852800
     13 O13         1.7230   -3.1870   -1.3550 o         1 0RM     -0.852800
     14 N4          1.9080   -0.2960   -1.4360 n3        1 0RM     -0.799200
     15 C7         -0.2420    2.4290   -1.9750 c         1 0RM      0.899600
     16 O8         -1.3070    2.0570   -2.5510 o         1 0RM     -0.840800
     17 OG          0.4240    3.4430   -2.3130 o         1 0RM     -0.840800
     18 C17        -2.7340   -0.2040    0.6620 ca        1 0RM     -0.202600
     19 C18        -4.0500    0.2400    0.4600 ca        1 0RM      0.180600
     20 O25        -4.4620    1.5390    0.2660 os        1 0RM     -0.349400
     21 C26        -3.5280    2.4670   -0.2900 c3        1 0RM      0.098200
     22 C19        -5.1270   -0.6750    0.4830 ca        1 0RM     -0.213500
     23 C20        -4.8880   -2.0250    0.6970 ca        1 0RM     -0.095000
     24 C21        -3.5900   -2.4920    0.8850 ca        1 0RM     -0.213500
     25 C22        -2.5230   -1.5820    0.8720 ca        1 0RM      0.180600
     26 O23        -1.2450   -2.0150    1.1740 os        1 0RM     -0.349400
     27 C24        -0.6920   -2.9250    0.2150 c3        1 0RM      0.098200
     28 H1         -1.0010    0.0500   -1.1370 hn        1 0RM      0.303500
     29 H2          0.3680    2.3400    0.1210 h1        1 0RM      0.092700
     30 H3          2.1050    1.7380   -1.8720 h2        1 0RM      0.102700
     31 H4          5.4750    0.1640    0.4400 hc        1 0RM      0.037367
     32 H5          5.0700   -1.5240   -0.1230 hc        1 0RM      0.037367
     33 H6          4.7070   -0.0960   -1.1840 hc        1 0RM      0.037367
     34 H7          2.4320   -0.5900    2.4470 hc        1 0RM      0.037367
     35 H8          3.6220   -1.8890    1.9810 hc        1 0RM      0.037367
     36 H9          4.2120   -0.2450    2.5020 hc        1 0RM      0.037367
     37 H10         1.3950   -1.2090    0.4370 h1        1 0RM      0.032700
     38 H12         1.1180   -0.7030   -1.8990 hn        1 0RM      0.382800
     39 H15        -4.1890    3.2690   -0.7080 h1        1 0RM      0.064533
     40 H16        -2.8850    2.8770    0.5280 h1        1 0RM      0.064533
     41 H17        -2.9040    2.0140   -1.1040 h1        1 0RM      0.064533
     42 H18        -6.1440   -0.2960    0.3260 ha        1 0RM      0.130000
     43 H19        -5.7290   -2.7320    0.7110 ha        1 0RM      0.109000
     44 H20        -3.3910   -3.5590    1.0470 ha        1 0RM      0.130000
     45 H21        -0.5440   -2.4180   -0.7700 h1        1 0RM      0.064533
     46 H22         0.3090   -3.1940    0.6410 h1        1 0RM      0.064533
     47 H23        -1.3440   -3.8250    0.1100 h1        1 0RM      0.064533
@<TRIPOS>BOND
     1    1    2 2   
     2    2    3 1   
     3    2   18 1   
     4    3    4 1   
     5    3   28 1   
     6    4    5 1   
     7    4   15 1   
     8    4   29 1   
     9    5    6 1   
    10    5   14 1   
    11    5   30 1   
    12    6    7 1   
    13    7    8 1   
    14    7    9 1   
    15    7   10 1   
    16    8   31 1   
    17    8   32 1   
    18    8   33 1   
    19    9   34 1   
    20    9   35 1   
    21    9   36 1   
    22   10   11 1   
    23   10   14 1   
    24   10   37 1   
    25   11   12 1   
    26   11   13 1   
    27   14   38 1   
    28   15   16 1   
    29   15   17 1   
    30   18   19 ar  
    31   18   25 ar  
    32   19   20 1   
    33   19   22 ar  
    34   20   21 1   
    35   21   39 1   
    36   21   40 1   
    37   21   41 1   
    38   22   23 ar  
    39   22   42 1   
    40   23   24 ar  
    41   23   43 1   
    42   24   25 ar  
    43   24   44 1   
    44   25   26 1   
    45   26   27 1   
    46   27   45 1   
    47   27   46 1   
    48   27   47 1   
@<TRIPOS>SUBSTRUCTURE
     1 0RM         1 TEMP              0 ****  ****    0 ROOT
