@<TRIPOS>MOLECULE
0RM
   48    49     1     0     0
SMALL
bcc


@<TRIPOS>ATOM
      1 O16        -0.5740   -0.7480    0.1710 o         1 0RM     -0.485100
      2 C15         0.4770   -0.1110    0.1460 c         1 0RM      0.618700
      3 N14         0.5580    1.0630    1.0700 n4        1 0RM     -0.640800
      4 C9          0.5310    0.7760    2.5520 c3        1 0RM     -0.017500
      5 C5          1.7040   -0.1200    2.9420 c3        1 0RM      0.249600
      6 S1          1.7790   -0.4580    4.7360 ss        1 0RM     -0.377200
      7 C2          2.6440   -2.0390    4.4730 c3        1 0RM      0.051100
      8 C10         4.0530   -1.9350    5.0010 c3        1 0RM     -0.080600
      9 C6          1.8710   -3.0990    5.2240 c3        1 0RM     -0.080600
     10 C3          2.6120   -2.3170    2.9430 c3        1 0RM      0.029500
     11 C11         4.0280   -2.2570    2.2650 c         1 0RM      0.932600
     12 O12         4.4350   -3.3540    1.7830 o         1 0RM     -0.828800
     13 O13         4.6440   -1.1640    2.1930 o         1 0RM     -0.828800
     14 N4          1.6870   -1.4090    2.2680 n3        1 0RM     -0.792200
     15 C7          0.5860    2.2130    3.2620 c         1 0RM      0.929600
     16 O8         -0.1640    2.3580    4.2450 o         1 0RM     -0.776800
     17 OG          1.3080    3.0680    2.6850 o         1 0RM     -0.776800
     18 C17         1.6530   -0.3690   -0.6910 ca        1 0RM     -0.221600
     19 C18         2.4290    0.6610   -1.2720 ca        1 0RM      0.220100
     20 O25         1.9360    1.9510   -1.1540 os        1 0RM     -0.345900
     21 C26         2.9280    2.9690   -0.9890 c3        1 0RM      0.096700
     22 C19         3.5980    0.3830   -1.9790 ca        1 0RM     -0.217000
     23 C20         4.0260   -0.9430   -2.0970 ca        1 0RM     -0.020000
     24 C21         3.2790   -1.9820   -1.5680 ca        1 0RM     -0.217000
     25 C22         2.0810   -1.7040   -0.8800 ca        1 0RM      0.220100
     26 O23         1.2540   -2.6850   -0.4030 os        1 0RM     -0.345900
     27 C24         1.8800   -3.9370   -0.0930 c3        1 0RM      0.096700
     28 H1          1.4300    1.5990    0.9110 hn        1 0RM      0.460300
     29 H2         -0.4530    0.2880    2.7930 hx        1 0RM      0.094700
     30 H3          2.6880    0.3780    2.6910 h2        1 0RM      0.137700
     31 H4          4.5790   -1.0670    4.5280 hc        1 0RM      0.040867
     32 H5          4.6220   -2.8640    4.7480 hc        1 0RM      0.040867
     33 H6          4.0450   -1.8030    6.1100 hc        1 0RM      0.040867
     34 H7          1.8010   -2.8360    6.3080 hc        1 0RM      0.040867
     35 H8          0.8370   -3.1990    4.8150 hc        1 0RM      0.040867
     36 H9          2.3880   -4.0860    5.1330 hc        1 0RM      0.040867
     37 H10         2.2420   -3.3720    2.7810 h1        1 0RM      0.053700
     38 H12         0.7560   -1.7960    2.2930 hn        1 0RM      0.337800
     39 H15         2.3580    3.8200   -0.5360 h1        1 0RM      0.063200
     40 H16         3.7430    2.6300   -0.3050 h1        1 0RM      0.063200
     41 H17         3.3390    3.2480   -1.9890 h1        1 0RM      0.063200
     42 H18         4.1910    1.1990   -2.4110 ha        1 0RM      0.151000
     43 H19         4.9750   -1.1590   -2.6130 ha        1 0RM      0.138000
     44 H20         3.6420   -3.0180   -1.6340 ha        1 0RM      0.151000
     45 H21         1.1030   -4.4580    0.5210 h1        1 0RM      0.063200
     46 H22         2.8240   -3.7830    0.5000 h1        1 0RM      0.063200
     47 H23         2.0720   -4.4970   -1.0400 h1        1 0RM      0.063200
     48 H142       -0.2270    1.6920    0.8790 hn        1 0RM      0.460300
@<TRIPOS>BOND
     1    1    2 2   
     2    2    3 1   
     3    2   18 1   
     4    3    4 1   
     5    3   28 1   
     6    3   48 1   
     7    4    5 1   
     8    4   15 1   
     9    4   29 1   
    10    5    6 1   
    11    5   14 1   
    12    5   30 1   
    13    6    7 1   
    14    7    8 1   
    15    7    9 1   
    16    7   10 1   
    17    8   31 1   
    18    8   32 1   
    19    8   33 1   
    20    9   34 1   
    21    9   35 1   
    22    9   36 1   
    23   10   11 1   
    24   10   14 1   
    25   10   37 1   
    26   11   12 1   
    27   11   13 1   
    28   14   38 1   
    29   15   16 1   
    30   15   17 1   
    31   18   19 ar  
    32   18   25 ar  
    33   19   20 1   
    34   19   22 ar  
    35   20   21 1   
    36   21   39 1   
    37   21   40 1   
    38   21   41 1   
    39   22   23 ar  
    40   22   42 1   
    41   23   24 ar  
    42   23   43 1   
    43   24   25 ar  
    44   24   44 1   
    45   25   26 1   
    46   26   27 1   
    47   27   45 1   
    48   27   46 1   
    49   27   47 1   
@<TRIPOS>SUBSTRUCTURE
     1 0RM         1 TEMP              0 ****  ****    0 ROOT
