@<TRIPOS>MOLECULE
0RM
   48    49     1     0     0
SMALL
bcc


@<TRIPOS>ATOM
      1 O16        -0.5930   -0.7830    0.2080 o         1 0RM     -0.485100
      2 C15         0.4510   -0.1360    0.1670 c         1 0RM      0.618700
      3 N14         0.5310    1.0440    1.0850 n4        1 0RM     -0.640800
      4 C9          0.5260    0.7630    2.5680 c3        1 0RM     -0.017500
      5 C5          1.7130   -0.1190    2.9470 c3        1 0RM      0.249600
      6 S1          1.8150   -0.4480    4.7410 ss        1 0RM     -0.377200
      7 C2          2.6930   -2.0220    4.4740 c3        1 0RM      0.051100
      8 C10         4.1070   -1.9000    4.9840 c3        1 0RM     -0.080600
      9 C6          1.9410   -3.0860    5.2390 c3        1 0RM     -0.080600
     10 C3          2.6450   -2.3060    2.9460 c3        1 0RM      0.029500
     11 C11         4.0510   -2.2340    2.2500 c         1 0RM      0.932600
     12 O12         4.4630   -3.3290    1.7670 o         1 0RM     -0.828800
     13 O13         4.6540   -1.1360    2.1650 o         1 0RM     -0.828800
     14 N4          1.7010   -1.4110    2.2790 n3        1 0RM     -0.792200
     15 C7          0.5750    2.2040    3.2710 c         1 0RM      0.929600
     16 O8         -0.1640    2.3460    4.2620 o         1 0RM     -0.776800
     17 OG          1.2810    3.0630    2.6800 o         1 0RM     -0.776800
     18 C17         1.6180   -0.3850   -0.6850 ca        1 0RM     -0.221600
     19 C18         2.3750    0.6500   -1.2800 ca        1 0RM      0.220100
     20 O25         1.8700    1.9350   -1.1620 os        1 0RM     -0.345900
     21 C26         2.8530    2.9640   -1.0160 c3        1 0RM      0.096700
     22 C19         3.5370    0.3800   -2.0020 ca        1 0RM     -0.217000
     23 C20         3.9780   -0.9410   -2.1190 ca        1 0RM     -0.020000
     24 C21         3.2490   -1.9860   -1.5750 ca        1 0RM     -0.217000
     25 C22         2.0580   -1.7170   -0.8730 ca        1 0RM      0.220100
     26 O23         1.2470   -2.7040   -0.3800 os        1 0RM     -0.345900
     27 C24         1.8900   -3.9480   -0.0730 c3        1 0RM      0.096700
     28 H1         -0.2630    1.6640    0.9010 hn        1 0RM      0.460300
     29 H2         -0.4490    0.2660    2.8240 hx        1 0RM      0.094700
     30 H3          2.6890    0.3880    2.6810 h2        1 0RM      0.137700
     31 H4          4.1120   -1.7630    6.0920 hc        1 0RM      0.040867
     32 H5          4.6820   -2.8250    4.7280 hc        1 0RM      0.040867
     33 H6          4.6180   -1.0290    4.5000 hc        1 0RM      0.040867
     34 H7          1.8810   -2.8190    6.3220 hc        1 0RM      0.040867
     35 H8          0.9030   -3.1980    4.8440 hc        1 0RM      0.040867
     36 H9          2.4670   -4.0680    5.1460 hc        1 0RM      0.040867
     37 H10         2.2840   -3.3660    2.7940 h1        1 0RM      0.053700
     38 H12         0.7750   -1.8070    2.3170 hn        1 0RM      0.337800
     39 H15         3.2470    3.2430   -2.0230 h1        1 0RM      0.063367
     40 H16         2.2800    3.8120   -0.5610 h1        1 0RM      0.063367
     41 H17         3.6810    2.6380   -0.3420 h1        1 0RM      0.063367
     42 H18         4.1160    1.2000   -2.4460 ha        1 0RM      0.151000
     43 H19         4.9220   -1.1500   -2.6470 ha        1 0RM      0.138000
     44 H20         3.6230   -3.0180   -1.6410 ha        1 0RM      0.151000
     45 H21         1.1280   -4.4740    0.5550 h1        1 0RM      0.063367
     46 H22         2.0760   -4.5110   -1.0190 h1        1 0RM      0.063367
     47 H23         2.8410   -3.7810    0.5080 h1        1 0RM      0.063367
     48 H142        1.3960    1.5870    0.9120 hn        1 0RM      0.460300
@<TRIPOS>BOND
     1    1    2 2   
     2    2    3 1   
     3    2   18 1   
     4    3    4 1   
     5    3   28 1   
     6    3   48 1   
     7    4    5 1   
     8    4   15 1   
     9    4   29 1   
    10    5    6 1   
    11    5   14 1   
    12    5   30 1   
    13    6    7 1   
    14    7    8 1   
    15    7    9 1   
    16    7   10 1   
    17    8   31 1   
    18    8   32 1   
    19    8   33 1   
    20    9   34 1   
    21    9   35 1   
    22    9   36 1   
    23   10   11 1   
    24   10   14 1   
    25   10   37 1   
    26   11   12 1   
    27   11   13 1   
    28   14   38 1   
    29   15   16 1   
    30   15   17 1   
    31   18   19 ar  
    32   18   25 ar  
    33   19   20 1   
    34   19   22 ar  
    35   20   21 1   
    36   21   39 1   
    37   21   40 1   
    38   21   41 1   
    39   22   23 ar  
    40   22   42 1   
    41   23   24 ar  
    42   23   43 1   
    43   24   25 ar  
    44   24   44 1   
    45   25   26 1   
    46   26   27 1   
    47   27   45 1   
    48   27   46 1   
    49   27   47 1   
@<TRIPOS>SUBSTRUCTURE
     1 0RM         1 TEMP              0 ****  ****    0 ROOT
