@<TRIPOS>MOLECULE
0RN
   25    26     1     0     0
SMALL
bcc


@<TRIPOS>ATOM
      1 CG2        -0.3740   -2.4090   -0.6910 c3        1 0RN     -0.073100
      2 CB          0.0420   -1.1610    0.0600 c3        1 0RN     -0.211200
      3 CG1         0.3440   -1.5220    1.5010 c3        1 0RN     -0.073100
      4 SAO         1.4540   -0.4470   -0.6920 s6        1 0RN      1.222000
      5 OAE         2.5590   -0.4750    0.1950 o         1 0RN     -0.653800
      6 OAF         1.7590   -0.9110   -1.9790 o         1 0RN     -0.653800
      7 CAK         0.8110    1.1790   -0.7290 cy        1 0RN     -0.147500
      8 CAH         1.3050    2.1890    0.3360 cy        1 0RN     -0.160400
      9 CAJ        -0.0870    2.0360    0.9730 c         1 0RN      0.662500
     10 OAD        -0.6220    2.4890    1.9790 o         1 0RN     -0.578500
     11 N          -0.5490    1.2210   -0.1130 n         1 0RN     -0.309800
     12 CA         -1.1140   -0.1080    0.0350 c3        1 0RN     -0.067300
     13 C          -2.1460   -0.4350   -1.1250 c         1 0RN      0.942600
     14 O          -3.2600   -0.8610   -0.7300 o         1 0RN     -0.808300
     15 OXT        -1.7750   -0.2800   -2.3150 o         1 0RN     -0.808300
     16 H1          0.3530   -3.2350   -0.5030 hc        1 0RN      0.052700
     17 H2         -1.3910   -2.7320   -0.3550 hc        1 0RN      0.052700
     18 H3         -0.4300   -2.1990   -1.7920 hc        1 0RN      0.052700
     19 H4          1.2250   -2.2060    1.5600 hc        1 0RN      0.052700
     20 H5          0.5680   -0.6030    2.0960 hc        1 0RN      0.052700
     21 H6         -0.5380   -2.0340    1.9560 hc        1 0RN      0.052700
     22 H7          0.7700    1.5870   -1.7700 h2        1 0RN      0.146700
     23 H8          2.1400    1.8200    0.9720 hc        1 0RN      0.085200
     24 H9          1.5270    3.2040   -0.0530 hc        1 0RN      0.085200
     25 H10        -1.6940   -0.1550    0.9990 h1        1 0RN      0.087700
@<TRIPOS>BOND
     1    1    2 1   
     2    1   16 1   
     3    1   17 1   
     4    1   18 1   
     5    2    3 1   
     6    2    4 1   
     7    2   12 1   
     8    3   19 1   
     9    3   20 1   
    10    3   21 1   
    11    4    5 2   
    12    4    6 2   
    13    4    7 1   
    14    7    8 1   
    15    7   11 1   
    16    7   22 1   
    17    8    9 1   
    18    8   23 1   
    19    8   24 1   
    20    9   10 2   
    21    9   11 1   
    22   11   12 1   
    23   12   13 1   
    24   12   25 1   
    25   13   14 1   
    26   13   15 1   
@<TRIPOS>SUBSTRUCTURE
     1 0RN         1 TEMP              0 ****  ****    0 ROOT
