@<TRIPOS>MOLECULE
0RN
   25    26     1     0     0
SMALL
bcc


@<TRIPOS>ATOM
      1 CG2         0.2290    0.4940   -0.4260 c3        1 0RN     -0.073100
      2 CB          1.5420   -0.1170    0.0190 c3        1 0RN     -0.211200
      3 CG1         2.6820    0.7920   -0.3920 c3        1 0RN     -0.073100
      4 SAO         1.5440   -0.3440    1.7560 s6        1 0RN      1.222000
      5 OAE         2.5440    0.4580    2.3610 o         1 0RN     -0.653800
      6 OAF         0.2950   -0.2470    2.3850 o         1 0RN     -0.653800
      7 CAK         2.1120   -1.9960    1.7020 cy        1 0RN     -0.147500
      8 CAH         3.6030   -2.2730    2.0200 cy        1 0RN     -0.160400
      9 CAJ         3.7640   -2.5450    0.5130 c         1 0RN      0.662500
     10 OAD         4.7140   -2.8250   -0.2080 o         1 0RN     -0.578500
     11 N           2.3520   -2.4250    0.2910 n         1 0RN     -0.309800
     12 CA          1.7400   -1.5140   -0.6590 c3        1 0RN     -0.067300
     13 C           0.3590   -2.0750   -1.2010 c         1 0RN      0.942600
     14 O           0.2510   -2.0780   -2.4530 o         1 0RN     -0.808300
     15 OXT        -0.5070   -2.4350   -0.3670 o         1 0RN     -0.808300
     16 H1         -0.6330   -0.0690    0.0190 hc        1 0RN      0.052700
     17 H2          0.1380    0.4300   -1.5390 hc        1 0RN      0.052700
     18 H3          0.1770    1.5660   -0.1160 hc        1 0RN      0.052700
     19 H4          2.6190    1.7700    0.1450 hc        1 0RN      0.052700
     20 H5          3.6660    0.3190   -0.1530 hc        1 0RN      0.052700
     21 H6          2.6380    0.9840   -1.4910 hc        1 0RN      0.052700
     22 H7          1.3960   -2.6990    2.1960 h2        1 0RN      0.146700
     23 H8          4.1700   -1.3880    2.3850 hc        1 0RN      0.085200
     24 H9          3.7850   -3.1520    2.6710 hc        1 0RN      0.085200
     25 H10         2.4150   -1.4100   -1.5540 h1        1 0RN      0.087700
@<TRIPOS>BOND
     1    1    2 1   
     2    1   16 1   
     3    1   17 1   
     4    1   18 1   
     5    2    3 1   
     6    2    4 1   
     7    2   12 1   
     8    3   19 1   
     9    3   20 1   
    10    3   21 1   
    11    4    5 2   
    12    4    6 2   
    13    4    7 1   
    14    7    8 1   
    15    7   11 1   
    16    7   22 1   
    17    8    9 1   
    18    8   23 1   
    19    8   24 1   
    20    9   10 2   
    21    9   11 1   
    22   11   12 1   
    23   12   13 1   
    24   12   25 1   
    25   13   14 1   
    26   13   15 1   
@<TRIPOS>SUBSTRUCTURE
     1 0RN         1 TEMP              0 ****  ****    0 ROOT
