@<TRIPOS>MOLECULE
0RN
   25    24     1     0     0
SMALL
bcc


@<TRIPOS>ATOM
      1 CG2        -2.1520   -0.6530   -0.3480 c3        1 0RN     -0.191000
      2 CB         -0.6390   -0.6530   -0.3480 c3        1 0RN     -0.672000
      3 CG1        -0.4420   -1.9350   -1.1260 c3        1 0RN     -0.191000
      4 SAO         0.0640   -0.6530    1.1960 s4        1 0RN      1.918800
      5 OAE         0.6000   -1.9090    1.6440 o         1 0RN     -0.541400
      6 OAF        -0.9370   -0.2040    2.1240 o         1 0RN     -0.541400
      7 CAK         1.0770    0.3030    1.0690 c2        1 0RN     -0.685000
      8 CAH         1.0560    1.3460    2.1770 c3        1 0RN     -0.189000
      9 CAJ         0.8890    2.4530    1.0230 c1        1 0RN      0.270000
     10 OAD         0.9190    3.6670    0.9880 o         1 0RN     -0.303000
     11 N           0.6790    1.3720    0.0090 n2        1 0RN     -0.168000
     12 CA          0.0780    0.7450   -1.0750 c3        1 0RN     -0.094000
     13 C           0.9690    0.3560   -2.0830 c2        1 0RN      0.362000
     14 O           0.5690    0.2590   -3.2730 o         1 0RN     -0.543000
     15 OXT         2.1700    0.1060   -1.7990 o         1 0RN     -0.543000
     16 H1         -2.4770   -1.4280    0.1490 hc        1 0RN      0.092000
     17 H2         -2.4770    0.1640    0.0750 hc        1 0RN      0.092000
     18 H3         -2.4770   -0.6960   -1.2670 hc        1 0RN      0.092000
     19 H4         -0.8190   -1.8340   -2.0210 hc        1 0RN      0.092000
     20 H5          0.5120   -2.1310   -1.1950 hc        1 0RN      0.092000
     21 H6         -0.8910   -2.6690   -0.6650 hc        1 0RN      0.092000
     22 H7          1.9640   -0.0750    0.9140 h4        1 0RN      0.186000
     23 H8          0.3260    1.3230    2.8260 hc        1 0RN      0.124500
     24 H9          1.9500    1.3900    2.5670 hc        1 0RN      0.124500
     25 H10        -0.5100    1.3550   -1.5600 h1        1 0RN      0.127000
@<TRIPOS>BOND
     1    1    2 1   
     2    1   16 1   
     3    1   17 1   
     4    1   18 1   
     5    2    3 1   
     6    2    4 1   
     7    2   12 1   
     8    3   19 1   
     9    3   20 1   
    10    3   21 1   
    11    4    5 1   
    12    4    6 1   
    13    7    8 1   
    14    7   11 1   
    15    7   22 1   
    16    8    9 1   
    17    8   23 1   
    18    8   24 1   
    19    9   10 1   
    20   11   12 1   
    21   12   13 1   
    22   12   25 1   
    23   13   14 1   
    24   13   15 1   
@<TRIPOS>SUBSTRUCTURE
     1 0RN         1 TEMP              0 ****  ****    0 ROOT
