@<TRIPOS>MOLECULE
0RN
   25    26     1     0     0
SMALL
bcc


@<TRIPOS>ATOM
      1 CG2         0.2170    0.4670   -0.4380 c3        1 0RN     -0.073100
      2 CB          1.5370   -0.1280    0.0110 c3        1 0RN     -0.211200
      3 CG1         2.6680    0.7870   -0.4130 c3        1 0RN     -0.073100
      4 SAO         1.5450   -0.3350    1.7500 s6        1 0RN      1.222000
      5 OAE         2.5390    0.4820    2.3440 o         1 0RN     -0.653800
      6 OAF         0.2970   -0.2420    2.3800 o         1 0RN     -0.653800
      7 CAK         2.1280   -1.9820    1.7130 cy        1 0RN     -0.147500
      8 CAH         3.6220   -2.2420    2.0300 cy        1 0RN     -0.160400
      9 CAJ         3.7820   -2.5290    0.5270 c         1 0RN      0.662500
     10 OAD         4.7330   -2.8090   -0.1940 o         1 0RN     -0.578500
     11 N           2.3680   -2.4250    0.3070 n         1 0RN     -0.309800
     12 CA          1.7460   -1.5300   -0.6520 c3        1 0RN     -0.067300
     13 C           0.3690   -2.1100   -1.1840 c         1 0RN      0.942600
     14 O           0.2580   -2.1270   -2.4360 o         1 0RN     -0.808300
     15 OXT        -0.4920   -2.4690   -0.3440 o         1 0RN     -0.808300
     16 H1          0.1570    1.5410   -0.1400 hc        1 0RN      0.052700
     17 H2         -0.6380   -0.0990    0.0160 hc        1 0RN      0.052700
     18 H3          0.1240    0.3890   -1.5500 hc        1 0RN      0.052700
     19 H4          2.6190    0.9670   -1.5140 hc        1 0RN      0.052700
     20 H5          3.6570    0.3260   -0.1710 hc        1 0RN      0.052700
     21 H6          2.5970    1.7710    0.1130 hc        1 0RN      0.052700
     22 H7          1.4200   -2.6870    2.2170 h2        1 0RN      0.146700
     23 H8          3.8140   -3.1120    2.6900 hc        1 0RN      0.085200
     24 H9          4.1820   -1.3470    2.3840 hc        1 0RN      0.085200
     25 H10         2.4180   -1.4300   -1.5500 h1        1 0RN      0.087700
@<TRIPOS>BOND
     1    1    2 1   
     2    1   16 1   
     3    1   17 1   
     4    1   18 1   
     5    2    3 1   
     6    2    4 1   
     7    2   12 1   
     8    3   19 1   
     9    3   20 1   
    10    3   21 1   
    11    4    5 2   
    12    4    6 2   
    13    4    7 1   
    14    7    8 1   
    15    7   11 1   
    16    7   22 1   
    17    8    9 1   
    18    8   23 1   
    19    8   24 1   
    20    9   10 2   
    21    9   11 1   
    22   11   12 1   
    23   12   13 1   
    24   12   25 1   
    25   13   14 1   
    26   13   15 1   
@<TRIPOS>SUBSTRUCTURE
     1 0RN         1 TEMP              0 ****  ****    0 ROOT
