@<TRIPOS>MOLECULE
0RN
   25    26     1     0     0
SMALL
bcc


@<TRIPOS>ATOM
      1 CG2         0.2250    0.4930   -0.4190 c3        1 0RN     -0.073100
      2 CB          1.5410   -0.1190    0.0160 c3        1 0RN     -0.211200
      3 CG1         2.6800    0.7830   -0.4150 c3        1 0RN     -0.073100
      4 SAO         1.5620   -0.3300    1.7550 s6        1 0RN      1.222000
      5 OAE         2.5720    0.4730    2.3420 o         1 0RN     -0.653800
      6 OAF         0.3210   -0.2240    2.3970 o         1 0RN     -0.653800
      7 CAK         2.1250   -1.9850    1.7080 cy        1 0RN     -0.147500
      8 CAH         3.6180   -2.2640    2.0120 cy        1 0RN     -0.160400
      9 CAJ         3.7600   -2.5490    0.5060 c         1 0RN      0.662500
     10 OAD         4.7020   -2.8390   -0.2240 o         1 0RN     -0.578500
     11 N           2.3460   -2.4260    0.2990 n         1 0RN     -0.309800
     12 CA          1.7270   -1.5210   -0.6520 c3        1 0RN     -0.067300
     13 C           0.3380   -2.0830   -1.1730 c         1 0RN      0.942600
     14 O           0.2150   -2.0960   -2.4240 o         1 0RN     -0.808300
     15 OXT        -0.5190   -2.4330   -0.3260 o         1 0RN     -0.808300
     16 H1          0.1210    0.4190   -1.5300 hc        1 0RN      0.052700
     17 H2         -0.6330   -0.0630    0.0410 hc        1 0RN      0.052700
     18 H3          0.1800    1.5680   -0.1180 hc        1 0RN      0.052700
     19 H4          2.6230    0.9660   -1.5150 hc        1 0RN      0.052700
     20 H5          3.6650    0.3090   -0.1830 hc        1 0RN      0.052700
     21 H6          2.6260    1.7660    0.1140 hc        1 0RN      0.052700
     22 H7          1.4120   -2.6820    2.2170 h2        1 0RN      0.146700
     23 H8          4.1920   -1.3770    2.3630 hc        1 0RN      0.085200
     24 H9          3.8040   -3.1380    2.6680 hc        1 0RN      0.085200
     25 H10         2.3920   -1.4270   -1.5560 h1        1 0RN      0.087700
@<TRIPOS>BOND
     1    1    2 1   
     2    1   16 1   
     3    1   17 1   
     4    1   18 1   
     5    2    3 1   
     6    2    4 1   
     7    2   12 1   
     8    3   19 1   
     9    3   20 1   
    10    3   21 1   
    11    4    5 2   
    12    4    6 2   
    13    4    7 1   
    14    7    8 1   
    15    7   11 1   
    16    7   22 1   
    17    8    9 1   
    18    8   23 1   
    19    8   24 1   
    20    9   10 2   
    21    9   11 1   
    22   11   12 1   
    23   12   13 1   
    24   12   25 1   
    25   13   14 1   
    26   13   15 1   
@<TRIPOS>SUBSTRUCTURE
     1 0RN         1 TEMP              0 ****  ****    0 ROOT
