@<TRIPOS>MOLECULE
0RO
   50    53     1     0     0
SMALL
bcc


@<TRIPOS>ATOM
      1 CAB         0.3230    0.0790   -0.3640 c3        1 0RO     -0.083600
      2 CAY         1.7040    0.1830    0.2330 c3        1 0RO      0.015100
      3 CAC         2.1600    1.6200    0.2910 c3        1 0RO     -0.083600
      4 SAP         1.6730   -0.4960    1.9140 ss        1 0RO     -0.312300
      5 CAL         2.7200   -0.6980   -0.5450 c3        1 0RO      0.108800
      6 NAM         3.3370   -1.7060    0.2780 n2        1 0RO     -0.644900
      7 CAR         2.8860   -1.7320    1.5060 c2        1 0RO      0.632100
      8 NAW         3.1800   -2.6830    2.5070 nh        1 0RO     -0.664600
      9 CAI         3.4600   -2.1280    3.8250 c3        1 0RO      0.171800
     10 CAK         4.9440   -1.7720    4.0740 c3        1 0RO      0.148300
     11 CAH         4.1100   -3.7510    2.1700 c3        1 0RO      0.171800
     12 CAJ         5.5960   -3.3990    2.3930 c3        1 0RO      0.148300
     13 NAX         5.8260   -2.8850    3.7420 nh        1 0RO     -0.732300
     14 C6          7.2010   -2.7170    4.0740 ca        1 0RO      0.688200
     15 N1          7.7320   -1.4890    4.3170 nb        1 0RO     -0.752000
     16 C2          9.0480   -1.4350    4.6850 ca        1 0RO      0.655900
     17 N3          9.9180   -2.4520    4.8330 nb        1 0RO     -0.674000
     18 C4          9.3910   -3.6850    4.6020 ca        1 0RO      0.418600
     19 SAQ        10.1940   -5.1660    4.7340 ss        1 0RO     -0.004900
     20 C5          8.0230   -3.8870    4.2220 ca        1 0RO     -0.313400
     21 CAE         7.7190   -5.2800    4.0920 cc        1 0RO     -0.100200
     22 CAS         8.8160   -6.0680    4.3390 cd        1 0RO     -0.112600
     23 CAG         8.8550   -7.5400    4.3040 c3        1 0RO     -0.015200
     24 CAF         8.6100   -8.0890    2.9090 c3        1 0RO     -0.076400
     25 CAA         8.6110   -9.5960    2.9100 c3        1 0RO     -0.095100
     26 H1         -0.0240   -0.9830   -0.3790 hc        1 0RO      0.048033
     27 H2          0.3290    0.4680   -1.4120 hc        1 0RO      0.048033
     28 H3         -0.4060    0.6830    0.2310 hc        1 0RO      0.048033
     29 H4          3.1790    1.6950    0.7430 hc        1 0RO      0.048033
     30 H5          1.4520    2.2300    0.9040 hc        1 0RO      0.048033
     31 H6          2.1950    2.0520   -0.7400 hc        1 0RO      0.048033
     32 H7          3.5390   -0.0540   -0.9740 h1        1 0RO      0.074700
     33 H8          2.2010   -1.2110   -1.4030 h1        1 0RO      0.074700
     34 H13         2.8480   -1.1970    3.9940 h1        1 0RO      0.075950
     35 H14         3.1340   -2.9090    4.5690 h1        1 0RO      0.075950
     36 H15         5.0680   -1.5400    5.1670 h1        1 0RO      0.060200
     37 H16         5.1980   -0.8440    3.4860 h1        1 0RO      0.060200
     38 H17         3.9830   -4.0670    1.0990 h1        1 0RO      0.075950
     39 H18         3.8310   -4.6220    2.8300 h1        1 0RO      0.075950
     40 H19         6.2070   -4.3320    2.2510 h1        1 0RO      0.060200
     41 H20         5.9150   -2.6500    1.6110 h1        1 0RO      0.060200
     42 H21         9.4420   -0.4140    4.8750 h5        1 0RO      0.055100
     43 H22         6.7210   -5.6540    3.8500 ha        1 0RO      0.164000
     44 H23         9.8500   -7.9070    4.6760 hc        1 0RO      0.055200
     45 H24         8.0720   -7.9470    5.0040 hc        1 0RO      0.055200
     46 H25         9.4030   -7.7100    2.2130 hc        1 0RO      0.044700
     47 H26         7.6250   -7.7080    2.5300 hc        1 0RO      0.044700
     48 H27         9.5920   -9.9910    3.2680 hc        1 0RO      0.035700
     49 H28         7.8080   -9.9920    3.5790 hc        1 0RO      0.035700
     50 H29         8.4310   -9.9810    1.8770 hc        1 0RO      0.035700
@<TRIPOS>BOND
     1    1    2 1   
     2    1   26 1   
     3    1   27 1   
     4    1   28 1   
     5    2    3 1   
     6    2    4 1   
     7    2    5 1   
     8    3   29 1   
     9    3   30 1   
    10    3   31 1   
    11    4    7 1   
    12    5    6 1   
    13    5   32 1   
    14    5   33 1   
    15    6    7 2   
    16    7    8 1   
    17    8    9 1   
    18    8   11 1   
    19    9   10 1   
    20    9   34 1   
    21    9   35 1   
    22   10   13 1   
    23   10   36 1   
    24   10   37 1   
    25   11   12 1   
    26   11   38 1   
    27   11   39 1   
    28   12   13 1   
    29   12   40 1   
    30   12   41 1   
    31   13   14 1   
    32   14   15 ar  
    33   14   20 ar  
    34   15   16 ar  
    35   16   17 ar  
    36   16   42 1   
    37   17   18 ar  
    38   18   19 1   
    39   18   20 ar  
    40   19   22 1   
    41   20   21 1   
    42   21   22 2   
    43   21   43 1   
    44   22   23 1   
    45   23   24 1   
    46   23   44 1   
    47   23   45 1   
    48   24   25 1   
    49   24   46 1   
    50   24   47 1   
    51   25   48 1   
    52   25   49 1   
    53   25   50 1   
@<TRIPOS>SUBSTRUCTURE
     1 0RO         1 TEMP              0 ****  ****    0 ROOT
