@<TRIPOS>MOLECULE
0RO
   50    45     1     0     0
SMALL
bcc


@<TRIPOS>ATOM
      1 CAB         0.9420    2.1680   -5.0850 c3        1 0RO     -0.201000
      2 CAY        -0.5420    2.5430   -5.0260 c3        1 0RO     -0.166000
      3 CAC        -1.1340    2.6160   -6.4390 c3        1 0RO     -0.201000
      4 SAP        -1.4080    1.4110   -4.0710 ss        1 0RO      0.086000
      5 CAL        -0.7530    4.0580   -4.2010 c3        1 0RO     -0.095000
      6 NAM        -1.7280    3.6490   -3.1290 n2        1 0RO     -0.231000
      7 CAR        -1.8140    2.1910   -2.9140 c1        1 0RO     -0.030000
      8 NAW        -1.6630    1.6470   -1.5880 n2        1 0RO     -0.194000
      9 CAI        -2.6980    0.8380   -1.0260 c3        1 0RO     -0.093500
     10 CAK        -2.1900   -0.0600    0.0940 c3        1 0RO     -0.090500
     11 CAH        -0.9340    2.3730   -0.5970 c3        1 0RO     -0.093500
     12 CAJ        -0.4250    1.4750    0.5240 c3        1 0RO     -0.090500
     13 NAX        -1.4600    0.6660    1.0850 n3        1 0RO     -0.211000
     14 C6         -0.8870   -0.2590    2.0360 c1        1 0RO      0.159000
     15 N1         -1.7910    0.5560    2.6430 n1        1 0RO     -0.228000
     16 C2         -2.0020    0.4630    4.0200 c1        1 0RO     -0.007000
     17 N3         -1.2940   -0.4560    4.7690 n1        1 0RO     -0.148000
     18 C4         -0.3990   -1.2630    4.1740 c1        1 0RO     -0.237000
     19 SAQ         0.5540   -2.3850    4.7380 s         1 0RO      0.563000
     20 C5         -0.1840   -1.1710    2.7750 c1        1 0RO     -0.174000
     21 CAE         0.9430   -2.2500    2.3600 c1        1 0RO     -0.113000
     22 CAS         1.3570   -2.9530    3.5510 c1        1 0RO     -0.349000
     23 CAG         2.1670   -3.9810    4.3490 c2        1 0RO     -0.097000
     24 CAF         3.3150   -4.5100    3.4830 c3        1 0RO     -0.155000
     25 CAA         4.3270   -5.2430    4.3690 c3        1 0RO     -0.213000
     26 H1          1.3710    2.6440   -5.8320 hc        1 0RO      0.087000
     27 H2          1.3770    2.4220   -4.2430 hc        1 0RO      0.087000
     28 H3          1.0300    1.1990   -5.2210 hc        1 0RO      0.087000
     29 H4         -2.1020    2.7760   -6.3800 hc        1 0RO      0.087000
     30 H5         -0.9700    1.7670   -6.9070 hc        1 0RO      0.087000
     31 H6         -0.7090    3.3510   -6.9350 hc        1 0RO      0.087000
     32 H7         -0.9810    4.8300   -4.7640 h1        1 0RO      0.113000
     33 H8          0.0880    4.3560   -3.7920 h1        1 0RO      0.113000
     34 H13        -3.4020    1.4250   -0.6690 h1        1 0RO      0.118750
     35 H14        -3.0830    0.2750   -1.7360 h1        1 0RO      0.118750
     36 H15        -2.9590   -0.5000    0.5240 h1        1 0RO      0.112250
     37 H16        -1.6040   -0.7490   -0.2920 h1        1 0RO      0.112250
     38 H17        -1.5210    3.0630   -0.2100 h1        1 0RO      0.118750
     39 H18        -0.1650    2.8130   -1.0260 h1        1 0RO      0.118750
     40 H19        -0.0400    2.0380    1.2340 h1        1 0RO      0.112250
     41 H20         0.2790    0.8880    0.1660 h1        1 0RO      0.112250
     42 H21        -2.6540    1.0520    4.4560 ha        1 0RO      0.192000
     43 H22         1.2860   -2.4030    1.4560 DU        1 0RO      0.164000
     44 H23         2.5340   -3.5550    5.1550 ha        1 0RO      0.092500
     45 H24         1.5820   -4.7280    4.6100 ha        1 0RO      0.092500
     46 H25         2.9580   -5.1320    2.8100 hc        1 0RO      0.086000
     47 H26         3.7590   -3.7590    3.0320 hc        1 0RO      0.086000
     48 H27         4.7680   -5.9490    3.8470 hc        1 0RO      0.074667
     49 H28         5.0010   -4.6040    4.6920 hc        1 0RO      0.074667
     50 H29         3.8610   -5.6440    5.1350 hc        1 0RO      0.074667
@<TRIPOS>BOND
     1    1    2 1   
     2    1   26 1   
     3    1   27 1   
     4    1   28 1   
     5    2    3 1   
     6    2    4 1   
     7    2    5 1   
     8    3   29 1   
     9    3   30 1   
    10    3   31 1   
    11    4    7 1   
    12    5    6 1   
    13    5   32 1   
    14    5   33 1   
    15    6    7 1   
    16    8    9 1   
    17    8   11 1   
    18    9   10 1   
    19    9   34 1   
    20    9   35 1   
    21   10   13 1   
    22   10   36 1   
    23   10   37 1   
    24   11   12 1   
    25   11   38 1   
    26   11   39 1   
    27   12   13 1   
    28   12   40 1   
    29   12   41 1   
    30   13   14 1   
    31   14   20 1   
    32   15   16 1   
    33   16   42 1   
    34   17   18 1   
    35   19   22 1   
    36   21   22 1   
    37   23   24 1   
    38   23   44 1   
    39   23   45 1   
    40   24   25 1   
    41   24   46 1   
    42   24   47 1   
    43   25   48 1   
    44   25   49 1   
    45   25   50 1   
@<TRIPOS>SUBSTRUCTURE
     1 0RO         1 TEMP              0 ****  ****    0 ROOT
