@<TRIPOS>MOLECULE
0RO
   50    53     1     0     0
SMALL
bcc


@<TRIPOS>ATOM
      1 CAB         0.3190    0.0710   -0.3680 c3        1 0RO     -0.083600
      2 CAY         1.6970    0.1780    0.2360 c3        1 0RO      0.015100
      3 CAC         2.1440    1.6170    0.3080 c3        1 0RO     -0.083600
      4 SAP         1.6610   -0.5130    1.9130 ss        1 0RO     -0.312300
      5 CAL         2.7220   -0.6910   -0.5420 c3        1 0RO      0.108800
      6 NAM         3.3410   -1.7020    0.2760 n2        1 0RO     -0.644900
      7 CAR         2.8830   -1.7390    1.5020 c2        1 0RO      0.632100
      8 NAW         3.1770   -2.6960    2.4970 nh        1 0RO     -0.664600
      9 CAI         3.4480   -2.1490    3.8210 c3        1 0RO      0.171800
     10 CAK         4.9280   -1.7870    4.0790 c3        1 0RO      0.148300
     11 CAH         4.1150   -3.7560    2.1570 c3        1 0RO      0.171800
     12 CAJ         5.5980   -3.3980    2.3910 c3        1 0RO      0.148300
     13 NAX         5.8180   -2.8930    3.7440 nh        1 0RO     -0.732300
     14 C6          7.1900   -2.7200    4.0840 ca        1 0RO      0.688200
     15 N1          7.7130   -1.4910    4.3390 nb        1 0RO     -0.752000
     16 C2          9.0270   -1.4320    4.7150 ca        1 0RO      0.655900
     17 N3          9.9020   -2.4460    4.8590 nb        1 0RO     -0.674000
     18 C4          9.3830   -3.6790    4.6170 ca        1 0RO      0.418600
     19 SAQ        10.1940   -5.1570    4.7420 ss        1 0RO     -0.004900
     20 C5          8.0180   -3.8860    4.2280 ca        1 0RO     -0.313400
     21 CAE         7.7230   -5.2800    4.0860 cc        1 0RO     -0.100200
     22 CAS         8.8220   -6.0630    4.3320 cd        1 0RO     -0.112600
     23 CAG         8.8690   -7.5350    4.2870 c3        1 0RO     -0.015200
     24 CAF         8.6340   -8.0750    2.8870 c3        1 0RO     -0.076400
     25 CAA         8.6430   -9.5810    2.8760 c3        1 0RO     -0.095100
     26 H1         -0.4160    0.6660    0.2280 hc        1 0RO      0.048033
     27 H2          0.3280    0.4670   -1.4130 hc        1 0RO      0.048033
     28 H3         -0.0210   -0.9930   -0.3920 hc        1 0RO      0.048033
     29 H4          1.4300    2.2190    0.9210 hc        1 0RO      0.048033
     30 H5          3.1600    1.6950    0.7650 hc        1 0RO      0.048033
     31 H6          2.1820    2.0570   -0.7200 hc        1 0RO      0.048033
     32 H7          2.2100   -1.2010   -1.4070 h1        1 0RO      0.074700
     33 H8          3.5390   -0.0400   -0.9620 h1        1 0RO      0.074700
     34 H13         3.1220   -2.9370    4.5580 h1        1 0RO      0.075950
     35 H14         2.8290   -1.2220    3.9930 h1        1 0RO      0.075950
     36 H15         5.1800   -0.8530    3.4990 h1        1 0RO      0.060200
     37 H16         5.0450   -1.5610    5.1760 h1        1 0RO      0.060200
     38 H17         3.9940   -4.0650    1.0830 h1        1 0RO      0.075950
     39 H18         3.8370   -4.6330    2.8100 h1        1 0RO      0.075950
     40 H19         6.2150   -4.3260    2.2450 h1        1 0RO      0.060200
     41 H20         5.9160   -2.6410    1.6160 h1        1 0RO      0.060200
     42 H21         9.4150   -0.4110    4.9140 h5        1 0RO      0.055100
     43 H22         6.7280   -5.6580    3.8370 ha        1 0RO      0.164000
     44 H23         8.0860   -7.9510    4.9800 hc        1 0RO      0.055200
     45 H24         9.8650   -7.8990    4.6610 hc        1 0RO      0.055200
     46 H25         9.4280   -7.6860    2.1970 hc        1 0RO      0.044700
     47 H26         7.6490   -7.6960    2.5060 hc        1 0RO      0.044700
     48 H27         8.4700   -9.9600    1.8400 hc        1 0RO      0.035700
     49 H28         7.8400   -9.9870    3.5380 hc        1 0RO      0.035700
     50 H29         9.6250   -9.9740    3.2360 hc        1 0RO      0.035700
@<TRIPOS>BOND
     1    1    2 1   
     2    1   26 1   
     3    1   27 1   
     4    1   28 1   
     5    2    3 1   
     6    2    4 1   
     7    2    5 1   
     8    3   29 1   
     9    3   30 1   
    10    3   31 1   
    11    4    7 1   
    12    5    6 1   
    13    5   32 1   
    14    5   33 1   
    15    6    7 2   
    16    7    8 1   
    17    8    9 1   
    18    8   11 1   
    19    9   10 1   
    20    9   34 1   
    21    9   35 1   
    22   10   13 1   
    23   10   36 1   
    24   10   37 1   
    25   11   12 1   
    26   11   38 1   
    27   11   39 1   
    28   12   13 1   
    29   12   40 1   
    30   12   41 1   
    31   13   14 1   
    32   14   15 ar  
    33   14   20 ar  
    34   15   16 ar  
    35   16   17 ar  
    36   16   42 1   
    37   17   18 ar  
    38   18   19 1   
    39   18   20 ar  
    40   19   22 1   
    41   20   21 1   
    42   21   22 2   
    43   21   43 1   
    44   22   23 1   
    45   23   24 1   
    46   23   44 1   
    47   23   45 1   
    48   24   25 1   
    49   24   46 1   
    50   24   47 1   
    51   25   48 1   
    52   25   49 1   
    53   25   50 1   
@<TRIPOS>SUBSTRUCTURE
     1 0RO         1 TEMP              0 ****  ****    0 ROOT
