@<TRIPOS>MOLECULE
0RO
   50    53     1     0     0
SMALL
bcc


@<TRIPOS>ATOM
      1 CAB         7.0890    1.0910    0.0060 c3        1 0RO     -0.083600
      2 CAY         5.9010    0.2960   -0.4750 c3        1 0RO      0.015100
      3 CAC         6.3450   -0.9430   -1.2130 c3        1 0RO     -0.083600
      4 SAP         4.9010   -0.1940    0.9560 ss        1 0RO     -0.312300
      5 CAL         4.9600    1.1660   -1.3530 c3        1 0RO      0.108800
      6 NAM         3.6280    1.2730   -0.8160 n2        1 0RO     -0.644900
      7 CAR         3.4750    0.6710    0.3360 c2        1 0RO      0.632100
      8 NAW         2.3450    0.7120    1.1800 nh        1 0RO     -0.664600
      9 CAI         1.9420   -0.5740    1.7380 c3        1 0RO      0.171800
     10 CAK         0.9530   -1.3760    0.8630 c3        1 0RO      0.148300
     11 CAH         1.1940    1.4810    0.7290 c3        1 0RO      0.171800
     12 CAJ         0.2100    0.6950   -0.1640 c3        1 0RO      0.148300
     13 NAX        -0.1900   -0.5630    0.4610 nh        1 0RO     -0.732300
     14 C6         -1.2360   -1.2460   -0.2240 ca        1 0RO      0.688200
     15 N1         -1.0350   -2.4580   -0.8070 nb        1 0RO     -0.752000
     16 C2         -2.1160   -3.0610   -1.3900 ca        1 0RO      0.655900
     17 N3         -3.3800   -2.6060   -1.4810 nb        1 0RO     -0.674000
     18 C4         -3.5910   -1.4000   -0.8900 ca        1 0RO      0.418600
     19 SAQ        -5.0580   -0.5670   -0.7910 ss        1 0RO     -0.004900
     20 C5         -2.5500   -0.6640   -0.2320 ca        1 0RO     -0.313400
     21 CAE        -3.0530    0.5460    0.3450 cc        1 0RO     -0.100200
     22 CAS        -4.3940    0.7090    0.1030 cd        1 0RO     -0.112600
     23 CAG        -5.2300    1.8330    0.5600 c3        1 0RO     -0.015200
     24 CAF        -4.8200    3.1500   -0.0750 c3        1 0RO     -0.076400
     25 CAA        -5.6600    4.2880    0.4420 c3        1 0RO     -0.095100
     26 H1          7.7340    0.4670    0.6710 hc        1 0RO      0.048033
     27 H2          7.7040    1.4270   -0.8660 hc        1 0RO      0.048033
     28 H3          6.7580    1.9930    0.5760 hc        1 0RO      0.048033
     29 H4          5.4640   -1.5360   -1.5590 hc        1 0RO      0.048033
     30 H5          6.9550   -0.6590   -2.1060 hc        1 0RO      0.048033
     31 H6          6.9710   -1.5890   -0.5500 hc        1 0RO      0.048033
     32 H7          5.3850    2.2050   -1.4540 h1        1 0RO      0.074700
     33 H8          4.8810    0.7250   -2.3860 h1        1 0RO      0.074700
     34 H13         2.8480   -1.2200    1.9190 h1        1 0RO      0.075950
     35 H14         1.4620   -0.3460    2.7320 h1        1 0RO      0.075950
     36 H15         1.5090   -1.7900   -0.0280 h1        1 0RO      0.060200
     37 H16         0.5720   -2.2410    1.4720 h1        1 0RO      0.060200
     38 H17         0.6600    1.8140    1.6660 h1        1 0RO      0.075950
     39 H18         1.5220    2.3970    0.1670 h1        1 0RO      0.075950
     40 H19        -0.7050    1.3280   -0.3250 h1        1 0RO      0.060200
     41 H20         0.6930    0.5170   -1.1690 h1        1 0RO      0.060200
     42 H21        -1.9100   -4.0490   -1.8550 h5        1 0RO      0.055100
     43 H22        -2.4340    1.2330    0.9280 ha        1 0RO      0.164000
     44 H23        -6.3100    1.6290    0.3240 hc        1 0RO      0.055200
     45 H24        -5.1500    1.9210    1.6790 hc        1 0RO      0.055200
     46 H25        -3.7370    3.3450    0.1440 hc        1 0RO      0.044700
     47 H26        -4.9250    3.0770   -1.1900 hc        1 0RO      0.044700
     48 H27        -5.5480    4.3930    1.5490 hc        1 0RO      0.035700
     49 H28        -5.3470    5.2470   -0.0360 hc        1 0RO      0.035700
     50 H29        -6.7400    4.1180    0.2150 hc        1 0RO      0.035700
@<TRIPOS>BOND
     1    1    2 1   
     2    1   26 1   
     3    1   27 1   
     4    1   28 1   
     5    2    3 1   
     6    2    4 1   
     7    2    5 1   
     8    3   29 1   
     9    3   30 1   
    10    3   31 1   
    11    4    7 1   
    12    5    6 1   
    13    5   32 1   
    14    5   33 1   
    15    6    7 2   
    16    7    8 1   
    17    8    9 1   
    18    8   11 1   
    19    9   10 1   
    20    9   34 1   
    21    9   35 1   
    22   10   13 1   
    23   10   36 1   
    24   10   37 1   
    25   11   12 1   
    26   11   38 1   
    27   11   39 1   
    28   12   13 1   
    29   12   40 1   
    30   12   41 1   
    31   13   14 1   
    32   14   15 ar  
    33   14   20 ar  
    34   15   16 ar  
    35   16   17 ar  
    36   16   42 1   
    37   17   18 ar  
    38   18   19 1   
    39   18   20 ar  
    40   19   22 1   
    41   20   21 1   
    42   21   22 2   
    43   21   43 1   
    44   22   23 1   
    45   23   24 1   
    46   23   44 1   
    47   23   45 1   
    48   24   25 1   
    49   24   46 1   
    50   24   47 1   
    51   25   48 1   
    52   25   49 1   
    53   25   50 1   
@<TRIPOS>SUBSTRUCTURE
     1 0RO         1 TEMP              0 ****  ****    0 ROOT
