@<TRIPOS>MOLECULE
0RO
   50    53     1     0     0
SMALL
bcc


@<TRIPOS>ATOM
      1 CAB         0.3040    0.0560   -0.3570 c3        1 0RO     -0.083600
      2 CAY         1.6850    0.1670    0.2410 c3        1 0RO      0.015100
      3 CAC         2.1310    1.6070    0.3040 c3        1 0RO     -0.083600
      4 SAP         1.6560   -0.5180    1.9200 ss        1 0RO     -0.312300
      5 CAL         2.7070   -0.7060   -0.5390 c3        1 0RO      0.108800
      6 NAM         3.3300   -1.7120    0.2810 n2        1 0RO     -0.644900
      7 CAR         2.8780   -1.7450    1.5090 c2        1 0RO      0.632100
      8 NAW         3.1770   -2.6970    2.5070 nh        1 0RO     -0.664600
      9 CAI         3.4530   -2.1440    3.8280 c3        1 0RO      0.171800
     10 CAK         4.9340   -1.7800    4.0780 c3        1 0RO      0.148300
     11 CAH         4.1140   -3.7580    2.1670 c3        1 0RO      0.171800
     12 CAJ         5.5980   -3.3970    2.3930 c3        1 0RO      0.148300
     13 NAX         5.8230   -2.8870    3.7430 nh        1 0RO     -0.732300
     14 C6          7.1970   -2.7110    4.0770 ca        1 0RO      0.688200
     15 N1          7.7200   -1.4810    4.3250 nb        1 0RO     -0.752000
     16 C2          9.0350   -1.4200    4.6940 ca        1 0RO      0.655900
     17 N3          9.9110   -2.4320    4.8390 nb        1 0RO     -0.674000
     18 C4          9.3930   -3.6670    4.6040 ca        1 0RO      0.418600
     19 SAQ        10.2050   -5.1440    4.7320 ss        1 0RO     -0.004900
     20 C5          8.0250   -3.8770    4.2220 ca        1 0RO     -0.313400
     21 CAE         7.7310   -5.2710    4.0870 cc        1 0RO     -0.100200
     22 CAS         8.8320   -6.0530    4.3320 cd        1 0RO     -0.112600
     23 CAG         8.8800   -7.5250    4.2930 c3        1 0RO     -0.015200
     24 CAF         8.6400   -8.0700    2.8960 c3        1 0RO     -0.076400
     25 CAA         8.6500   -9.5760    2.8910 c3        1 0RO     -0.095100
     26 H1         -0.0350   -1.0080   -0.3760 hc        1 0RO      0.048033
     27 H2          0.3090    0.4470   -1.4050 hc        1 0RO      0.048033
     28 H3         -0.4290    0.6530    0.2390 hc        1 0RO      0.048033
     29 H4          2.1640    2.0420   -0.7260 hc        1 0RO      0.048033
     30 H5          3.1490    1.6870    0.7570 hc        1 0RO      0.048033
     31 H6          1.4190    2.2100    0.9180 hc        1 0RO      0.048033
     32 H7          2.1920   -1.2190   -1.3990 h1        1 0RO      0.074700
     33 H8          3.5220   -0.0550   -0.9650 h1        1 0RO      0.074700
     34 H13         3.1300   -2.9300    4.5690 h1        1 0RO      0.075950
     35 H14         2.8340   -1.2180    3.9980 h1        1 0RO      0.075950
     36 H15         5.1830   -0.8480    3.4930 h1        1 0RO      0.060200
     37 H16         5.0550   -1.5500    5.1730 h1        1 0RO      0.060200
     38 H17         3.9890   -4.0720    1.0950 h1        1 0RO      0.075950
     39 H18         3.8400   -4.6330    2.8250 h1        1 0RO      0.075950
     40 H19         6.2150   -4.3260    2.2490 h1        1 0RO      0.060200
     41 H20         5.9120   -2.6440    1.6140 h1        1 0RO      0.060200
     42 H21         9.4230   -0.3970    4.8880 h5        1 0RO      0.055100
     43 H22         6.7350   -5.6510    3.8430 ha        1 0RO      0.164000
     44 H23         8.1000   -7.9380    4.9900 hc        1 0RO      0.055200
     45 H24         9.8770   -7.8870    4.6640 hc        1 0RO      0.055200
     46 H25         9.4310   -7.6830    2.2010 hc        1 0RO      0.044700
     47 H26         7.6530   -7.6940    2.5170 hc        1 0RO      0.044700
     48 H27         9.6330   -9.9670    3.2490 hc        1 0RO      0.035700
     49 H28         8.4730   -9.9600    1.8570 hc        1 0RO      0.035700
     50 H29         7.8490   -9.9800    3.5580 hc        1 0RO      0.035700
@<TRIPOS>BOND
     1    1    2 1   
     2    1   26 1   
     3    1   27 1   
     4    1   28 1   
     5    2    3 1   
     6    2    4 1   
     7    2    5 1   
     8    3   29 1   
     9    3   30 1   
    10    3   31 1   
    11    4    7 1   
    12    5    6 1   
    13    5   32 1   
    14    5   33 1   
    15    6    7 2   
    16    7    8 1   
    17    8    9 1   
    18    8   11 1   
    19    9   10 1   
    20    9   34 1   
    21    9   35 1   
    22   10   13 1   
    23   10   36 1   
    24   10   37 1   
    25   11   12 1   
    26   11   38 1   
    27   11   39 1   
    28   12   13 1   
    29   12   40 1   
    30   12   41 1   
    31   13   14 1   
    32   14   15 ar  
    33   14   20 ar  
    34   15   16 ar  
    35   16   17 ar  
    36   16   42 1   
    37   17   18 ar  
    38   18   19 1   
    39   18   20 ar  
    40   19   22 1   
    41   20   21 1   
    42   21   22 2   
    43   21   43 1   
    44   22   23 1   
    45   23   24 1   
    46   23   44 1   
    47   23   45 1   
    48   24   25 1   
    49   24   46 1   
    50   24   47 1   
    51   25   48 1   
    52   25   49 1   
    53   25   50 1   
@<TRIPOS>SUBSTRUCTURE
     1 0RO         1 TEMP              0 ****  ****    0 ROOT
