@<TRIPOS>MOLECULE
0RP
   67    69     1     0     0
SMALL
bcc


@<TRIPOS>ATOM
      1 C1          1.0220   -2.1200    2.6620 c3        1 0RP     -0.104100
      2 C2          1.7280   -1.0110    1.9230 c3        1 0RP     -0.091400
      3 C3          3.0300   -0.6190    2.6330 c3        1 0RP      0.111700
      4 C4          2.7150   -0.0730    4.0460 c3        1 0RP     -0.115400
      5 C5          3.4830    1.1890    4.4500 c3        1 0RP      0.227800
      6 C6          4.8860    1.1140    3.9290 ca        1 0RP     -0.218300
      7 C7          5.9770    1.4520    4.7260 ca        1 0RP     -0.029000
      8 C8          7.2680    1.3340    4.2100 ca        1 0RP     -0.183300
      9 C9          7.4720    0.8700    2.9090 ca        1 0RP     -0.024000
     10 C10         6.3890    0.5160    2.1060 ca        1 0RP     -0.136000
     11 C11         5.0790    0.6360    2.6010 ca        1 0RP      0.109600
     12 N1          3.9010    0.3030    1.8920 n         1 0RP     -0.405000
     13 C12         3.7560    0.5050    0.5110 c         1 0RP      0.749100
     14 O1          2.6780    0.5370   -0.0980 o         1 0RP     -0.547000
     15 O2          4.9110    0.7740   -0.1740 os        1 0RP     -0.439900
     16 C13         4.7420    1.0330   -1.5930 c3        1 0RP      0.149400
     17 C14         6.1330    1.2640   -2.1270 c3        1 0RP     -0.108100
     18 C15         8.4600    1.7360    5.0780 c3        1 0RP      0.692200
     19 F1          8.7400    3.0800    5.0280 f         1 0RP     -0.222967
     20 F2          8.2930    1.4680    6.4130 f         1 0RP     -0.222967
     21 F3          9.6380    1.1220    4.7390 f         1 0RP     -0.222967
     22 N2          2.8120    2.4560    3.9130 nx        1 0RP     -0.559200
     23 C16         1.3860    2.6610    4.3590 c3        1 0RP      0.181100
     24 C17         1.0730    2.3150    5.7760 ca        1 0RP     -0.173300
     25 C18         0.1850    1.2640    6.0400 ca        1 0RP     -0.036000
     26 C19        -0.1920    0.9830    7.3530 ca        1 0RP     -0.167300
     27 C20         0.3020    1.7410    8.4170 ca        1 0RP      0.004000
     28 C21         1.1820    2.7920    8.1470 ca        1 0RP     -0.167300
     29 C22         1.5620    3.0870    6.8370 ca        1 0RP     -0.036000
     30 C23         1.7490    3.6300    9.2960 c3        1 0RP      0.692200
     31 F4          1.9300    4.9520    8.9750 f         1 0RP     -0.218633
     32 F5          0.9690    3.6400   10.4210 f         1 0RP     -0.218633
     33 F6          2.9820    3.2030    9.7210 f         1 0RP     -0.218633
     34 C24        -1.1720   -0.1630    7.6170 c3        1 0RP      0.692200
     35 F7         -0.9860   -1.2400    6.7850 f         1 0RP     -0.218633
     36 F8         -1.1030   -0.6810    8.8840 f         1 0RP     -0.218633
     37 F9         -2.4860    0.1870    7.4430 f         1 0RP     -0.218633
     38 C25         3.6330    3.6560    4.2600 c         1 0RP      0.613100
     39 O3          4.1330    3.8750    5.3570 o         1 0RP     -0.440000
     40 O4          3.7320    4.4950    3.2030 os        1 0RP     -0.402900
     41 C26         4.5350    5.6810    3.4120 c3        1 0RP      0.129700
     42 H4          0.7090   -1.8030    3.6870 hc        1 0RP      0.048700
     43 H5          1.6800   -3.0180    2.7590 hc        1 0RP      0.048700
     44 H3          0.1060   -2.4180    2.0950 hc        1 0RP      0.048700
     45 H6          1.9590   -1.3700    0.8820 hc        1 0RP      0.071700
     46 H7          1.0610   -0.1170    1.8180 hc        1 0RP      0.071700
     47 H1          3.6240   -1.5770    2.7750 h1        1 0RP      0.075700
     48 H9          1.6110    0.0840    4.1570 hc        1 0RP      0.088200
     49 H8          3.0060   -0.8670    4.7890 hc        1 0RP      0.088200
     50 H2          3.4720    1.3030    5.5770 hx        1 0RP      0.123700
     51 H10         5.8270    1.8150    5.7580 ha        1 0RP      0.173000
     52 H11         8.5000    0.7670    2.5180 ha        1 0RP      0.179000
     53 H12         6.5730    0.1430    1.0820 ha        1 0RP      0.189000
     54 H14         4.0830    1.9310   -1.7110 h1        1 0RP      0.065700
     55 H13         4.2480    0.1410   -2.0580 h1        1 0RP      0.065700
     56 H17         6.6040    2.1500   -1.6400 hc        1 0RP      0.059033
     57 H16         6.0660    1.4450   -3.2280 hc        1 0RP      0.059033
     58 H15         6.7800    0.3730   -1.9440 hc        1 0RP      0.059033
     59 H19         0.7450    2.0390    3.6630 hx        1 0RP      0.113700
     60 H18         1.1440    3.7520    4.1770 hx        1 0RP      0.113700
     61 H20        -0.2350    0.6550    5.2190 ha        1 0RP      0.167000
     62 H21        -0.0030    1.5160    9.4570 ha        1 0RP      0.196000
     63 H22         2.2460    3.9350    6.6540 ha        1 0RP      0.167000
     64 H24         4.0890    6.2910    4.2330 h1        1 0RP      0.088033
     65 H25         5.5820    5.3820    3.6540 h1        1 0RP      0.088033
     66 H23         4.4590    6.1900    2.4170 h1        1 0RP      0.088033
     67 H211        2.7940    2.3920    2.8810 hn        1 0RP      0.480800
@<TRIPOS>BOND
     1    1    2 1   
     2    1   42 1   
     3    1   43 1   
     4    1   44 1   
     5    2    3 1   
     6    2   45 1   
     7    2   46 1   
     8    3    4 1   
     9    3   12 1   
    10    3   47 1   
    11    4    5 1   
    12    4   48 1   
    13    4   49 1   
    14    5    6 1   
    15    5   22 1   
    16    5   50 1   
    17    6    7 ar  
    18    6   11 ar  
    19    7    8 ar  
    20    7   51 1   
    21    8    9 ar  
    22    8   18 1   
    23    9   10 ar  
    24    9   52 1   
    25   10   11 ar  
    26   10   53 1   
    27   11   12 1   
    28   12   13 1   
    29   13   14 2   
    30   13   15 1   
    31   15   16 1   
    32   16   17 1   
    33   16   54 1   
    34   16   55 1   
    35   17   56 1   
    36   17   57 1   
    37   17   58 1   
    38   18   19 1   
    39   18   20 1   
    40   18   21 1   
    41   22   23 1   
    42   22   38 1   
    43   22   67 1   
    44   23   24 1   
    45   23   59 1   
    46   23   60 1   
    47   24   25 ar  
    48   24   29 ar  
    49   25   26 ar  
    50   25   61 1   
    51   26   27 ar  
    52   26   34 1   
    53   27   28 ar  
    54   27   62 1   
    55   28   29 ar  
    56   28   30 1   
    57   29   63 1   
    58   30   31 1   
    59   30   32 1   
    60   30   33 1   
    61   34   35 1   
    62   34   36 1   
    63   34   37 1   
    64   38   39 2   
    65   38   40 1   
    66   40   41 1   
    67   41   64 1   
    68   41   65 1   
    69   41   66 1   
@<TRIPOS>SUBSTRUCTURE
     1 0RP         1 TEMP              0 ****  ****    0 ROOT
