@<TRIPOS>MOLECULE
0RP
   67    69     1     0     0
SMALL
bcc


@<TRIPOS>ATOM
      1 C1          0.2910   -1.6390    2.1220 c3        1 0RP     -0.101100
      2 C2          1.3530   -0.9070    1.3420 c3        1 0RP     -0.088400
      3 C3          2.4620   -0.3880    2.2630 c3        1 0RP      0.129700
      4 C4          1.9430    0.8040    3.0870 c3        1 0RP     -0.141400
      5 C5          2.9930    1.2560    4.1060 c3        1 0RP      0.220800
      6 C6          4.4040    0.8920    3.7590 ca        1 0RP     -0.224300
      7 C7          5.3980    1.0850    4.7270 ca        1 0RP     -0.059000
      8 C8          6.7270    0.7960    4.4430 ca        1 0RP     -0.180300
      9 C9          7.0830    0.2840    3.1900 ca        1 0RP     -0.025000
     10 C10         6.1070    0.0360    2.2350 ca        1 0RP     -0.131000
     11 C11         4.7480    0.3160    2.5070 ca        1 0RP      0.148600
     12 N1          3.7240   -0.0390    1.6070 n         1 0RP     -0.371000
     13 C12         3.7970    0.2440    0.2360 c         1 0RP      0.749100
     14 O1          2.8780    0.1510   -0.5890 o         1 0RP     -0.539000
     15 O2          5.0330    0.6560   -0.1980 os        1 0RP     -0.447900
     16 C13         5.1470    0.8370   -1.6330 c3        1 0RP      0.148400
     17 C14         6.5890    1.1990   -1.8820 c3        1 0RP     -0.106100
     18 C15         7.7930    1.0230    5.5120 c3        1 0RP      0.691200
     19 F1          7.5160    2.0780    6.3490 f         1 0RP     -0.223967
     20 F2          7.9720   -0.0450    6.3540 f         1 0RP     -0.223967
     21 F3          9.0410    1.2940    5.0140 f         1 0RP     -0.223967
     22 N2          2.9090    2.7570    4.4130 n4        1 0RP     -0.565200
     23 C16         1.5930    3.1320    5.0480 c3        1 0RP      0.178100
     24 C17         1.5020    2.6790    6.4650 ca        1 0RP     -0.185300
     25 C18         0.7940    1.5160    6.7880 ca        1 0RP     -0.036000
     26 C19         0.6670    1.1310    8.1230 ca        1 0RP     -0.165300
     27 C20         1.2330    1.8970    9.1450 ca        1 0RP      0.008000
     28 C21         1.9350    3.0590    8.8130 ca        1 0RP     -0.165300
     29 C22         2.0710    3.4560    7.4820 ca        1 0RP     -0.036000
     30 C23         2.5480    3.9250    9.9180 c3        1 0RP      0.691700
     31 F4          1.7360    4.9520   10.3220 f         1 0RP     -0.217633
     32 F5          2.8530    3.2360   11.0620 f         1 0RP     -0.217633
     33 F6          3.7220    4.5330    9.5450 f         1 0RP     -0.217633
     34 C24        -0.0910   -0.1570    8.4580 c3        1 0RP      0.691700
     35 F7          0.6790   -1.2860    8.3240 f         1 0RP     -0.217633
     36 F8         -0.5800   -0.2070    9.7350 f         1 0RP     -0.217633
     37 F9         -1.1760   -0.3810    7.6480 f         1 0RP     -0.217633
     38 C25         3.1370    3.6140    3.2110 c         1 0RP      0.611100
     39 O3          2.3410    3.7560    2.2910 o         1 0RP     -0.430000
     40 O4          4.3240    4.2590    3.2950 os        1 0RP     -0.398900
     41 C26         4.6660    5.0980    2.1660 c3        1 0RP      0.129700
     42 H4          0.7350   -2.4540    2.7430 hc        1 0RP      0.045033
     43 H5         -0.4370   -2.1000    1.4090 hc        1 0RP      0.045033
     44 H3         -0.2760   -0.9500    2.7930 hc        1 0RP      0.045033
     45 H6          1.7980   -1.6100    0.5850 hc        1 0RP      0.083200
     46 H7          0.9020   -0.0550    0.7680 hc        1 0RP      0.083200
     47 H1          2.7250   -1.2250    2.9850 h1        1 0RP      0.077700
     48 H9          1.0220    0.4750    3.6360 hc        1 0RP      0.090700
     49 H8          1.6420    1.6260    2.3830 hc        1 0RP      0.090700
     50 H2          2.7400    0.7780    5.1080 hx        1 0RP      0.106700
     51 H10         5.1390    1.4590    5.7320 ha        1 0RP      0.144000
     52 H11         8.1430    0.0630    2.9690 ha        1 0RP      0.179000
     53 H12         6.3970   -0.3850    1.2550 ha        1 0RP      0.188000
     54 H14         4.4420    1.6520   -1.9410 h1        1 0RP      0.066700
     55 H13         4.8550   -0.1200   -2.1390 h1        1 0RP      0.066700
     56 H17         6.7390    1.3350   -2.9810 hc        1 0RP      0.056700
     57 H16         7.2680    0.3900   -1.5200 hc        1 0RP      0.056700
     58 H15         6.8580    2.1470   -1.3580 hc        1 0RP      0.056700
     59 H19         1.5020    4.2580    4.9960 hx        1 0RP      0.119700
     60 H18         0.7710    2.6820    4.4170 hx        1 0RP      0.119700
     61 H20         0.3200    0.9070    5.9980 ha        1 0RP      0.163500
     62 H21         1.1250    1.5900   10.2030 ha        1 0RP      0.198000
     63 H22         2.6170    4.3850    7.2470 ha        1 0RP      0.163500
     64 H24         5.6560    5.5170    2.4810 h1        1 0RP      0.087367
     65 H25         3.8900    5.8920    2.0450 h1        1 0RP      0.087367
     66 H23         4.7470    4.4690    1.2480 h1        1 0RP      0.087367
     67 H211        3.6700    2.9640    5.0820 hn        1 0RP      0.468800
@<TRIPOS>BOND
     1    1    2 1   
     2    1   42 1   
     3    1   43 1   
     4    1   44 1   
     5    2    3 1   
     6    2   45 1   
     7    2   46 1   
     8    3    4 1   
     9    3   12 1   
    10    3   47 1   
    11    4    5 1   
    12    4   48 1   
    13    4   49 1   
    14    5    6 1   
    15    5   22 1   
    16    5   50 1   
    17    6    7 ar  
    18    6   11 ar  
    19    7    8 ar  
    20    7   51 1   
    21    8    9 ar  
    22    8   18 1   
    23    9   10 ar  
    24    9   52 1   
    25   10   11 ar  
    26   10   53 1   
    27   11   12 1   
    28   12   13 1   
    29   13   14 2   
    30   13   15 1   
    31   15   16 1   
    32   16   17 1   
    33   16   54 1   
    34   16   55 1   
    35   17   56 1   
    36   17   57 1   
    37   17   58 1   
    38   18   19 1   
    39   18   20 1   
    40   18   21 1   
    41   22   23 1   
    42   22   38 1   
    43   22   67 1   
    44   23   24 1   
    45   23   59 1   
    46   23   60 1   
    47   24   25 ar  
    48   24   29 ar  
    49   25   26 ar  
    50   25   61 1   
    51   26   27 ar  
    52   26   34 1   
    53   27   28 ar  
    54   27   62 1   
    55   28   29 ar  
    56   28   30 1   
    57   29   63 1   
    58   30   31 1   
    59   30   32 1   
    60   30   33 1   
    61   34   35 1   
    62   34   36 1   
    63   34   37 1   
    64   38   39 2   
    65   38   40 1   
    66   40   41 1   
    67   41   64 1   
    68   41   65 1   
    69   41   66 1   
@<TRIPOS>SUBSTRUCTURE
     1 0RP         1 TEMP              0 ****  ****    0 ROOT
