@<TRIPOS>MOLECULE
0RP
   66    68     1     0     0
SMALL
bcc


@<TRIPOS>ATOM
      1 C1          4.7210    2.4540   -3.4410 c3        1 0RP     -0.096100
      2 C2          4.9980    1.7560   -2.1340 c3        1 0RP     -0.084400
      3 C3          3.7680    0.9840   -1.6490 c3        1 0RP      0.106700
      4 C4          2.7400    1.9380   -1.0330 c3        1 0RP     -0.130400
      5 C5          1.4030    1.2020   -0.8350 c3        1 0RP      0.182000
      6 C6          1.6000   -0.2340   -0.3940 ca        1 0RP     -0.128300
      7 C7          0.4680   -1.0000   -0.0960 ca        1 0RP     -0.058000
      8 C8          0.5870   -2.3400    0.2650 ca        1 0RP     -0.181300
      9 C9          1.8450   -2.9420    0.3290 ca        1 0RP     -0.066000
     10 C10         2.9810   -2.2040    0.0220 ca        1 0RP     -0.126000
     11 C11         2.8790   -0.8440   -0.3450 ca        1 0RP      0.094600
     12 N1          4.0470   -0.1320   -0.7360 n         1 0RP     -0.331000
     13 C12         5.1320   -0.0460    0.1510 c         1 0RP      0.739100
     14 O1          6.0750    0.7620    0.1180 o         1 0RP     -0.573000
     15 O2          5.1740   -1.0290    1.1160 os        1 0RP     -0.438900
     16 C13         6.3400   -1.0010    1.9670 c3        1 0RP      0.148400
     17 C14         6.1740   -2.1520    2.9270 c3        1 0RP     -0.103100
     18 C15        -0.6610   -3.1570    0.5710 c3        1 0RP      0.690200
     19 F1         -1.6830   -2.4450    1.1500 f         1 0RP     -0.235967
     20 F2         -1.2400   -3.7320   -0.5350 f         1 0RP     -0.235967
     21 F3         -0.4570   -4.2110    1.4280 f         1 0RP     -0.235967
     22 N2          0.4840    1.9580    0.0010 n         1 0RP     -0.464800
     23 C16        -0.6550    2.6030   -0.6170 c3        1 0RP      0.151300
     24 C17        -1.9170    1.7850   -0.6300 ca        1 0RP     -0.130300
     25 C18        -2.4100    1.2640   -1.8270 ca        1 0RP     -0.043500
     26 C19        -3.6180    0.5610   -1.8340 ca        1 0RP     -0.174800
     27 C20        -4.3390    0.3710   -0.6550 ca        1 0RP     -0.026000
     28 C21        -3.8370    0.8940    0.5390 ca        1 0RP     -0.174800
     29 C22        -2.6310    1.5960    0.5600 ca        1 0RP     -0.043500
     30 C23        -4.6250    0.7140    1.8330 c3        1 0RP      0.690700
     31 F4         -5.4470    1.7750    2.1330 f         1 0RP     -0.231300
     32 F5         -5.4640   -0.3730    1.8420 f         1 0RP     -0.231300
     33 F6         -3.8490    0.5590    2.9540 f         1 0RP     -0.231300
     34 C24        -4.1420   -0.0100   -3.1470 c3        1 0RP      0.690700
     35 F7         -3.6100   -1.2320   -3.4780 f         1 0RP     -0.231300
     36 F8         -5.5000   -0.2080   -3.1840 f         1 0RP     -0.231300
     37 F9         -3.8830    0.7760   -4.2450 f         1 0RP     -0.231300
     38 C25         0.7060    2.2030    1.3490 c         1 0RP      0.744100
     39 O3         -0.0730    2.7980    2.1160 o         1 0RP     -0.594000
     40 O4          1.9030    1.7470    1.8580 os        1 0RP     -0.425900
     41 C26         2.0710    1.9410    3.2670 c3        1 0RP      0.134700
     42 H4          4.4200    1.7230   -4.2300 hc        1 0RP      0.036700
     43 H5          3.9060    3.2110   -3.3340 hc        1 0RP      0.036700
     44 H3          5.6430    2.9820   -3.7850 hc        1 0RP      0.036700
     45 H6          5.8610    1.0510   -2.2720 hc        1 0RP      0.072200
     46 H7          5.3060    2.4990   -1.3520 hc        1 0RP      0.072200
     47 H1          3.2980    0.4870   -2.5550 h1        1 0RP      0.066700
     48 H9          3.1250    2.3390   -0.0580 hc        1 0RP      0.074700
     49 H8          2.5830    2.8080   -1.7210 hc        1 0RP      0.074700
     50 H2          0.9110    1.1290   -1.8590 h1        1 0RP      0.063700
     51 H10        -0.5350   -0.5400   -0.1400 ha        1 0RP      0.155000
     52 H11         1.9350   -4.0000    0.6220 ha        1 0RP      0.157000
     53 H12         3.9720   -2.6850    0.0820 ha        1 0RP      0.166000
     54 H14         7.2540   -1.1110    1.3270 h1        1 0RP      0.056200
     55 H13         6.3760   -0.0120    2.4940 h1        1 0RP      0.056200
     56 H17         5.2420   -2.0320    3.5300 hc        1 0RP      0.050367
     57 H16         6.1120   -3.1200    2.3740 hc        1 0RP      0.050367
     58 H15         7.0540   -2.1790    3.6140 hc        1 0RP      0.050367
     59 H19        -0.8720    3.5600   -0.0520 h1        1 0RP      0.075700
     60 H18        -0.3780    2.8780   -1.6760 h1        1 0RP      0.075700
     61 H20        -1.8600    1.4100   -2.7720 ha        1 0RP      0.171000
     62 H21        -5.2930   -0.1850   -0.6650 ha        1 0RP      0.174000
     63 H22        -2.2320    2.0030    1.5100 ha        1 0RP      0.171000
     64 H24         2.0510    3.0310    3.5060 h1        1 0RP      0.057033
     65 H25         1.2640    1.4090    3.8250 h1        1 0RP      0.057033
     66 H23         3.0750    1.4910    3.4640 h1        1 0RP      0.057033
@<TRIPOS>BOND
     1    1    2 1   
     2    1   42 1   
     3    1   43 1   
     4    1   44 1   
     5    2    3 1   
     6    2   45 1   
     7    2   46 1   
     8    3    4 1   
     9    3   12 1   
    10    3   47 1   
    11    4    5 1   
    12    4   48 1   
    13    4   49 1   
    14    5    6 1   
    15    5   22 1   
    16    5   50 1   
    17    6    7 ar  
    18    6   11 ar  
    19    7    8 ar  
    20    7   51 1   
    21    8    9 ar  
    22    8   18 1   
    23    9   10 ar  
    24    9   52 1   
    25   10   11 ar  
    26   10   53 1   
    27   11   12 1   
    28   12   13 1   
    29   13   14 2   
    30   13   15 1   
    31   15   16 1   
    32   16   17 1   
    33   16   54 1   
    34   16   55 1   
    35   17   56 1   
    36   17   57 1   
    37   17   58 1   
    38   18   19 1   
    39   18   20 1   
    40   18   21 1   
    41   22   23 1   
    42   22   38 1   
    43   23   24 1   
    44   23   59 1   
    45   23   60 1   
    46   24   25 ar  
    47   24   29 ar  
    48   25   26 ar  
    49   25   61 1   
    50   26   27 ar  
    51   26   34 1   
    52   27   28 ar  
    53   27   62 1   
    54   28   29 ar  
    55   28   30 1   
    56   29   63 1   
    57   30   31 1   
    58   30   32 1   
    59   30   33 1   
    60   34   35 1   
    61   34   36 1   
    62   34   37 1   
    63   38   39 2   
    64   38   40 1   
    65   40   41 1   
    66   41   64 1   
    67   41   65 1   
    68   41   66 1   
@<TRIPOS>SUBSTRUCTURE
     1 0RP         1 TEMP              0 ****  ****    0 ROOT
