@<TRIPOS>MOLECULE
0RP
   66    63     1     0     0
SMALL
bcc


@<TRIPOS>ATOM
      1 C1         -2.9290   -3.0740   -2.6510 c3        1 0RP     -0.215000
      2 C2         -1.4940   -2.5580   -2.7190 c3        1 0RP     -0.162000
      3 C3         -0.8520   -2.5610   -1.2390 c3        1 0RP      0.032000
      4 C4         -1.3280   -1.3370   -0.5380 c3        1 0RP     -0.218000
      5 C5         -0.7750   -1.0830    0.7290 c3        1 0RP      0.086000
      6 C6          0.7300   -1.4880    0.9270 c1        1 0RP     -0.117000
      7 C7          1.4310   -1.1700    2.0530 c1        1 0RP     -0.053000
      8 C8          2.8060   -1.5350    2.1680 c1        1 0RP     -0.178000
      9 C9          3.4490   -2.2300    1.1100 c2        1 0RP     -0.064000
     10 C10         2.7270   -2.5670   -0.0680 c1        1 0RP     -0.125000
     11 C11         1.4010   -2.2170   -0.1840 c1        1 0RP      0.108000
     12 N1          0.5040   -2.7100   -1.3730 n         1 0RP     -0.234000
     13 C12         1.0240   -3.6410   -2.3320 c2        1 0RP      0.396000
     14 O1          0.2640   -4.3590   -2.9550 o         1 0RP     -0.382000
     15 O2          2.4340   -3.7040   -2.5830 os        1 0RP     -0.272000
     16 C13         2.7620   -4.0880   -3.9100 c3        1 0RP     -0.001000
     17 C14         3.9890   -4.9440   -3.8950 c3        1 0RP     -0.247000
     18 C15         3.5910   -1.1210    3.3770 c2        1 0RP      0.469000
     19 F1          4.9280   -1.4570    3.2000 f         1 0RP     -0.163333
     20 F2          3.4800    0.2120    3.5480 f         1 0RP     -0.163333
     21 F3          3.0980   -1.7700    4.4900 f         1 0RP     -0.163333
     22 N2         -0.8980    0.3980    1.0010 n         1 0RP     -0.301000
     23 C16        -2.1780    0.9510    1.5250 c3        1 0RP      0.017000
     24 C17        -2.1250    2.4720    1.5270 c2        1 0RP     -0.124000
     25 C18        -1.9300    3.1690    2.7430 c2        1 0RP     -0.033000
     26 C19        -2.0040    4.5510    2.7670 c1        1 0RP     -0.168000
     27 C20        -2.2700    5.2560    1.5890 c2        1 0RP     -0.028000
     28 C21        -2.4630    4.5680    0.3860 c1        1 0RP     -0.170000
     29 C22        -2.3890    3.1770    0.3570 c1        1 0RP     -0.049000
     30 C23        -2.7870    5.3230   -0.8630 c3        1 0RP      0.469000
     31 F4         -4.0920    5.4000   -1.0020 f         1 0RP     -0.160333
     32 F5         -2.2640    6.5760   -0.7870 f         1 0RP     -0.160333
     33 F6         -2.2790    4.7000   -1.8870 f         1 0RP     -0.160333
     34 C24        -1.7650    5.3090    4.0650 c2        1 0RP      0.469000
     35 F7         -1.0010    4.5600    4.8990 f         1 0RP     -0.163333
     36 F8         -1.1560    6.4200    3.8030 f         1 0RP     -0.163333
     37 F9         -2.9310    5.5740    4.6510 f         1 0RP     -0.163333
     38 C25         0.2290    1.2850    0.7330 c2        1 0RP      0.390000
     39 O3          1.3690    0.8220    0.6380 o         1 0RP     -0.373000
     40 O4          0.0250    2.6870    0.6660 os        1 0RP     -0.291000
     41 C26         1.1260    3.3990    0.1800 c3        1 0RP     -0.054000
     42 H4         -3.5280   -2.3300   -2.4970 hc        1 0RP      0.077000
     43 H5         -3.1540   -3.4970   -3.4680 hc        1 0RP      0.077000
     44 H3         -3.0110   -3.7060   -1.9310 hc        1 0RP      0.077000
     45 H6         -1.4940   -1.6310   -3.0780 hc        1 0RP      0.111000
     46 H7         -0.9670   -3.1350   -3.3060 hc        1 0RP      0.111000
     47 H1         -1.2060   -3.3630   -0.7450 h1        1 0RP      0.104000
     48 H9         -2.2820   -1.4250   -0.4240 hc        1 0RP      0.117000
     49 H8         -1.1140   -0.5610   -1.1180 hc        1 0RP      0.117000
     50 H2         -1.3100   -1.5630    1.3980 h1        1 0RP      0.100000
     51 H10         0.9940   -0.6960    2.7760 ha        1 0RP      0.152000
     52 H11         4.3650   -2.4710    1.1890 ha        1 0RP      0.155000
     53 H12         3.1790   -3.0520   -0.8060 ha        1 0RP      0.166000
     54 H14         2.0400   -4.5780   -4.2850 h1        1 0RP      0.107500
     55 H13         2.9220   -3.3190   -4.4290 h1        1 0RP      0.107500
     56 H17         4.3570   -4.9990   -4.7930 hc        1 0RP      0.090333
     57 H16         3.7450   -5.8840   -3.5670 hc        1 0RP      0.090333
     58 H15         4.6650   -4.5440   -3.2830 hc        1 0RP      0.090333
     59 H19        -2.3150    0.6430    2.4060 h1        1 0RP      0.119000
     60 H18        -2.9040    0.6580    0.9680 h1        1 0RP      0.119000
     61 H20        -1.7420    2.6680    3.5760 ha        1 0RP      0.175000
     62 H21        -2.3230    6.2650    1.6080 ha        1 0RP      0.175000
     63 H22        -2.5330    2.6740   -0.5260 ha        1 0RP      0.154000
     64 H24         1.5540    3.8590    0.9030 h1        1 0RP      0.096000
     65 H25         1.7790    2.7610   -0.2450 h1        1 0RP      0.096000
     66 H23         0.8320    4.0330   -0.4700 h1        1 0RP      0.096000
@<TRIPOS>BOND
     1    1    2 1   
     2    1   42 1   
     3    1   43 1   
     4    1   44 1   
     5    2    3 1   
     6    2   45 1   
     7    2   46 1   
     8    3    4 1   
     9    3   12 1   
    10    3   47 1   
    11    4    5 1   
    12    4   48 1   
    13    4   49 1   
    14    5    6 1   
    15    5   22 1   
    16    5   50 1   
    17    6   11 1   
    18    7    8 1   
    19    7   51 1   
    20    8    9 1   
    21    9   10 1   
    22    9   52 1   
    23   10   53 1   
    24   11   12 1   
    25   12   13 1   
    26   13   14 1   
    27   13   15 1   
    28   15   16 1   
    29   16   17 1   
    30   16   54 1   
    31   16   55 1   
    32   17   56 1   
    33   17   57 1   
    34   17   58 1   
    35   18   19 1   
    36   18   20 1   
    37   18   21 1   
    38   22   23 1   
    39   22   38 1   
    40   23   24 1   
    41   23   59 1   
    42   23   60 1   
    43   24   25 1   
    44   24   29 1   
    45   25   26 1   
    46   25   61 1   
    47   26   27 1   
    48   27   28 1   
    49   27   62 1   
    50   28   30 1   
    51   29   63 1   
    52   30   31 1   
    53   30   32 1   
    54   30   33 1   
    55   34   35 1   
    56   34   36 1   
    57   34   37 1   
    58   38   39 1   
    59   38   40 1   
    60   40   41 1   
    61   41   64 1   
    62   41   65 1   
    63   41   66 1   
@<TRIPOS>SUBSTRUCTURE
     1 0RP         1 TEMP              0 ****  ****    0 ROOT
