@<TRIPOS>MOLECULE
0RP
   67    69     1     0     0
SMALL
bcc


@<TRIPOS>ATOM
      1 C1          0.9500   -2.0880    2.6950 c3        1 0RP     -0.103100
      2 C2          1.6670   -0.9950    1.9440 c3        1 0RP     -0.091400
      3 C3          2.9780   -0.6170    2.6420 c3        1 0RP      0.111700
      4 C4          2.6820   -0.0580    4.0530 c3        1 0RP     -0.114400
      5 C5          3.4780    1.1900    4.4480 c3        1 0RP      0.227800
      6 C6          4.8750    1.0870    3.9150 ca        1 0RP     -0.218300
      7 C7          5.9790    1.4070    4.7010 ca        1 0RP     -0.029000
      8 C8          7.2630    1.2650    4.1750 ca        1 0RP     -0.183300
      9 C9          7.4470    0.7940    2.8730 ca        1 0RP     -0.024000
     10 C10         6.3510    0.4580    2.0800 ca        1 0RP     -0.136000
     11 C11         5.0480    0.6030    2.5870 ca        1 0RP      0.109600
     12 N1          3.8590    0.2870    1.8890 n         1 0RP     -0.405000
     13 C12         3.7050    0.4870    0.5090 c         1 0RP      0.749100
     14 O1          2.6210    0.5310   -0.0910 o         1 0RP     -0.547000
     15 O2          4.8570    0.7400   -0.1860 os        1 0RP     -0.440900
     16 C13         4.6800    0.9960   -1.6040 c3        1 0RP      0.149400
     17 C14         6.0690    1.2080   -2.1510 c3        1 0RP     -0.108100
     18 C15         8.4700    1.6480    5.0310 c3        1 0RP      0.692200
     19 F1          8.7740    2.9860    4.9750 f         1 0RP     -0.222967
     20 F2          8.3090    1.3870    6.3690 f         1 0RP     -0.222967
     21 F3          9.6330    1.0110    4.6840 f         1 0RP     -0.222967
     22 N2          2.8270    2.4680    3.9140 n4        1 0RP     -0.559200
     23 C16         1.4100    2.7030    4.3750 c3        1 0RP      0.181100
     24 C17         1.1070    2.3650    5.7960 ca        1 0RP     -0.173300
     25 C18         0.2010    1.3320    6.0710 ca        1 0RP     -0.036000
     26 C19        -0.1670    1.0600    7.3890 ca        1 0RP     -0.167300
     27 C20         0.3510    1.8120    8.4460 ca        1 0RP      0.004000
     28 C21         1.2490    2.8440    8.1640 ca        1 0RP     -0.167300
     29 C22         1.6230    3.1280    6.8500 ca        1 0RP     -0.036000
     30 C23         1.8440    3.6750    9.3050 c3        1 0RP      0.691700
     31 F4          2.0450    4.9920    8.9800 f         1 0RP     -0.218633
     32 F5          1.0760    3.7010   10.4390 f         1 0RP     -0.218633
     33 F6          3.0730    3.2260    9.7180 f         1 0RP     -0.218633
     34 C24        -1.1410   -0.0870    7.6670 c3        1 0RP      0.691700
     35 F7         -0.5370   -1.3200    7.6660 f         1 0RP     -0.218633
     36 F8         -1.7820   -0.0050    8.8740 f         1 0RP     -0.218633
     37 F9         -2.1440   -0.1940    6.7360 f         1 0RP     -0.218633
     38 C25         3.6750    3.6530    4.2460 c         1 0RP      0.613100
     39 O3          4.1900    3.8680    5.3370 o         1 0RP     -0.440000
     40 O4          3.7820    4.4830    3.1830 os        1 0RP     -0.402900
     41 C26         4.6110    5.6540    3.3780 c3        1 0RP      0.129700
     42 H4          0.0230   -2.3750    2.1380 hc        1 0RP      0.048367
     43 H5          1.5950   -2.9970    2.7880 hc        1 0RP      0.048367
     44 H3          0.6530   -1.7630    3.7200 hc        1 0RP      0.048367
     45 H6          1.0120   -0.0910    1.8380 hc        1 0RP      0.071700
     46 H7          1.8850   -1.3630    0.9030 hc        1 0RP      0.071700
     47 H1          3.5600   -1.5830    2.7860 h1        1 0RP      0.075700
     48 H9          2.9590   -0.8540    4.7990 hc        1 0RP      0.087700
     49 H8          1.5810    0.1230    4.1690 hc        1 0RP      0.087700
     50 H2          3.4790    1.3070    5.5740 hx        1 0RP      0.123700
     51 H10         5.8440    1.7760    5.7340 ha        1 0RP      0.173000
     52 H11         8.4700    0.6720    2.4730 ha        1 0RP      0.179000
     53 H12         6.5190    0.0800    1.0560 ha        1 0RP      0.188000
     54 H14         4.0310    1.9030   -1.7200 h1        1 0RP      0.065700
     55 H13         4.1700    0.1090   -2.0620 h1        1 0RP      0.065700
     56 H17         5.9950    1.3870   -3.2510 hc        1 0RP      0.059033
     57 H16         6.5550    2.0900   -1.6700 hc        1 0RP      0.059033
     58 H15         6.7060    0.3090   -1.9710 hc        1 0RP      0.059033
     59 H19         0.7490    2.0950    3.6880 hx        1 0RP      0.113700
     60 H18         1.1890    3.7990    4.1950 hx        1 0RP      0.113700
     61 H20        -0.2480    0.7370    5.2560 ha        1 0RP      0.167000
     62 H21         0.0460    1.6020    9.4890 ha        1 0RP      0.196000
     63 H22         2.3230    3.9620    6.6590 ha        1 0RP      0.167000
     64 H24         5.6540    5.3350    3.6130 h1        1 0RP      0.088033
     65 H25         4.5370    6.1590    2.3810 h1        1 0RP      0.088033
     66 H23         4.1850    6.2770    4.2000 h1        1 0RP      0.088033
     67 H211        2.7960    2.4010    2.8820 hn        1 0RP      0.480800
@<TRIPOS>BOND
     1    1    2 1   
     2    1   42 1   
     3    1   43 1   
     4    1   44 1   
     5    2    3 1   
     6    2   45 1   
     7    2   46 1   
     8    3    4 1   
     9    3   12 1   
    10    3   47 1   
    11    4    5 1   
    12    4   48 1   
    13    4   49 1   
    14    5    6 1   
    15    5   22 1   
    16    5   50 1   
    17    6    7 ar  
    18    6   11 ar  
    19    7    8 ar  
    20    7   51 1   
    21    8    9 ar  
    22    8   18 1   
    23    9   10 ar  
    24    9   52 1   
    25   10   11 ar  
    26   10   53 1   
    27   11   12 1   
    28   12   13 1   
    29   13   14 2   
    30   13   15 1   
    31   15   16 1   
    32   16   17 1   
    33   16   54 1   
    34   16   55 1   
    35   17   56 1   
    36   17   57 1   
    37   17   58 1   
    38   18   19 1   
    39   18   20 1   
    40   18   21 1   
    41   22   23 1   
    42   22   38 1   
    43   22   67 1   
    44   23   24 1   
    45   23   59 1   
    46   23   60 1   
    47   24   25 ar  
    48   24   29 ar  
    49   25   26 ar  
    50   25   61 1   
    51   26   27 ar  
    52   26   34 1   
    53   27   28 ar  
    54   27   62 1   
    55   28   29 ar  
    56   28   30 1   
    57   29   63 1   
    58   30   31 1   
    59   30   32 1   
    60   30   33 1   
    61   34   35 1   
    62   34   36 1   
    63   34   37 1   
    64   38   39 2   
    65   38   40 1   
    66   40   41 1   
    67   41   64 1   
    68   41   65 1   
    69   41   66 1   
@<TRIPOS>SUBSTRUCTURE
     1 0RP         1 TEMP              0 ****  ****    0 ROOT
