@<TRIPOS>MOLECULE
0RR
   44    47     1     0     0
SMALL
bcc


@<TRIPOS>ATOM
      1 OAA        -8.0030    0.5060   -0.8590 o         1 0RR     -0.836300
      2 CAS        -7.1970    0.3050    0.0890 c         1 0RR      0.921600
      3 OAD        -7.4690    0.4470    1.3140 o         1 0RR     -0.836300
      4 CAO        -5.7690   -0.1520   -0.3000 c3        1 0RR     -0.228400
      5 CAP        -4.9440   -0.3560    0.9560 c3        1 0RR      0.099000
      6 NBE        -3.5600   -0.7650    0.7280 n         1 0RR     -0.420400
      7 CAX        -2.5420    0.1900    0.4680 c         1 0RR      0.690700
      8 OAB        -2.7370    1.4020    0.5980 o         1 0RR     -0.551500
      9 CAZ        -3.1560   -2.0790    0.6360 c         1 0RR      0.348000
     10 SAE        -3.8800   -3.4240    0.8590 s         1 0RR     -0.289400
     11 SAR        -1.4460   -2.1460    0.2060 ss        1 0RR     -0.038200
     12 CBA        -1.2390   -0.4670    0.1000 cc        1 0RR     -0.048600
     13 CBB        -0.0930    0.1480   -0.2510 cd        1 0RR     -0.055400
     14 CAY         1.1680   -0.6650   -0.4930 c         1 0RR      0.689700
     15 OAC         1.2910   -1.8950   -0.4710 o         1 0RR     -0.575500
     16 CBC         0.3050    1.5380   -0.4760 ca        1 0RR     -0.090800
     17 CAN        -0.3960    2.7300   -0.4820 ca        1 0RR     -0.044000
     18 CAT         0.2930    3.9240   -0.7670 ca        1 0RR     -0.023600
     19 CLF        -0.5690    5.3910   -0.7700 cl        1 0RR     -0.093400
     20 CAL         1.6560    3.9330   -1.0480 ca        1 0RR     -0.089000
     21 CAM         2.3860    2.7400   -1.0610 ca        1 0RR     -0.176000
     22 CBD         1.7210    1.5490   -0.7790 ca        1 0RR      0.073600
     23 NBF         2.2300    0.2360   -0.7600 n         1 0RR     -0.380000
     24 CAQ         3.5660   -0.1470   -1.1070 c3        1 0RR      0.159300
     25 CAW         4.3600   -0.8000   -0.0030 ca        1 0RR     -0.091300
     26 CAU         4.8000   -2.1290   -0.1160 ca        1 0RR      0.044400
     27 CLG         4.4660   -3.0690   -1.4950 cl        1 0RR     -0.076400
     28 CAJ         5.5410   -2.7340    0.9060 ca        1 0RR     -0.131000
     29 CAI         5.8590   -2.0140    2.0530 ca        1 0RR     -0.109000
     30 CAK         5.4500   -0.6890    2.1810 ca        1 0RR     -0.131000
     31 CAV         4.7120   -0.0890    1.1560 ca        1 0RR      0.044400
     32 CLH         4.2620    1.5380    1.3550 cl        1 0RR     -0.076400
     33 H2         -5.8530   -1.0960   -0.8900 hc        1 0RR      0.038200
     34 H3         -5.3180    0.6340   -0.9540 hc        1 0RR      0.038200
     35 H4         -4.9150    0.6110    1.5370 h1        1 0RR      0.091700
     36 H5         -5.4340   -1.1430    1.5990 h1        1 0RR      0.091700
     37 H6         -1.4790    2.7690   -0.2740 ha        1 0RR      0.198000
     38 H7          2.1730    4.8800   -1.2670 ha        1 0RR      0.142000
     39 H8          3.4610    2.7620   -1.2840 ha        1 0RR      0.139000
     40 H9          3.5000   -0.8590   -1.9840 h1        1 0RR      0.072200
     41 H10         4.1300    0.7710   -1.4440 h1        1 0RR      0.072200
     42 H11         5.8650   -3.7810    0.8040 ha        1 0RR      0.149500
     43 H12         6.4330   -2.4920    2.8610 ha        1 0RR      0.140000
     44 H13         5.7030   -0.1170    3.0870 ha        1 0RR      0.149500
@<TRIPOS>BOND
     1    1    2 1   
     2    2    3 1   
     3    2    4 1   
     4    4    5 1   
     5    4   33 1   
     6    4   34 1   
     7    5    6 1   
     8    5   35 1   
     9    5   36 1   
    10    6    7 1   
    11    6    9 1   
    12    7    8 2   
    13    7   12 1   
    14    9   10 2   
    15    9   11 1   
    16   11   12 1   
    17   12   13 2   
    18   13   14 1   
    19   13   16 1   
    20   14   15 2   
    21   14   23 1   
    22   16   17 ar  
    23   16   22 ar  
    24   17   18 ar  
    25   17   37 1   
    26   18   19 1   
    27   18   20 ar  
    28   20   21 ar  
    29   20   38 1   
    30   21   22 ar  
    31   21   39 1   
    32   22   23 1   
    33   23   24 1   
    34   24   25 1   
    35   24   40 1   
    36   24   41 1   
    37   25   26 ar  
    38   25   31 ar  
    39   26   27 1   
    40   26   28 ar  
    41   28   29 ar  
    42   28   42 1   
    43   29   30 ar  
    44   29   43 1   
    45   30   31 ar  
    46   30   44 1   
    47   31   32 1   
@<TRIPOS>SUBSTRUCTURE
     1 0RR         1 TEMP              0 ****  ****    0 ROOT
