@<TRIPOS>MOLECULE
0RR
   44    47     1     0     0
SMALL
bcc


@<TRIPOS>ATOM
      1 OAA        -0.0760   -0.6570   -0.2540 o         1 0RR     -0.836300
      2 CAS         1.1480   -0.4280   -0.0570 c         1 0RR      0.921600
      3 OAD         1.6890   -0.3070    1.0780 o         1 0RR     -0.836300
      4 CAO         2.0400   -0.2870   -1.3150 c3        1 0RR     -0.228400
      5 CAP         3.4730   -0.0270   -0.8920 c3        1 0RR      0.099000
      6 NBE         4.4200    0.1520   -1.9920 n         1 0RR     -0.420400
      7 CAX         4.5950    1.4160   -2.6140 c         1 0RR      0.690700
      8 OAB         4.1000    2.4470   -2.1500 o         1 0RR     -0.551500
      9 CAZ         5.1190   -0.8810   -2.5750 c         1 0RR      0.348000
     10 SAE         5.2620   -2.3810   -2.2390 s         1 0RR     -0.289400
     11 SAR         6.0330   -0.2750   -3.9570 ss        1 0RR     -0.038200
     12 CBA         5.4890    1.3250   -3.8220 cc        1 0RR     -0.048600
     13 CBB         5.8190    2.3250   -4.6620 cd        1 0RR     -0.055400
     14 CAY         6.8220    2.0850   -5.7790 c         1 0RR      0.689700
     15 OAC         7.3700    1.0220   -6.0880 o         1 0RR     -0.575500
     16 CBC         5.4360    3.7310   -4.7940 ca        1 0RR     -0.090800
     17 CAN         4.5170    4.5240   -4.1300 ca        1 0RR     -0.044000
     18 CAT         4.3660    5.8660   -4.5240 ca        1 0RR     -0.023600
     19 CLF         3.2390    6.8430   -3.7040 cl        1 0RR     -0.093400
     20 CAL         5.1110    6.4120   -5.5660 ca        1 0RR     -0.089000
     21 CAM         6.0370    5.6280   -6.2620 ca        1 0RR     -0.176000
     22 CBD         6.2020    4.2980   -5.8850 ca        1 0RR      0.073600
     23 NBF         7.0420    3.3170   -6.4460 n         1 0RR     -0.380000
     24 CAQ         7.8710    3.4900   -7.6020 c3        1 0RR      0.159300
     25 CAW         9.3510    3.3180   -7.3690 ca        1 0RR     -0.091300
     26 CAU        10.0670    2.2830   -7.9940 ca        1 0RR      0.044400
     27 CLG         9.3100    1.1770   -9.0410 cl        1 0RR     -0.076400
     28 CAJ        11.4420    2.1260   -7.7830 ca        1 0RR     -0.131000
     29 CAI        12.1220    3.0080   -6.9480 ca        1 0RR     -0.109000
     30 CAK        11.4380    4.0530   -6.3320 ca        1 0RR     -0.131000
     31 CAV        10.0650    4.2060   -6.5480 ca        1 0RR      0.044400
     32 CLH         9.2880    5.5140   -5.7900 cl        1 0RR     -0.076400
     33 H2          1.9550   -1.2290   -1.9100 hc        1 0RR      0.038200
     34 H3          1.6420    0.5560   -1.9310 hc        1 0RR      0.038200
     35 H4          3.8370   -0.8880   -0.2620 h1        1 0RR      0.091700
     36 H5          3.5060    0.9120   -0.2670 h1        1 0RR      0.091700
     37 H6          3.8990    4.1310   -3.3050 ha        1 0RR      0.198000
     38 H7          4.9750    7.4650   -5.8550 ha        1 0RR      0.142000
     39 H8          6.6180    6.0720   -7.0810 ha        1 0RR      0.139000
     40 H9          7.5310    2.7430   -8.3800 h1        1 0RR      0.072200
     41 H10         7.7030    4.5270   -8.0170 h1        1 0RR      0.072200
     42 H11        11.9830    1.3010   -8.2710 ha        1 0RR      0.149500
     43 H12        13.2000    2.8780   -6.7730 ha        1 0RR      0.140000
     44 H13        11.9750    4.7530   -5.6730 ha        1 0RR      0.149500
@<TRIPOS>BOND
     1    1    2 1   
     2    2    3 1   
     3    2    4 1   
     4    4    5 1   
     5    4   33 1   
     6    4   34 1   
     7    5    6 1   
     8    5   35 1   
     9    5   36 1   
    10    6    7 1   
    11    6    9 1   
    12    7    8 2   
    13    7   12 1   
    14    9   10 2   
    15    9   11 1   
    16   11   12 1   
    17   12   13 2   
    18   13   14 1   
    19   13   16 1   
    20   14   15 2   
    21   14   23 1   
    22   16   17 ar  
    23   16   22 ar  
    24   17   18 ar  
    25   17   37 1   
    26   18   19 1   
    27   18   20 ar  
    28   20   21 ar  
    29   20   38 1   
    30   21   22 ar  
    31   21   39 1   
    32   22   23 1   
    33   23   24 1   
    34   24   25 1   
    35   24   40 1   
    36   24   41 1   
    37   25   26 ar  
    38   25   31 ar  
    39   26   27 1   
    40   26   28 ar  
    41   28   29 ar  
    42   28   42 1   
    43   29   30 ar  
    44   29   43 1   
    45   30   31 ar  
    46   30   44 1   
    47   31   32 1   
@<TRIPOS>SUBSTRUCTURE
     1 0RR         1 TEMP              0 ****  ****    0 ROOT
