@<TRIPOS>MOLECULE
0RR
   44    35     1     0     0
SMALL
bcc


@<TRIPOS>ATOM
      1 OAA        -4.9260   -5.7870    2.9630 o         1 0RR     -0.571000
      2 CAS        -4.2820   -5.6070    1.8960 c1        1 0RR      0.342000
      3 OAD        -4.5540   -6.2970    0.8710 o         1 0RR     -0.571000
      4 CAO        -3.1080   -4.6310    1.8690 c2        1 0RR     -0.258000
      5 CAP        -3.6380   -3.1940    1.8270 c3        1 0RR     -0.017000
      6 NBE        -2.5210   -2.2670    1.8090 n3        1 0RR     -0.247000
      7 CAX        -2.1400   -1.2480    0.5910 c1        1 0RR      0.313000
      8 OAB        -2.6800   -1.2050   -0.4980 o         1 0RR     -0.218000
      9 CAZ        -1.4940   -2.0940    2.9110 c1        1 0RR     -0.149000
     10 SAE        -1.3880   -3.0060    4.3110 s         1 0RR      0.000000
     11 SAR        -0.5450   -0.8260    2.5170 s         1 0RR      0.280000
     12 CBA        -0.9970   -0.3210    1.0770 c1        1 0RR     -0.253000
     13 CBB        -0.3900    0.6840    0.3380 c1        1 0RR     -0.054000
     14 CAY         0.6770    0.5040   -0.6510 c1        1 0RR      0.343000
     15 OAC         1.1950   -0.5460   -0.9550 o         1 0RR     -0.245000
     16 CBC        -0.7510    2.1370    0.3650 c1        1 0RR     -0.101000
     17 CAN        -1.6980    2.8530    1.1020 c1        1 0RR     -0.056000
     18 CAT        -1.8370    4.2240    0.9110 c1        1 0RR     -0.105000
     19 CLF        -3.0260    5.0080    1.9180 cl        1 0RR     -0.025000
     20 CAL        -1.0230    4.8920   -0.0260 c1        1 0RR     -0.124750
     21 CAM        -0.0780    4.1800   -0.7620 c1        1 0RR     -0.124750
     22 CBD         0.0630    2.8050   -0.5720 c1        1 0RR      0.102000
     23 NBF         0.9710    1.7850   -1.2200 n2        1 0RR     -0.295000
     24 CAQ         1.9010    2.0420   -2.3060 c3        1 0RR      0.037000
     25 CAW         3.1580    1.1690   -2.1260 c2        1 0RR     -0.089000
     26 CAU         3.2660   -0.0380   -2.8050 c1        1 0RR     -0.025000
     27 CLG         1.8860   -0.6820   -3.6610 cl        1 0RR     -0.001000
     28 CAJ         4.4430   -0.7740   -2.7340 c1        1 0RR     -0.127000
     29 CAI         5.5110   -0.3030   -1.9850 c1        1 0RR     -0.124750
     30 CAK         5.4050    0.9030   -1.3060 c1        1 0RR     -0.124750
     31 CAV         4.2260    1.6390   -1.3770 c1        1 0RR     -0.040000
     32 CLH         4.0870    3.1470   -0.5160 cl        1 0RR     -0.001000
     33 H2         -2.5620   -4.7550    2.6740 ha        1 0RR      0.078500
     34 H3         -2.5650   -4.8000    1.0810 ha        1 0RR      0.078500
     35 H4         -4.1760   -3.0700    1.0230 h1        1 0RR      0.131500
     36 H5         -4.1890   -3.0270    2.6170 h1        1 0RR      0.131500
     37 H6         -2.2280    2.4000    1.7880 ha        1 0RR      0.166000
     38 H7         -1.1220    5.8580   -0.1600 ha        1 0RR      0.143500
     39 H8          0.4870    4.6430   -1.4120 ha        1 0RR      0.143500
     40 H9          1.4710    1.8240   -3.1640 h1        1 0RR      0.110000
     41 H10         2.1560    2.9860   -2.3000 h1        1 0RR      0.110000
     42 H11         4.5180   -1.6210   -3.2110 ha        1 0RR      0.152000
     43 H12         6.3370   -0.8190   -1.9350 ha        1 0RR      0.143500
     44 H13         6.1580    1.2350   -0.7780 ha        1 0RR      0.143500
@<TRIPOS>BOND
     1    1    2 1   
     2    2    3 1   
     3    4    5 1   
     4    4   33 1   
     5    4   34 1   
     6    5    6 1   
     7    5   35 1   
     8    5   36 1   
     9    6    7 1   
    10    6    9 1   
    11    7    8 1   
    12    9   10 1   
    13   11   12 1   
    14   12   13 1   
    15   13   16 1   
    16   14   15 1   
    17   16   22 1   
    18   17   18 1   
    19   17   37 1   
    20   18   19 1   
    21   20   21 1   
    22   20   38 1   
    23   21   39 1   
    24   22   23 1   
    25   23   24 1   
    26   24   25 1   
    27   24   40 1   
    28   24   41 1   
    29   25   26 1   
    30   25   31 1   
    31   26   28 1   
    32   28   42 1   
    33   29   30 1   
    34   29   43 1   
    35   30   44 1   
@<TRIPOS>SUBSTRUCTURE
     1 0RR         1 TEMP              0 ****  ****    0 ROOT
