@<TRIPOS>MOLECULE
0RR
   44    47     1     0     0
SMALL
bcc


@<TRIPOS>ATOM
      1 OAA        -0.0830   -0.6520   -0.2620 o         1 0RR     -0.836300
      2 CAS         1.1390   -0.4200   -0.0610 c         1 0RR      0.921600
      3 OAD         1.6770   -0.2930    1.0750 o         1 0RR     -0.836300
      4 CAO         2.0350   -0.2820   -1.3170 c3        1 0RR     -0.228400
      5 CAP         3.4660   -0.0170   -0.8910 c3        1 0RR      0.099000
      6 NBE         4.4160    0.1590   -1.9880 n         1 0RR     -0.420400
      7 CAX         4.5910    1.4210   -2.6150 c         1 0RR      0.690700
      8 OAB         4.0920    2.4520   -2.1560 o         1 0RR     -0.551500
      9 CAZ         5.1190   -0.8760   -2.5650 c         1 0RR      0.348000
     10 SAE         5.2640   -2.3740   -2.2220 s         1 0RR     -0.289400
     11 SAR         6.0360   -0.2730   -3.9470 ss        1 0RR     -0.038200
     12 CBA         5.4890    1.3270   -3.8200 cc        1 0RR     -0.048600
     13 CBB         5.8200    2.3240   -4.6630 cd        1 0RR     -0.055400
     14 CAY         6.8260    2.0810   -5.7760 c         1 0RR      0.689700
     15 OAC         7.3780    1.0180   -6.0780 o         1 0RR     -0.575500
     16 CBC         5.4340    3.7290   -4.8010 ca        1 0RR     -0.090800
     17 CAN         4.5120    4.5220   -4.1430 ca        1 0RR     -0.044000
     18 CAT         4.3590    5.8630   -4.5430 ca        1 0RR     -0.023600
     19 ClF         3.2280    6.8400   -3.7300 cl        1 0RR     -0.093400
     20 CAL         5.1060    6.4060   -5.5850 ca        1 0RR     -0.089000
     21 CAM         6.0360    5.6210   -6.2740 ca        1 0RR     -0.176000
     22 CBD         6.2020    4.2930   -5.8920 ca        1 0RR      0.073600
     23 NBF         7.0460    3.3110   -6.4460 n         1 0RR     -0.380000
     24 CAQ         7.8780    3.4810   -7.6010 c3        1 0RR      0.159300
     25 CAW         9.3570    3.3130   -7.3630 ca        1 0RR     -0.091300
     26 CAU        10.0780    2.2770   -7.9820 ca        1 0RR      0.044400
     27 ClG         9.3250    1.1650   -9.0270 cl        1 0RR     -0.076400
     28 CAJ        11.4520    2.1230   -7.7660 ca        1 0RR     -0.131000
     29 CAI        12.1280    3.0100   -6.9330 ca        1 0RR     -0.109000
     30 CAK        11.4410    4.0550   -6.3230 ca        1 0RR     -0.131000
     31 CAV        10.0680    4.2050   -6.5430 ca        1 0RR      0.044400
     32 ClH         9.2860    5.5150   -5.7930 cl        1 0RR     -0.076400
     33 H2          1.9540   -1.2260   -1.9080 hc        1 0RR      0.038200
     34 H3          1.6380    0.5580   -1.9370 hc        1 0RR      0.038200
     35 H4          3.8300   -0.8760   -0.2560 h1        1 0RR      0.091700
     36 H5          3.4960    0.9240   -0.2690 h1        1 0RR      0.091700
     37 H6          3.8920    4.1310   -3.3180 ha        1 0RR      0.198000
     38 H7          4.9700    7.4580   -5.8780 ha        1 0RR      0.142000
     39 H8          6.6190    6.0630   -7.0940 ha        1 0RR      0.139000
     40 H9          7.5420    2.7300   -8.3770 h1        1 0RR      0.072200
     41 H10         7.7090    4.5160   -8.0200 h1        1 0RR      0.072200
     42 H11        11.9960    1.2970   -8.2490 ha        1 0RR      0.149500
     43 H12        13.2060    2.8830   -6.7550 ha        1 0RR      0.140000
     44 H13        11.9740    4.7590   -5.6650 ha        1 0RR      0.149500
@<TRIPOS>BOND
     1    1    2 1   
     2    2    3 1   
     3    2    4 1   
     4    4    5 1   
     5    4   33 1   
     6    4   34 1   
     7    5    6 1   
     8    5   35 1   
     9    5   36 1   
    10    6    7 1   
    11    6    9 1   
    12    7    8 2   
    13    7   12 1   
    14    9   10 2   
    15    9   11 1   
    16   11   12 1   
    17   12   13 2   
    18   13   14 1   
    19   13   16 1   
    20   14   15 2   
    21   14   23 1   
    22   16   17 ar  
    23   16   22 ar  
    24   17   18 ar  
    25   17   37 1   
    26   18   19 1   
    27   18   20 ar  
    28   20   21 ar  
    29   20   38 1   
    30   21   22 ar  
    31   21   39 1   
    32   22   23 1   
    33   23   24 1   
    34   24   25 1   
    35   24   40 1   
    36   24   41 1   
    37   25   26 ar  
    38   25   31 ar  
    39   26   27 1   
    40   26   28 ar  
    41   28   29 ar  
    42   28   42 1   
    43   29   30 ar  
    44   29   43 1   
    45   30   31 ar  
    46   30   44 1   
    47   31   32 1   
@<TRIPOS>SUBSTRUCTURE
     1 0RR         1 TEMP              0 ****  ****    0 ROOT
