@<TRIPOS>MOLECULE
0RR
   44    47     1     0     0
SMALL
bcc


@<TRIPOS>ATOM
      1 OAA        -0.0700   -0.6660   -0.2520 o         1 0RR     -0.836300
      2 CAS         1.1510   -0.4270   -0.0520 c         1 0RR      0.921600
      3 OAD         1.6870   -0.2920    1.0830 o         1 0RR     -0.836300
      4 CAO         2.0460   -0.2900   -1.3080 c3        1 0RR     -0.228400
      5 CAP         3.4760   -0.0160   -0.8830 c3        1 0RR      0.099000
      6 NBE         4.4260    0.1610   -1.9810 n         1 0RR     -0.420400
      7 CAX         4.5950    1.4200   -2.6130 c         1 0RR      0.690700
      8 OAB         4.0910    2.4510   -2.1580 o         1 0RR     -0.551500
      9 CAZ         5.1330   -0.8730   -2.5530 c         1 0RR      0.348000
     10 SAE         5.2860   -2.3690   -2.2040 s         1 0RR     -0.289400
     11 SAR         6.0490   -0.2720   -3.9370 ss        1 0RR     -0.038200
     12 CBA         5.4930    1.3260   -3.8170 cc        1 0RR     -0.048600
     13 CBB         5.8200    2.3210   -4.6630 cd        1 0RR     -0.055400
     14 CAY         6.8290    2.0790   -5.7750 c         1 0RR      0.689700
     15 OAC         7.3860    1.0180   -6.0720 o         1 0RR     -0.575500
     16 CBC         5.4280    3.7240   -4.8080 ca        1 0RR     -0.090800
     17 CAN         4.5010    4.5150   -4.1540 ca        1 0RR     -0.044000
     18 CAT         4.3420    5.8530   -4.5590 ca        1 0RR     -0.023600
     19 CLF         3.2050    6.8280   -3.7520 cl        1 0RR     -0.093400
     20 CAL         5.0870    6.3950   -5.6030 ca        1 0RR     -0.089000
     21 CAM         6.0210    5.6130   -6.2890 ca        1 0RR     -0.176000
     22 CBD         6.1940    4.2870   -5.9000 ca        1 0RR      0.073600
     23 NBF         7.0430    3.3080   -6.4500 n         1 0RR     -0.380000
     24 CAQ         7.8760    3.4770   -7.6040 c3        1 0RR      0.159300
     25 CAW         9.3560    3.3170   -7.3640 ca        1 0RR     -0.091300
     26 CAU        10.0820    2.2830   -7.9780 ca        1 0RR      0.044400
     27 CLG         9.3370    1.1630   -9.0200 cl        1 0RR     -0.076400
     28 CAJ        11.4570    2.1370   -7.7590 ca        1 0RR     -0.131000
     29 CAI        12.1270    3.0300   -6.9280 ca        1 0RR     -0.109000
     30 CAK        11.4340    4.0740   -6.3220 ca        1 0RR     -0.131000
     31 CAV        10.0600    4.2160   -6.5460 ca        1 0RR      0.044400
     32 CLH         9.2710    5.5250   -5.8010 cl        1 0RR     -0.076400
     33 H2          1.6450    0.5460   -1.9330 hc        1 0RR      0.038200
     34 H3          1.9700   -1.2370   -1.8960 hc        1 0RR      0.038200
     35 H4          3.5010    0.9280   -0.2660 h1        1 0RR      0.091700
     36 H5          3.8440   -0.8700   -0.2450 h1        1 0RR      0.091700
     37 H6          3.8820    4.1240   -3.3280 ha        1 0RR      0.198000
     38 H7          4.9450    7.4460   -5.9010 ha        1 0RR      0.142000
     39 H8          6.6020    6.0540   -7.1100 ha        1 0RR      0.139000
     40 H9          7.7020    4.5100   -8.0280 h1        1 0RR      0.072200
     41 H10         7.5450    2.7210   -8.3780 h1        1 0RR      0.072200
     42 H11        12.0060    1.3120   -8.2380 ha        1 0RR      0.149500
     43 H12        13.2060    2.9090   -6.7470 ha        1 0RR      0.140000
     44 H13        11.9620    4.7820   -5.6670 ha        1 0RR      0.149500
@<TRIPOS>BOND
     1    1    2 1   
     2    2    3 1   
     3    2    4 1   
     4    4    5 1   
     5    4   33 1   
     6    4   34 1   
     7    5    6 1   
     8    5   35 1   
     9    5   36 1   
    10    6    7 1   
    11    6    9 1   
    12    7    8 2   
    13    7   12 1   
    14    9   10 2   
    15    9   11 1   
    16   11   12 1   
    17   12   13 2   
    18   13   14 1   
    19   13   16 1   
    20   14   15 2   
    21   14   23 1   
    22   16   17 ar  
    23   16   22 ar  
    24   17   18 ar  
    25   17   37 1   
    26   18   19 1   
    27   18   20 ar  
    28   20   21 ar  
    29   20   38 1   
    30   21   22 ar  
    31   21   39 1   
    32   22   23 1   
    33   23   24 1   
    34   24   25 1   
    35   24   40 1   
    36   24   41 1   
    37   25   26 ar  
    38   25   31 ar  
    39   26   27 1   
    40   26   28 ar  
    41   28   29 ar  
    42   28   42 1   
    43   29   30 ar  
    44   29   43 1   
    45   30   31 ar  
    46   30   44 1   
    47   31   32 1   
@<TRIPOS>SUBSTRUCTURE
     1 0RR         1 TEMP              0 ****  ****    0 ROOT
