@<TRIPOS>MOLECULE
0RS
   63    52     1     0     0
SMALL
bcc


@<TRIPOS>ATOM
      1 C1         -4.8530    8.0960    1.1250 c3        1 0RS     -0.116500
      2 C2         -5.9050    6.5190    2.5510 c3        1 0RS     -0.116500
      3 C3         -4.3460    5.8650    0.9880 c3        1 0RS     -0.011000
      4 O1          3.5220   -0.8920   -1.8510 o         1 0RS     -0.278000
      5 C11        -0.4270    0.9290   -1.9670 c1        1 0RS     -0.050000
      6 C12         1.2230   -0.4180   -1.4210 c1        1 0RS     -0.063000
      7 C13        -0.1870    1.0820   -0.6370 c1        1 0RS     -0.050000
      8 C14         2.4280   -1.3460   -1.5320 c1        1 0RS      0.344000
      9 C15         2.2370   -2.8920   -1.3870 c1        1 0RS     -0.098000
     10 C16         1.2150   -3.5220   -2.0510 c1        1 0RS     -0.113000
     11 C17         1.0150   -4.8900   -1.8840 c1        1 0RS     -0.075000
     12 C18         2.8560   -4.9810   -0.3960 c1        1 0RS      0.019000
     13 C19         3.0600   -3.6100   -0.5610 c1        1 0RS     -0.126000
     14 C20         3.7620   -5.7670    0.4860 c1        1 0RS     -0.078000
     15 C21         3.3400   -5.5690    1.7890 c1        1 0RS     -0.043000
     16 C22         5.1050   -6.9430    2.5740 c1        1 0RS     -0.035000
     17 C23         5.5330   -7.1450    1.2620 c1        1 0RS     -0.100000
     18 C24         6.6490   -7.9840    0.9980 c1        1 0RS     -0.117667
     19 C25         7.0570   -8.2070   -0.3140 c1        1 0RS     -0.117667
     20 C26         6.3720   -7.6090   -1.3670 c1        1 0RS     -0.117667
     21 C27         5.2800   -6.7870   -1.1080 c1        1 0RS     -0.117667
     22 C28         4.8630   -6.5590    0.2300 c1        1 0RS      0.006000
     23 N1         -4.6700    6.8610    1.8540 n3        1 0RS     -0.267000
     24 C4         -2.8850    6.0060    0.5070 c3        1 0RS     -0.160000
     25 C5         -2.3660    4.8100   -0.2630 c3        1 0RS     -0.058000
     26 N2         -2.4920    3.6410    0.3980 n3        1 0RS     -0.217000
     27 C6         -3.7360    3.3790    0.8760 c3        1 0RS     -0.058000
     28 C7         -4.3210    4.5000    1.7020 c3        1 0RS     -0.160000
     29 C8         -2.0680    2.5600   -0.4550 c1        1 0RS      0.081000
     30 C9         -2.3130    2.4050   -1.8090 c1        1 0RS     -0.117667
     31 C10        -1.5020    1.5970   -2.5650 c1        1 0RS     -0.117667
     32 N3          0.4480    0.0000   -2.4490 n1        1 0RS     -0.135500
     33 N4          0.8310    0.2500   -0.2970 n1        1 0RS     -0.135500
     34 N5         -1.0140    1.9050    0.1320 n1        1 0RS     -0.119000
     35 N6          1.8390   -5.6060   -1.0570 n2        1 0RS     -0.109000
     36 N7          4.0130   -6.1570    2.8240 n1        1 0RS     -0.140000
     37 H1         -3.9730    8.5220    0.9710 h1        1 0RS      0.070000
     38 H2         -5.4270    8.7070    1.6500 h1        1 0RS      0.070000
     39 H3         -5.2800    7.9070    0.2630 h1        1 0RS      0.070000
     40 H4         -6.2780    7.3170    2.9570 h1        1 0RS      0.070000
     41 H5         -5.7190    5.8690    3.2320 h1        1 0RS      0.070000
     42 H6         -6.5430    6.1490    1.9180 h1        1 0RS      0.070000
     43 H7         -4.9480    5.8490    0.2440 h1        1 0RS      0.062000
     44 H8          0.6250   -3.0100   -2.6420 ha        1 0RS      0.164000
     45 H9          0.2810   -5.3420   -2.3600 ha        1 0RS      0.169000
     46 H10         3.8140   -3.1620   -0.1020 ha        1 0RS      0.163000
     47 H11         2.5610   -5.0080    1.9690 ha        1 0RS      0.173000
     48 H12         5.5810   -7.3610    3.3110 ha        1 0RS      0.160000
     49 H13         7.1250   -8.4000    1.7300 ha        1 0RS      0.142667
     50 H14         7.8350   -8.7920   -0.4980 ha        1 0RS      0.142667
     51 H15         6.6510   -7.7610   -2.2630 ha        1 0RS      0.142667
     52 H16         4.7980   -6.3660   -1.8490 ha        1 0RS      0.142667
     53 H18        -2.3240    6.1420    1.2750 hc        1 0RS      0.096250
     54 H19        -2.8220    6.7920   -0.0640 hc        1 0RS      0.096250
     55 H20        -2.8610    4.7460   -1.1160 h1        1 0RS      0.084750
     56 H21        -1.3980    4.9580   -0.4650 h1        1 0RS      0.084750
     57 H22        -4.3280    3.2090    0.1230 h1        1 0RS      0.084750
     58 H23        -3.6950    2.5760    1.4270 h1        1 0RS      0.084750
     59 H24        -3.8040    4.5870    2.5060 hc        1 0RS      0.096250
     60 H25        -5.2230    4.2640    1.9410 hc        1 0RS      0.096250
     61 H26        -3.0760    2.8540   -2.2220 ha        1 0RS      0.142667
     62 H27        -1.6750    1.4870   -3.5260 ha        1 0RS      0.142667
     63 H28         0.5390   -0.2540   -3.3370 DU        1 0RS      0.275000
@<TRIPOS>BOND
     1    1   23 1   
     2    1   37 1   
     3    1   38 1   
     4    1   39 1   
     5    2   23 1   
     6    2   40 1   
     7    2   41 1   
     8    2   42 1   
     9    3   23 1   
    10    3   24 1   
    11    3   28 1   
    12    3   43 1   
    13    4    8 1   
    14    5    7 1   
    15    6   32 1   
    16    6   33 1   
    17    9   10 1   
    18   10   44 1   
    19   11   35 1   
    20   11   45 1   
    21   12   13 1   
    22   12   35 1   
    23   13   46 1   
    24   14   22 1   
    25   15   36 1   
    26   15   47 1   
    27   16   17 1   
    28   16   48 1   
    29   17   22 1   
    30   18   19 1   
    31   18   49 1   
    32   19   50 1   
    33   20   21 1   
    34   20   51 1   
    35   21   52 1   
    36   24   25 1   
    37   24   53 1   
    38   24   54 1   
    39   25   26 1   
    40   25   55 1   
    41   25   56 1   
    42   26   27 1   
    43   26   29 1   
    44   27   28 1   
    45   27   57 1   
    46   27   58 1   
    47   28   59 1   
    48   28   60 1   
    49   29   34 1   
    50   30   31 1   
    51   30   61 1   
    52   31   62 1   
@<TRIPOS>SUBSTRUCTURE
     1 0RS         1 TEMP              0 ****  ****    0 ROOT
