@<TRIPOS>MOLECULE
0RS
   64    69     1     0     0
SMALL
bcc


@<TRIPOS>ATOM
      1 C1          0.1140   -1.6870    0.9280 c3        1 0RS      0.082100
      2 C2          1.7000    0.1490    1.1500 c3        1 0RS      0.082100
      3 C3          2.0560   -1.5610   -0.6160 c3        1 0RS      0.128500
      4 O1          8.9250   -7.1260   -6.5850 o         1 0RS     -0.495100
      5 C11         5.9500   -4.3380   -5.7290 ca        1 0RS     -0.163500
      6 C12         7.5800   -5.7850   -5.1830 cc        1 0RS      0.359800
      7 C13         6.0140   -4.5370   -4.2730 ca        1 0RS      0.520300
      8 C14         8.6910   -6.7600   -5.4300 c         1 0RS      0.531400
      9 C15         9.4320   -7.2520   -4.2560 ca        1 0RS     -0.122600
     10 C16         9.8520   -6.4040   -3.2280 ca        1 0RS     -0.185300
     11 C17        10.5720   -6.9730   -2.1590 ca        1 0RS      0.389200
     12 C18        10.4750   -9.0930   -3.0700 cp        1 0RS      0.462800
     13 C19         9.7560   -8.6140   -4.1890 ca        1 0RS     -0.186300
     14 C20        10.8300  -10.5230   -3.0380 cp        1 0RS     -0.255800
     15 C21        11.6080  -11.0400   -4.0680 ca        1 0RS      0.406200
     16 C22        11.6310  -13.1590   -3.1680 ca        1 0RS      0.436200
     17 C23        10.8230  -12.7520   -2.0560 ca        1 0RS     -0.164300
     18 C24        10.4370  -13.6620   -1.0400 ca        1 0RS     -0.099000
     19 C25         9.6530  -13.2380    0.0060 ca        1 0RS     -0.129000
     20 C26         9.2250  -11.8920    0.0720 ca        1 0RS     -0.110000
     21 C27         9.5870  -10.9900   -0.9000 ca        1 0RS     -0.119000
     22 C28        10.4060  -11.3940   -1.9880 ca        1 0RS      0.018000
     23 N1          1.0360   -0.7790    0.1990 nx        1 0RS     -0.682400
     24 C4          1.3730   -2.5210   -1.5970 c3        1 0RS     -0.103900
     25 C5          2.4320   -3.2770   -2.4040 c3        1 0RS      0.163800
     26 N2          3.3260   -2.3680   -3.1140 nh        1 0RS     -0.710300
     27 C6          3.9960   -1.4480   -2.2000 c3        1 0RS      0.163800
     28 C7          2.9940   -0.6240   -1.3850 c3        1 0RS     -0.103900
     29 C8          4.2640   -3.0770   -3.9670 ca        1 0RS      0.538200
     30 C9          4.1460   -2.8340   -5.3760 ca        1 0RS     -0.189300
     31 C10         4.9950   -3.4670   -6.2670 ca        1 0RS     -0.087000
     32 N3          6.9490   -5.1310   -6.2690 na        1 0RS     -0.237300
     33 N4          7.0550   -5.4560   -3.9830 nd        1 0RS     -0.585700
     34 N5          5.1760   -3.9080   -3.4100 nb        1 0RS     -0.632000
     35 N6         10.8800   -8.2760   -2.0630 nb        1 0RS     -0.626000
     36 N7         12.0080  -12.3450   -4.1410 nb        1 0RS     -0.662000
     37 H1         -0.5370   -1.0850    1.6190 hx        1 0RS      0.104367
     38 H2         -0.5390   -2.2320    0.1950 hx        1 0RS      0.104367
     39 H3          0.7090   -2.4270    1.5260 hx        1 0RS      0.104367
     40 H4          0.9260    0.6160    1.8190 hx        1 0RS      0.104367
     41 H5          2.2270    0.9610    0.5810 hx        1 0RS      0.104367
     42 H6          2.4410   -0.4180    1.7740 hx        1 0RS      0.104367
     43 H7          2.6590   -2.1600    0.1300 hx        1 0RS      0.105700
     44 H8          9.6400   -5.3270   -3.2380 ha        1 0RS      0.157000
     45 H9         10.9290   -6.3390   -1.3250 h4        1 0RS      0.033100
     46 H10         9.4610   -9.3020   -4.9960 ha        1 0RS      0.166000
     47 H11        11.9580  -10.4010   -4.8990 h4        1 0RS      0.028100
     48 H12        11.9700  -14.2100   -3.2390 h4        1 0RS      0.029100
     49 H13        10.7760  -14.7070   -1.1080 ha        1 0RS      0.140000
     50 H14         9.3510  -13.9370    0.8010 ha        1 0RS      0.139000
     51 H15         8.5950  -11.5750    0.9170 ha        1 0RS      0.135000
     52 H16         9.2460   -9.9460   -0.8410 ha        1 0RS      0.143000
     53 H18         0.7630   -3.2860   -1.0490 hc        1 0RS      0.069200
     54 H19         0.6980   -1.9550   -2.2910 hc        1 0RS      0.069200
     55 H20         2.9850   -3.9700   -1.7040 h1        1 0RS      0.071700
     56 H21         1.9050   -3.9090   -3.1730 h1        1 0RS      0.071700
     57 H22         4.6880   -1.9780   -1.4820 h1        1 0RS      0.071700
     58 H23         4.6150   -0.7390   -2.8200 h1        1 0RS      0.071700
     59 H24         3.5860    0.0180   -0.6820 hc        1 0RS      0.069200
     60 H25         2.4050    0.0430   -2.0690 hc        1 0RS      0.069200
     61 H26         3.3760   -2.1410   -5.7450 ha        1 0RS      0.162000
     62 H27         4.9190   -3.2930   -7.3510 ha        1 0RS      0.159000
     63 H28         7.1640   -5.2700   -7.2240 hn        1 0RS      0.335700
     64 H111        0.4810   -0.2200   -0.4630 hn        1 0RS      0.446800
@<TRIPOS>BOND
     1    1   23 1   
     2    1   37 1   
     3    1   38 1   
     4    1   39 1   
     5    2   23 1   
     6    2   40 1   
     7    2   41 1   
     8    2   42 1   
     9    3   23 1   
    10    3   24 1   
    11    3   28 1   
    12    3   43 1   
    13    4    8 2   
    14    5    7 ar  
    15    5   31 ar  
    16    5   32 1   
    17    6    8 1   
    18    6   32 1   
    19    6   33 2   
    20    7   33 1   
    21    7   34 ar  
    22    8    9 1   
    23    9   10 ar  
    24    9   13 ar  
    25   10   11 ar  
    26   10   44 1   
    27   11   35 ar  
    28   11   45 1   
    29   12   13 ar  
    30   12   14 1   
    31   12   35 ar  
    32   13   46 1   
    33   14   15 ar  
    34   14   22 ar  
    35   15   36 ar  
    36   15   47 1   
    37   16   17 ar  
    38   16   36 ar  
    39   16   48 1   
    40   17   18 ar  
    41   17   22 ar  
    42   18   19 ar  
    43   18   49 1   
    44   19   20 ar  
    45   19   50 1   
    46   20   21 ar  
    47   20   51 1   
    48   21   22 ar  
    49   21   52 1   
    50   23   64 1   
    51   24   25 1   
    52   24   53 1   
    53   24   54 1   
    54   25   26 1   
    55   25   55 1   
    56   25   56 1   
    57   26   27 1   
    58   26   29 1   
    59   27   28 1   
    60   27   57 1   
    61   27   58 1   
    62   28   59 1   
    63   28   60 1   
    64   29   30 ar  
    65   29   34 ar  
    66   30   31 ar  
    67   30   61 1   
    68   31   62 1   
    69   32   63 1   
@<TRIPOS>SUBSTRUCTURE
     1 0RS         1 TEMP              0 ****  ****    0 ROOT
