@<TRIPOS>MOLECULE
0RS
   64    69     1     0     0
SMALL
bcc


@<TRIPOS>ATOM
      1 C1          0.1140   -1.6690    0.9110 c3        1 0RS      0.082100
      2 C2          1.7110    0.1570    1.1480 c3        1 0RS      0.082100
      3 C3          2.0650   -1.5490   -0.6240 c3        1 0RS      0.128500
      4 O1          8.9300   -7.1330   -6.5800 o         1 0RS     -0.495100
      5 C11         5.9620   -4.3350   -5.7300 ca        1 0RS     -0.163500
      6 C12         7.5860   -5.7870   -5.1810 cc        1 0RS      0.359800
      7 C13         6.0220   -4.5340   -4.2740 ca        1 0RS      0.520300
      8 C14         8.6950   -6.7640   -5.4260 c         1 0RS      0.531400
      9 C15         9.4340   -7.2560   -4.2510 ca        1 0RS     -0.122600
     10 C16         9.8560   -6.4080   -3.2230 ca        1 0RS     -0.185300
     11 C17        10.5740   -6.9770   -2.1530 ca        1 0RS      0.389200
     12 C18        10.4730   -9.0980   -3.0620 cp        1 0RS      0.462800
     13 C19         9.7550   -8.6190   -4.1820 ca        1 0RS     -0.186300
     14 C20        10.8250  -10.5280   -3.0270 cp        1 0RS     -0.255800
     15 C21        11.6020  -11.0490   -4.0570 ca        1 0RS      0.406200
     16 C22        11.6210  -13.1660   -3.1540 ca        1 0RS      0.436200
     17 C23        10.8140  -12.7560   -2.0420 ca        1 0RS     -0.164300
     18 C24        10.4260  -13.6640   -1.0250 ca        1 0RS     -0.099000
     19 C25         9.6440  -13.2380    0.0210 ca        1 0RS     -0.129000
     20 C26         9.2180  -11.8900    0.0850 ca        1 0RS     -0.110000
     21 C27         9.5810  -10.9910   -0.8890 ca        1 0RS     -0.119000
     22 C28        10.4000  -11.3970   -1.9770 ca        1 0RS      0.018000
     23 N1          1.0460   -0.7640    0.1900 n4        1 0RS     -0.682400
     24 C4          1.3810   -2.5050   -1.6070 c3        1 0RS     -0.103900
     25 C5          2.4390   -3.2640   -2.4120 c3        1 0RS      0.163800
     26 N2          3.3390   -2.3580   -3.1190 nh        1 0RS     -0.710300
     27 C6          4.0090   -1.4410   -2.2030 c3        1 0RS      0.163800
     28 C7          3.0080   -0.6140   -1.3900 c3        1 0RS     -0.103900
     29 C8          4.2760   -3.0690   -3.9700 ca        1 0RS      0.538200
     30 C9          4.1610   -2.8270   -5.3800 ca        1 0RS     -0.189300
     31 C10         5.0090   -3.4620   -6.2700 ca        1 0RS     -0.087000
     32 N3          6.9600   -5.1310   -6.2680 na        1 0RS     -0.237300
     33 N4          7.0610   -5.4550   -3.9820 nd        1 0RS     -0.585700
     34 N5          5.1850   -3.9030   -3.4120 nb        1 0RS     -0.632000
     35 N6         10.8780   -8.2810   -2.0550 nb        1 0RS     -0.626000
     36 N7         12.0000  -12.3540   -4.1280 nb        1 0RS     -0.662000
     37 H1         -0.5390   -2.2050    0.1720 hx        1 0RS      0.104367
     38 H2          0.7020   -2.4160    1.5070 hx        1 0RS      0.104367
     39 H3         -0.5340   -1.0650    1.6020 hx        1 0RS      0.104367
     40 H4          2.4440   -0.4180    1.7740 hx        1 0RS      0.104367
     41 H5          0.9380    0.6270    1.8140 hx        1 0RS      0.104367
     42 H6          2.2480    0.9660    0.5840 hx        1 0RS      0.104367
     43 H7          2.6650   -2.1500    0.1230 hx        1 0RS      0.105700
     44 H8          9.6450   -5.3300   -3.2340 ha        1 0RS      0.157000
     45 H9         10.9310   -6.3430   -1.3200 h4        1 0RS      0.033100
     46 H10         9.4600   -9.3070   -4.9880 ha        1 0RS      0.166000
     47 H11        11.9530  -10.4110   -4.8890 h4        1 0RS      0.028100
     48 H12        11.9580  -14.2180   -3.2240 h4        1 0RS      0.029100
     49 H13        10.7640  -14.7100   -1.0920 ha        1 0RS      0.140000
     50 H14         9.3410  -13.9350    0.8160 ha        1 0RS      0.139000
     51 H15         8.5880  -11.5710    0.9290 ha        1 0RS      0.135000
     52 H16         9.2420   -9.9460   -0.8310 ha        1 0RS      0.143000
     53 H18         0.7100   -1.9370   -2.3020 hc        1 0RS      0.069200
     54 H19         0.7680   -3.2690   -1.0610 hc        1 0RS      0.069200
     55 H20         1.9120   -3.8940   -3.1830 h1        1 0RS      0.071700
     56 H21         2.9890   -3.9600   -1.7120 h1        1 0RS      0.071700
     57 H22         4.6970   -1.9730   -1.4830 h1        1 0RS      0.071700
     58 H23         4.6320   -0.7340   -2.8210 h1        1 0RS      0.071700
     59 H24         2.4230    0.0550   -2.0750 hc        1 0RS      0.069200
     60 H25         3.6000    0.0250   -0.6850 hc        1 0RS      0.069200
     61 H26         3.3930   -2.1310   -5.7500 ha        1 0RS      0.162000
     62 H27         4.9360   -3.2870   -7.3530 ha        1 0RS      0.159000
     63 H28         7.1750   -5.2710   -7.2230 hn        1 0RS      0.335700
     64 H111        0.4980   -0.1980   -0.4730 hn        1 0RS      0.446800
@<TRIPOS>BOND
     1    1   23 1   
     2    1   37 1   
     3    1   38 1   
     4    1   39 1   
     5    2   23 1   
     6    2   40 1   
     7    2   41 1   
     8    2   42 1   
     9    3   23 1   
    10    3   24 1   
    11    3   28 1   
    12    3   43 1   
    13    4    8 2   
    14    5    7 ar  
    15    5   31 ar  
    16    5   32 1   
    17    6    8 1   
    18    6   32 1   
    19    6   33 2   
    20    7   33 1   
    21    7   34 ar  
    22    8    9 1   
    23    9   10 ar  
    24    9   13 ar  
    25   10   11 ar  
    26   10   44 1   
    27   11   35 ar  
    28   11   45 1   
    29   12   13 ar  
    30   12   14 1   
    31   12   35 ar  
    32   13   46 1   
    33   14   15 ar  
    34   14   22 ar  
    35   15   36 ar  
    36   15   47 1   
    37   16   17 ar  
    38   16   36 ar  
    39   16   48 1   
    40   17   18 ar  
    41   17   22 ar  
    42   18   19 ar  
    43   18   49 1   
    44   19   20 ar  
    45   19   50 1   
    46   20   21 ar  
    47   20   51 1   
    48   21   22 ar  
    49   21   52 1   
    50   23   64 1   
    51   24   25 1   
    52   24   53 1   
    53   24   54 1   
    54   25   26 1   
    55   25   55 1   
    56   25   56 1   
    57   26   27 1   
    58   26   29 1   
    59   27   28 1   
    60   27   57 1   
    61   27   58 1   
    62   28   59 1   
    63   28   60 1   
    64   29   30 ar  
    65   29   34 ar  
    66   30   31 ar  
    67   30   61 1   
    68   31   62 1   
    69   32   63 1   
@<TRIPOS>SUBSTRUCTURE
     1 0RS         1 TEMP              0 ****  ****    0 ROOT
