@<TRIPOS>MOLECULE
0RS
   63    68     1     0     0
SMALL
bcc


@<TRIPOS>ATOM
      1 C1         -8.6770   -3.2560   -1.7810 c3        1 0RS      0.160600
      2 C2         -8.6480   -3.4900    0.6110 c3        1 0RS      0.160600
      3 C3         -7.1440   -1.8950   -0.4990 c3        1 0RS      0.187500
      4 O1          2.0310    3.7850    0.6140 o         1 0RS     -0.514100
      5 C11        -2.0350    2.9260    0.1920 ca        1 0RS     -0.194500
      6 C12         0.1030    2.4160    0.6400 cc        1 0RS      0.333800
      7 C13        -1.8830    1.4900    0.4340 ca        1 0RS      0.531300
      8 C14         1.5620    2.6620    0.8280 c         1 0RS      0.533400
      9 C15         2.3920    1.5150    1.2430 ca        1 0RS     -0.117600
     10 C16         2.0130    0.6540    2.2760 ca        1 0RS     -0.177300
     11 C17         2.8830   -0.4050    2.6050 ca        1 0RS      0.387200
     12 C18         4.4150    0.2030    0.9870 cp        1 0RS      0.450800
     13 C19         3.6160    1.3000    0.5940 ca        1 0RS     -0.188300
     14 C20         5.7050    0.0020    0.3030 cp        1 0RS     -0.242800
     15 C21         6.6880    0.9790    0.4170 ca        1 0RS      0.400200
     16 C22         8.1850   -0.1870   -0.8870 ca        1 0RS      0.428200
     17 C23         7.2560   -1.2620   -1.0860 ca        1 0RS     -0.163300
     18 C24         7.5810   -2.3980   -1.8680 ca        1 0RS     -0.104000
     19 C25         6.6600   -3.4030   -2.0430 ca        1 0RS     -0.129000
     20 C26         5.3810   -3.3060   -1.4450 ca        1 0RS     -0.113000
     21 C27         5.0430   -2.2150   -0.6810 ca        1 0RS     -0.113000
     22 C28         5.9770   -1.1640   -0.4740 ca        1 0RS      0.014000
     23 N1         -8.4260   -2.6110   -0.5110 n3        1 0RS     -0.743600
     24 C4         -7.2930   -0.5040   -1.1430 c3        1 0RS     -0.081900
     25 C5         -5.9410    0.2030   -1.2020 c3        1 0RS      0.178800
     26 N2         -5.3110    0.3160    0.1100 nh        1 0RS     -0.727300
     27 C6         -5.1910   -0.9690    0.7880 c3        1 0RS      0.178800
     28 C7         -6.5330   -1.6950    0.8940 c3        1 0RS     -0.081900
     29 C8         -4.1390    1.1410    0.1040 ca        1 0RS      0.602200
     30 C9         -4.3530    2.5510   -0.1430 ca        1 0RS     -0.218300
     31 C10        -3.3060    3.4450   -0.1010 ca        1 0RS     -0.084000
     32 N3         -0.7720    3.4820    0.3320 na        1 0RS     -0.234300
     33 N4         -0.5210    1.2170    0.7110 nd        1 0RS     -0.587700
     34 N5         -2.9230    0.6110    0.3760 nb        1 0RS     -0.647000
     35 N6          4.0510   -0.6420    1.9870 nb        1 0RS     -0.632000
     36 N7          7.9200    0.8940   -0.1710 nb        1 0RS     -0.664000
     37 H1         -9.7320   -3.6380   -1.7880 h1        1 0RS      0.030700
     38 H2         -8.5630   -2.5070   -2.6070 h1        1 0RS      0.030700
     39 H3         -7.9840   -4.1190   -1.9860 h1        1 0RS      0.030700
     40 H4         -8.6780   -2.8850    1.5540 h1        1 0RS      0.030700
     41 H5         -9.6450   -3.9920    0.4850 h1        1 0RS      0.030700
     42 H6         -7.8640   -4.2900    0.7180 h1        1 0RS      0.030700
     43 H7         -6.3810   -2.4730   -1.1120 h1        1 0RS      0.023700
     44 H8          1.0680    0.7810    2.8220 ha        1 0RS      0.164000
     45 H9          2.6230   -1.1100    3.4160 h4        1 0RS      0.032100
     46 H10         3.9520    1.9730   -0.2070 ha        1 0RS      0.162000
     47 H11         6.5190    1.8970    1.0090 h4        1 0RS      0.028100
     48 H12         9.1870   -0.2430   -1.3510 h4        1 0RS      0.023100
     49 H13         8.5790   -2.4570   -2.3290 ha        1 0RS      0.136000
     50 H14         6.9030   -4.2890   -2.6470 ha        1 0RS      0.136000
     51 H15         4.6570   -4.1200   -1.6010 ha        1 0RS      0.137000
     52 H16         4.0450   -2.1460   -0.2220 ha        1 0RS      0.148000
     53 H18        -7.6780   -0.5930   -2.1910 hc        1 0RS      0.056700
     54 H19        -8.0260    0.1070   -0.5570 hc        1 0RS      0.056700
     55 H20        -5.2730   -0.3530   -1.9240 h1        1 0RS      0.045450
     56 H21        -6.0960    1.2410   -1.6100 h1        1 0RS      0.045450
     57 H22        -4.4570   -1.6500    0.2650 h1        1 0RS      0.045450
     58 H23        -4.8050   -0.7750    1.8270 h1        1 0RS      0.045450
     59 H24        -7.2370   -1.1120    1.5420 hc        1 0RS      0.056700
     60 H25        -6.3390   -2.6830    1.3860 hc        1 0RS      0.056700
     61 H26        -5.3730    2.9120   -0.3470 ha        1 0RS      0.156000
     62 H27        -3.4590    4.5180   -0.2820 ha        1 0RS      0.146000
     63 H28        -0.5080    4.4250    0.2120 hn        1 0RS      0.325700
@<TRIPOS>BOND
     1    1   23 1   
     2    1   37 1   
     3    1   38 1   
     4    1   39 1   
     5    2   23 1   
     6    2   40 1   
     7    2   41 1   
     8    2   42 1   
     9    3   23 1   
    10    3   24 1   
    11    3   28 1   
    12    3   43 1   
    13    4    8 2   
    14    5    7 ar  
    15    5   31 ar  
    16    5   32 1   
    17    6    8 1   
    18    6   32 1   
    19    6   33 2   
    20    7   33 1   
    21    7   34 ar  
    22    8    9 1   
    23    9   10 ar  
    24    9   13 ar  
    25   10   11 ar  
    26   10   44 1   
    27   11   35 ar  
    28   11   45 1   
    29   12   13 ar  
    30   12   14 1   
    31   12   35 ar  
    32   13   46 1   
    33   14   15 ar  
    34   14   22 ar  
    35   15   36 ar  
    36   15   47 1   
    37   16   17 ar  
    38   16   36 ar  
    39   16   48 1   
    40   17   18 ar  
    41   17   22 ar  
    42   18   19 ar  
    43   18   49 1   
    44   19   20 ar  
    45   19   50 1   
    46   20   21 ar  
    47   20   51 1   
    48   21   22 ar  
    49   21   52 1   
    50   24   25 1   
    51   24   53 1   
    52   24   54 1   
    53   25   26 1   
    54   25   55 1   
    55   25   56 1   
    56   26   27 1   
    57   26   29 1   
    58   27   28 1   
    59   27   57 1   
    60   27   58 1   
    61   28   59 1   
    62   28   60 1   
    63   29   30 ar  
    64   29   34 ar  
    65   30   31 ar  
    66   30   61 1   
    67   31   62 1   
    68   32   63 1   
@<TRIPOS>SUBSTRUCTURE
     1 0RS         1 TEMP              0 ****  ****    0 ROOT
