@<TRIPOS>MOLECULE
0RS
   64    69     1     0     0
SMALL
bcc


@<TRIPOS>ATOM
      1 C1          0.1830   -1.6250    0.9730 c3        1 0RS      0.082100
      2 C2          1.7620    0.2250    1.1120 c3        1 0RS      0.082100
      3 C3          2.0890   -1.5280   -0.6180 c3        1 0RS      0.128500
      4 O1          8.8510   -7.2070   -6.6020 o         1 0RS     -0.495100
      5 C11         5.8900   -4.4040   -5.7470 ca        1 0RS     -0.163500
      6 C12         7.5290   -5.8400   -5.2020 cc        1 0RS      0.359800
      7 C13         5.9790   -4.5740   -4.2880 ca        1 0RS      0.520300
      8 C14         8.6360   -6.8190   -5.4500 c         1 0RS      0.531400
      9 C15         9.3970   -7.2900   -4.2810 ca        1 0RS     -0.122600
     10 C16         9.8360   -6.4230   -3.2760 ca        1 0RS     -0.185300
     11 C17        10.5740   -6.9720   -2.2090 ca        1 0RS      0.389200
     12 C18        10.4600   -9.1090   -3.0790 cp        1 0RS      0.462800
     13 C19         9.7220   -8.6510   -4.1940 ca        1 0RS     -0.186300
     14 C20        10.8150  -10.5380   -3.0250 cp        1 0RS     -0.255800
     15 C21        11.5750  -11.0750   -4.0590 ca        1 0RS      0.406200
     16 C22        11.6120  -13.1770   -3.1200 ca        1 0RS      0.436200
     17 C23        10.8240  -12.7480   -2.0020 ca        1 0RS     -0.164300
     18 C24        10.4540  -13.6390   -0.9630 ca        1 0RS     -0.099000
     19 C25         9.6890  -13.1950    0.0890 ca        1 0RS     -0.129000
     20 C26         9.2620  -11.8470    0.1360 ca        1 0RS     -0.110000
     21 C27         9.6080  -10.9640   -0.8590 ca        1 0RS     -0.119000
     22 C28        10.4090  -11.3890   -1.9530 ca        1 0RS      0.018000
     23 N1          1.0830   -0.7310    0.2000 n4        1 0RS     -0.682400
     24 C4          1.3880   -2.5070   -1.5670 c3        1 0RS     -0.104400
     25 C5          2.4320   -3.2790   -2.3780 c3        1 0RS      0.163800
     26 N2          3.3130   -2.3840   -3.1230 nh        1 0RS     -0.710300
     27 C6          3.9980   -1.4460   -2.2390 c3        1 0RS      0.163800
     28 C7          3.0120   -0.6060   -1.4230 c3        1 0RS     -0.104400
     29 C8          4.2350   -3.1090   -3.9780 ca        1 0RS      0.538200
     30 C9          4.0910   -2.8940   -5.3890 ca        1 0RS     -0.189300
     31 C10         4.9240   -3.5440   -6.2840 ca        1 0RS     -0.087000
     32 N3          6.8790   -5.2080   -6.2890 na        1 0RS     -0.237300
     33 N4          7.0260   -5.4880   -3.9990 nd        1 0RS     -0.585700
     34 N5          5.1580   -3.9290   -3.4220 nb        1 0RS     -0.632000
     35 N6         10.8830   -8.2740   -2.0950 nb        1 0RS     -0.626000
     36 N7         11.9740  -12.3820   -4.1140 nb        1 0RS     -0.662000
     37 H1         -0.4580   -1.0090    1.6610 hx        1 0RS      0.104367
     38 H2         -0.4810   -2.1940    0.2680 hx        1 0RS      0.104367
     39 H3          0.7960   -2.3440    1.5780 hx        1 0RS      0.104367
     40 H4          2.2680    1.0270    0.5110 hx        1 0RS      0.104367
     41 H5          1.0020    0.7010    1.7890 hx        1 0RS      0.104367
     42 H6          2.5230   -0.3210    1.7300 hx        1 0RS      0.104367
     43 H7          2.7060   -2.1120    0.1290 hx        1 0RS      0.105700
     44 H8          9.6240   -5.3460   -3.3030 ha        1 0RS      0.157000
     45 H9         10.9460   -6.3230   -1.3940 h4        1 0RS      0.033100
     46 H10         9.4120   -9.3540   -4.9820 ha        1 0RS      0.166000
     47 H11        11.9110  -10.4520   -4.9080 h4        1 0RS      0.028100
     48 H12        11.9490  -14.2290   -3.1770 h4        1 0RS      0.029100
     49 H13        10.7920  -14.6850   -1.0170 ha        1 0RS      0.140000
     50 H14         9.4000  -13.8790    0.9010 ha        1 0RS      0.139000
     51 H15         8.6470  -11.5140    0.9860 ha        1 0RS      0.135000
     52 H16         9.2690   -9.9190   -0.8130 ha        1 0RS      0.143000
     53 H18         0.7000   -1.9550   -2.2590 hc        1 0RS      0.069200
     54 H19         0.7890   -3.2610   -0.9940 hc        1 0RS      0.069200
     55 H20         1.8910   -3.9260   -3.1250 h1        1 0RS      0.071700
     56 H21         2.9990   -3.9580   -1.6750 h1        1 0RS      0.071700
     57 H22         4.7040   -1.9610   -1.5240 h1        1 0RS      0.071700
     58 H23         4.6050   -0.7490   -2.8850 h1        1 0RS      0.071700
     59 H24         3.6160    0.0490   -0.7430 hc        1 0RS      0.069200
     60 H25         2.4100    0.0470   -2.1080 hc        1 0RS      0.069200
     61 H26         3.3140   -2.2080   -5.7580 ha        1 0RS      0.162000
     62 H27         4.8280   -3.3900   -7.3690 ha        1 0RS      0.159000
     63 H28         7.0760   -5.3650   -7.2450 hn        1 0RS      0.335700
     64 H111        0.5100   -0.1920   -0.4630 hn        1 0RS      0.446800
@<TRIPOS>BOND
     1    1   23 1   
     2    1   37 1   
     3    1   38 1   
     4    1   39 1   
     5    2   23 1   
     6    2   40 1   
     7    2   41 1   
     8    2   42 1   
     9    3   23 1   
    10    3   24 1   
    11    3   28 1   
    12    3   43 1   
    13    4    8 2   
    14    5    7 ar  
    15    5   31 ar  
    16    5   32 1   
    17    6    8 1   
    18    6   32 1   
    19    6   33 2   
    20    7   33 1   
    21    7   34 ar  
    22    8    9 1   
    23    9   10 ar  
    24    9   13 ar  
    25   10   11 ar  
    26   10   44 1   
    27   11   35 ar  
    28   11   45 1   
    29   12   13 ar  
    30   12   14 1   
    31   12   35 ar  
    32   13   46 1   
    33   14   15 ar  
    34   14   22 ar  
    35   15   36 ar  
    36   15   47 1   
    37   16   17 ar  
    38   16   36 ar  
    39   16   48 1   
    40   17   18 ar  
    41   17   22 ar  
    42   18   19 ar  
    43   18   49 1   
    44   19   20 ar  
    45   19   50 1   
    46   20   21 ar  
    47   20   51 1   
    48   21   22 ar  
    49   21   52 1   
    50   23   64 1   
    51   24   25 1   
    52   24   53 1   
    53   24   54 1   
    54   25   26 1   
    55   25   55 1   
    56   25   56 1   
    57   26   27 1   
    58   26   29 1   
    59   27   28 1   
    60   27   57 1   
    61   27   58 1   
    62   28   59 1   
    63   28   60 1   
    64   29   30 ar  
    65   29   34 ar  
    66   30   31 ar  
    67   30   61 1   
    68   31   62 1   
    69   32   63 1   
@<TRIPOS>SUBSTRUCTURE
     1 0RS         1 TEMP              0 ****  ****    0 ROOT
