@<TRIPOS>MOLECULE
0RT
   47    50     1     0     0
SMALL
bcc


@<TRIPOS>ATOM
      1 FAC        -0.0380    0.0250    1.0450 f         1 0RT     -0.236967
      2 CAZ         1.1740    0.0590    0.4070 c3        1 0RT      0.628900
      3 FAD         2.1070    0.0290    1.4120 f         1 0RT     -0.236967
      4 FAE         1.2790   -1.1750   -0.1900 f         1 0RT     -0.236967
      5 CAM         1.3520    1.2220   -0.6130 c3        1 0RT     -0.039200
      6 CAT         1.2250    2.5540   -0.0120 cc        1 0RT     -0.159600
      7 SAR         0.0320    3.6360   -0.5330 ss        1 0RT      0.025100
      8 CAG         2.0320    3.0830    0.9680 cd        1 0RT     -0.063200
      9 C5          1.6620    4.4240    1.2940 ca        1 0RT     -0.325400
     10 C4          0.5290    4.8540    0.5240 ca        1 0RT      0.426600
     11 N3         -0.0440    6.0780    0.6760 nb        1 0RT     -0.678000
     12 C2          0.5280    6.8510    1.6190 ca        1 0RT      0.666900
     13 N1          1.6090    6.5690    2.4090 nb        1 0RT     -0.754000
     14 C6          2.1980    5.3530    2.2540 ca        1 0RT      0.702200
     15 NAY         3.2880    4.9430    3.0690 nh        1 0RT     -0.734300
     16 CAK         3.4810    5.6840    4.3110 c3        1 0RT      0.149800
     17 CAI         4.5700    5.0370    5.1970 c3        1 0RT      0.171300
     18 CAJ         4.5370    4.7210    2.3460 c3        1 0RT      0.149800
     19 CAH         5.6050    4.0690    3.2510 c3        1 0RT      0.171300
     20 NAX         5.8270    4.7600    4.5130 nh        1 0RT     -0.663600
     21 CAS         6.7590    5.8210    4.5210 c2        1 0RT      0.630100
     22 SAQ         7.0960    6.5710    6.0980 ss        1 0RT     -0.309300
     23 CBA         8.3920    7.6250    5.3910 c3        1 0RT      0.015100
     24 CAA         8.0040    9.0720    5.5780 c3        1 0RT     -0.083600
     25 CAB         9.6990    7.3240    6.0820 c3        1 0RT     -0.083600
     26 CAL         8.4500    7.2480    3.8860 c3        1 0RT      0.107800
     27 NAN         7.4710    6.2600    3.5140 n2        1 0RT     -0.644900
     28 H1          2.3710    1.0950   -1.0690 hc        1 0RT      0.090700
     29 H2          0.5830    1.0670   -1.4160 hc        1 0RT      0.090700
     30 H3          2.8370    2.5380    1.4720 ha        1 0RT      0.174000
     31 H4          0.0780    7.8540    1.7780 h5        1 0RT      0.058100
     32 H5          3.7600    6.7590    4.1180 h1        1 0RT      0.060450
     33 H6          2.5130    5.6700    4.8840 h1        1 0RT      0.060450
     34 H7          4.1980    4.0440    5.5810 h1        1 0RT      0.077700
     35 H8          4.7480    5.7160    6.0780 h1        1 0RT      0.077700
     36 H9          4.9470    5.6900    1.9380 h1        1 0RT      0.060450
     37 H10         4.3400    4.0330    1.4780 h1        1 0RT      0.060450
     38 H11         5.2740    3.0260    3.5250 h1        1 0RT      0.077700
     39 H12         6.5600    3.9930    2.6650 h1        1 0RT      0.077700
     40 H15         7.9060    9.3130    6.6640 hc        1 0RT      0.048700
     41 H16         8.7890    9.7370    5.1380 hc        1 0RT      0.048700
     42 H17         7.0310    9.2900    5.0740 hc        1 0RT      0.048700
     43 H18         9.6280    7.5600    7.1720 hc        1 0RT      0.048700
     44 H19         9.9680    6.2470    5.9670 hc        1 0RT      0.048700
     45 H20        10.5170    7.9460    5.6400 hc        1 0RT      0.048700
     46 H21         8.2750    8.1620    3.2530 h1        1 0RT      0.075200
     47 H22         9.4720    6.8450    3.6340 h1        1 0RT      0.075200
@<TRIPOS>BOND
     1    1    2 1   
     2    2    3 1   
     3    2    4 1   
     4    2    5 1   
     5    5    6 1   
     6    5   28 1   
     7    5   29 1   
     8    6    7 1   
     9    6    8 2   
    10    7   10 1   
    11    8    9 1   
    12    8   30 1   
    13    9   10 ar  
    14    9   14 ar  
    15   10   11 ar  
    16   11   12 ar  
    17   12   13 ar  
    18   12   31 1   
    19   13   14 ar  
    20   14   15 1   
    21   15   16 1   
    22   15   18 1   
    23   16   17 1   
    24   16   32 1   
    25   16   33 1   
    26   17   20 1   
    27   17   34 1   
    28   17   35 1   
    29   18   19 1   
    30   18   36 1   
    31   18   37 1   
    32   19   20 1   
    33   19   38 1   
    34   19   39 1   
    35   20   21 1   
    36   21   22 1   
    37   21   27 2   
    38   22   23 1   
    39   23   24 1   
    40   23   25 1   
    41   23   26 1   
    42   24   40 1   
    43   24   41 1   
    44   24   42 1   
    45   25   43 1   
    46   25   44 1   
    47   25   45 1   
    48   26   27 1   
    49   26   46 1   
    50   26   47 1   
@<TRIPOS>SUBSTRUCTURE
     1 0RT         1 TEMP              0 ****  ****    0 ROOT
