@<TRIPOS>MOLECULE
0RT
   47    50     1     0     0
SMALL
bcc


@<TRIPOS>ATOM
      1 FAC         5.5410    1.0960    1.6040 f         1 0RT     -0.236967
      2 CAZ         5.0020    1.9410    0.6700 c3        1 0RT      0.628900
      3 FAD         3.8790    2.4590    1.2620 f         1 0RT     -0.236967
      4 FAE         5.8790    2.9980    0.6200 f         1 0RT     -0.236967
      5 CAM         4.7650    1.3080   -0.7330 c3        1 0RT     -0.039200
      6 CAT         3.8490    0.1630   -0.7140 cc        1 0RT     -0.159600
      7 SAR         4.3540   -1.3660   -1.2350 ss        1 0RT      0.025100
      8 CAG         2.5290    0.1860   -0.3290 cd        1 0RT     -0.063200
      9 C5          1.9110   -1.0950   -0.4770 ca        1 0RT     -0.325400
     10 C4          2.8430   -2.0700   -0.9670 ca        1 0RT      0.426600
     11 N3          2.5140   -3.3760   -1.1550 nb        1 0RT     -0.678000
     12 C2          1.2440   -3.6850   -0.8290 ca        1 0RT      0.666900
     13 N1          0.2600   -2.8570   -0.3640 nb        1 0RT     -0.754000
     14 C6          0.5760   -1.5460   -0.1880 ca        1 0RT      0.702200
     15 NAY        -0.3600   -0.6190    0.3480 nh        1 0RT     -0.734300
     16 CAK        -1.4990   -1.1880    1.0600 c3        1 0RT      0.149800
     17 CAI        -2.3420   -0.0930    1.7530 c3        1 0RT      0.171300
     18 CAJ        -0.7470    0.4510   -0.5690 c3        1 0RT      0.149800
     19 CAH        -1.5830    1.5330    0.1480 c3        1 0RT      0.171300
     20 NAX        -2.7250    1.0180    0.8890 nh        1 0RT     -0.663600
     21 CAS        -3.9340    0.8380    0.1830 c2        1 0RT      0.630100
     22 SAQ        -5.3420    0.3180    1.1370 ss        1 0RT     -0.309300
     23 CBA        -6.4470    0.4640   -0.2940 c3        1 0RT      0.015100
     24 CAA        -7.0400   -0.8890   -0.5990 c3        1 0RT     -0.083600
     25 CAB        -7.5290    1.4670    0.0230 c3        1 0RT     -0.083600
     26 CAL        -5.5450    0.9590   -1.4580 c3        1 0RT      0.107800
     27 NAN        -4.1620    1.0950   -1.0800 n2        1 0RT     -0.644900
     28 H1          4.3550    2.1250   -1.3870 hc        1 0RT      0.090700
     29 H2          5.7730    1.0120   -1.1290 hc        1 0RT      0.090700
     30 H3          2.0140    1.0620    0.0790 ha        1 0RT      0.174000
     31 H4          0.9440   -4.7470   -0.9590 h5        1 0RT      0.058100
     32 H5         -2.1670   -1.7840    0.3740 h1        1 0RT      0.060450
     33 H6         -1.1070   -1.8800    1.8560 h1        1 0RT      0.060450
     34 H7         -3.2610   -0.5850    2.1830 h1        1 0RT      0.077700
     35 H8         -1.7490    0.3570    2.5980 h1        1 0RT      0.077700
     36 H9          0.1820    0.9340   -0.9790 h1        1 0RT      0.060450
     37 H10        -1.3430    0.0450   -1.4370 h1        1 0RT      0.060450
     38 H11        -0.9360    2.0610    0.9060 h1        1 0RT      0.077700
     39 H12        -1.9120    2.2850   -0.6190 h1        1 0RT      0.077700
     40 H15        -7.6360   -1.2600    0.2700 hc        1 0RT      0.048700
     41 H16        -7.7170   -0.8190   -1.4860 hc        1 0RT      0.048700
     42 H17        -6.2360   -1.6330   -0.8230 hc        1 0RT      0.048700
     43 H18        -7.0860    2.4610    0.2770 hc        1 0RT      0.048700
     44 H19        -8.2040    1.5920   -0.8590 hc        1 0RT      0.048700
     45 H20        -8.1420    1.1190    0.8900 hc        1 0RT      0.048700
     46 H21        -5.5970    0.2360   -2.3190 h1        1 0RT      0.075200
     47 H22        -5.9110    1.9590   -1.8250 h1        1 0RT      0.075200
@<TRIPOS>BOND
     1    1    2 1   
     2    2    3 1   
     3    2    4 1   
     4    2    5 1   
     5    5    6 1   
     6    5   28 1   
     7    5   29 1   
     8    6    7 1   
     9    6    8 2   
    10    7   10 1   
    11    8    9 1   
    12    8   30 1   
    13    9   10 ar  
    14    9   14 ar  
    15   10   11 ar  
    16   11   12 ar  
    17   12   13 ar  
    18   12   31 1   
    19   13   14 ar  
    20   14   15 1   
    21   15   16 1   
    22   15   18 1   
    23   16   17 1   
    24   16   32 1   
    25   16   33 1   
    26   17   20 1   
    27   17   34 1   
    28   17   35 1   
    29   18   19 1   
    30   18   36 1   
    31   18   37 1   
    32   19   20 1   
    33   19   38 1   
    34   19   39 1   
    35   20   21 1   
    36   21   22 1   
    37   21   27 2   
    38   22   23 1   
    39   23   24 1   
    40   23   25 1   
    41   23   26 1   
    42   24   40 1   
    43   24   41 1   
    44   24   42 1   
    45   25   43 1   
    46   25   44 1   
    47   25   45 1   
    48   26   27 1   
    49   26   46 1   
    50   26   47 1   
@<TRIPOS>SUBSTRUCTURE
     1 0RT         1 TEMP              0 ****  ****    0 ROOT
