@<TRIPOS>MOLECULE
0RT
   47    50     1     0     0
SMALL
bcc


@<TRIPOS>ATOM
      1 FAC        -0.0650    0.0400    1.0630 f         1 0RT     -0.236967
      2 CAZ         1.1480    0.0650    0.4270 c3        1 0RT      0.628900
      3 FAD         2.0800    0.0350    1.4320 f         1 0RT     -0.236967
      4 FAE         1.2480   -1.1710   -0.1670 f         1 0RT     -0.236967
      5 CAM         1.3320    1.2240   -0.5980 c3        1 0RT     -0.039200
      6 CAT         1.2120    2.5590   -0.0020 cc        1 0RT     -0.159600
      7 SAR         0.0240    3.6440   -0.5270 ss        1 0RT      0.025100
      8 CAG         2.0210    3.0870    0.9770 cd        1 0RT     -0.063200
      9 C5          1.6570    4.4310    1.2970 ca        1 0RT     -0.325400
     10 C4          0.5270    4.8640    0.5250 ca        1 0RT      0.426600
     11 N3         -0.0410    6.0910    0.6730 nb        1 0RT     -0.678000
     12 C2          0.5340    6.8640    1.6130 ca        1 0RT      0.666900
     13 N1          1.6130    6.5800    2.4040 nb        1 0RT     -0.754000
     14 C6          2.1970    5.3610    2.2540 ca        1 0RT      0.702200
     15 NAY         3.2850    4.9490    3.0710 nh        1 0RT     -0.734300
     16 CAK         3.4810    5.6940    4.3100 c3        1 0RT      0.149800
     17 CAI         4.5670    5.0450    5.1990 c3        1 0RT      0.171300
     18 CAJ         4.5330    4.7190    2.3480 c3        1 0RT      0.149800
     19 CAH         5.5980    4.0650    3.2560 c3        1 0RT      0.171300
     20 NAX         5.8230    4.7600    4.5150 nh        1 0RT     -0.663600
     21 CAS         6.7590    5.8170    4.5200 c2        1 0RT      0.630100
     22 SAQ         7.1000    6.5700    6.0940 ss        1 0RT     -0.309300
     23 CBA         8.4010    7.6170    5.3840 c3        1 0RT      0.015100
     24 CAA         8.0200    9.0660    5.5660 c3        1 0RT     -0.083600
     25 CAB         9.7070    7.3120    6.0750 c3        1 0RT     -0.083600
     26 CAL         8.4570    7.2340    3.8790 c3        1 0RT      0.107800
     27 NAN         7.4730    6.2500    3.5110 n2        1 0RT     -0.644900
     28 H1          0.5630    1.0700   -1.4010 hc        1 0RT      0.090700
     29 H2          2.3510    1.0900   -1.0530 hc        1 0RT      0.090700
     30 H3          2.8230    2.5400    1.4830 ha        1 0RT      0.174000
     31 H4          0.0890    7.8710    1.7680 h5        1 0RT      0.058100
     32 H5          3.7650    6.7670    4.1130 h1        1 0RT      0.060450
     33 H6          2.5130    5.6860    4.8830 h1        1 0RT      0.060450
     34 H7          4.1910    4.0560    5.5860 h1        1 0RT      0.077700
     35 H8          4.7480    5.7270    6.0770 h1        1 0RT      0.077700
     36 H9          4.9480    5.6840    1.9370 h1        1 0RT      0.060450
     37 H10         4.3330    4.0290    1.4840 h1        1 0RT      0.060450
     38 H11         5.2620    3.0250    3.5340 h1        1 0RT      0.077700
     39 H12         6.5530    3.9830    2.6710 h1        1 0RT      0.077700
     40 H15         7.9240    9.3110    6.6510 hc        1 0RT      0.048700
     41 H16         8.8070    9.7260    5.1240 hc        1 0RT      0.048700
     42 H17         7.0480    9.2870    5.0620 hc        1 0RT      0.048700
     43 H18        10.5270    7.9280    5.6300 hc        1 0RT      0.048700
     44 H19         9.9710    6.2320    5.9630 hc        1 0RT      0.048700
     45 H20         9.6370    7.5510    7.1640 hc        1 0RT      0.048700
     46 H21         9.4770    6.8270    3.6280 h1        1 0RT      0.075200
     47 H22         8.2850    8.1480    3.2430 h1        1 0RT      0.075200
@<TRIPOS>BOND
     1    1    2 1   
     2    2    3 1   
     3    2    4 1   
     4    2    5 1   
     5    5    6 1   
     6    5   28 1   
     7    5   29 1   
     8    6    7 1   
     9    6    8 2   
    10    7   10 1   
    11    8    9 1   
    12    8   30 1   
    13    9   10 ar  
    14    9   14 ar  
    15   10   11 ar  
    16   11   12 ar  
    17   12   13 ar  
    18   12   31 1   
    19   13   14 ar  
    20   14   15 1   
    21   15   16 1   
    22   15   18 1   
    23   16   17 1   
    24   16   32 1   
    25   16   33 1   
    26   17   20 1   
    27   17   34 1   
    28   17   35 1   
    29   18   19 1   
    30   18   36 1   
    31   18   37 1   
    32   19   20 1   
    33   19   38 1   
    34   19   39 1   
    35   20   21 1   
    36   21   22 1   
    37   21   27 2   
    38   22   23 1   
    39   23   24 1   
    40   23   25 1   
    41   23   26 1   
    42   24   40 1   
    43   24   41 1   
    44   24   42 1   
    45   25   43 1   
    46   25   44 1   
    47   25   45 1   
    48   26   27 1   
    49   26   46 1   
    50   26   47 1   
@<TRIPOS>SUBSTRUCTURE
     1 0RT         1 TEMP              0 ****  ****    0 ROOT
