@<TRIPOS>MOLECULE
0RT
   47    45     1     0     0
SMALL
bcc


@<TRIPOS>ATOM
      1 FAC        -6.2950    2.1410   -4.8170 f         1 0RT     -0.166333
      2 CAZ        -6.9040    2.0220   -3.6260 c3        1 0RT      0.414000
      3 FAD        -8.2280    1.8870   -3.8110 f         1 0RT     -0.166333
      4 FAE        -6.6650    3.1200   -2.8900 f         1 0RT     -0.166333
      5 CAM        -6.3640    0.7930   -2.8970 c3        1 0RT     -0.122000
      6 CAT        -4.9140    1.0490   -2.4670 c2        1 0RT     -0.396000
      7 SAR        -5.2150   -0.4510   -2.2860 ss        1 0RT      0.594000
      8 CAG        -3.6960    1.3460   -1.7510 c1        1 0RT     -0.074000
      9 C5         -3.1680   -0.0160   -1.0650 c1        1 0RT     -0.186000
     10 C4         -4.0710   -1.0610   -1.3890 c1        1 0RT     -0.229000
     11 N3         -3.8950   -2.2860   -0.8660 n1        1 0RT     -0.152000
     12 C2         -2.8350   -2.5280   -0.0120 c1        1 0RT      0.004000
     13 N1         -1.9450   -1.5000    0.3080 n1        1 0RT     -0.232000
     14 C6         -2.1180   -0.2600   -0.2180 c1        1 0RT      0.172000
     15 NAY        -0.8970   -0.9260    0.1890 n2        1 0RT     -0.212000
     16 CAK        -0.6380   -0.6490    1.5680 c3        1 0RT     -0.091000
     17 CAI         0.7070   -1.1960    2.0280 c3        1 0RT     -0.093500
     18 CAJ         0.1740   -0.5220   -0.6640 c3        1 0RT     -0.091000
     19 CAH         1.5200   -1.0690   -0.2050 c3        1 0RT     -0.093500
     20 NAX         1.7800   -0.7920    1.1750 n3        1 0RT     -0.194000
     21 CAS         3.1400   -0.8010    1.6700 c2        1 0RT     -0.033000
     22 SAQ         3.6120    0.2800    2.5310 ss        1 0RT      0.096000
     23 CBA         5.1530    0.6620    1.8710 c3        1 0RT     -0.168000
     24 CAA         6.2360    0.5680    2.9510 c3        1 0RT     -0.201000
     25 CAB         5.1370    2.0620    1.2480 c3        1 0RT     -0.201000
     26 CAL         5.4090   -0.5420    0.6510 c3        1 0RT     -0.095000
     27 NAN         4.2160   -1.4270    0.8720 n2        1 0RT     -0.233000
     28 H1         -6.9140    0.6150   -2.1030 hc        1 0RT      0.131500
     29 H2         -6.3950    0.0160   -3.4990 hc        1 0RT      0.131500
     30 H3         -3.2670    2.2260   -1.6860 DU        1 0RT      0.175000
     31 H4         -2.7080   -3.4230    0.3690 ha        1 0RT      0.194000
     32 H5         -1.3500   -1.0540    2.1130 h1        1 0RT      0.114000
     33 H6         -0.6490    0.3280    1.7040 h1        1 0RT      0.114000
     34 H7          0.8870   -0.8740    2.9400 h1        1 0RT      0.119250
     35 H8          0.6630   -2.1790    2.0400 h1        1 0RT      0.119250
     36 H9          0.2180    0.4620   -0.6760 h1        1 0RT      0.114000
     37 H10        -0.0070   -0.8440   -1.5770 h1        1 0RT      0.114000
     38 H11         1.5310   -2.0450   -0.3410 h1        1 0RT      0.119250
     39 H12         2.2310   -0.6640   -0.7500 h1        1 0RT      0.119250
     40 H15         6.1060   -0.2540    3.4740 hc        1 0RT      0.087333
     41 H16         6.1740    1.3480    3.5460 hc        1 0RT      0.087333
     42 H17         7.1230    0.5500    2.5260 hc        1 0RT      0.087333
     43 H18         4.7200    2.6950    1.8740 hc        1 0RT      0.087333
     44 H19         4.6210    2.0420    0.4120 hc        1 0RT      0.087333
     45 H20         6.0590    2.3480    1.0580 hc        1 0RT      0.087333
     46 H21         5.4440   -0.1990   -0.2670 h1        1 0RT      0.114000
     47 H22         6.2770   -0.9980    0.7410 h1        1 0RT      0.114000
@<TRIPOS>BOND
     1    1    2 1   
     2    2    3 1   
     3    2    4 1   
     4    2    5 1   
     5    5    6 1   
     6    5   28 1   
     7    5   29 1   
     8    6    7 1   
     9    6    8 1   
    10    7   10 1   
    11    8    9 1   
    12    9   10 1   
    13   11   12 1   
    14   12   31 1   
    15   13   14 1   
    16   15   16 1   
    17   15   18 1   
    18   16   17 1   
    19   16   32 1   
    20   16   33 1   
    21   17   20 1   
    22   17   34 1   
    23   17   35 1   
    24   18   19 1   
    25   18   36 1   
    26   18   37 1   
    27   19   20 1   
    28   19   38 1   
    29   19   39 1   
    30   20   21 1   
    31   21   22 1   
    32   21   27 1   
    33   22   23 1   
    34   23   24 1   
    35   23   25 1   
    36   23   26 1   
    37   24   40 1   
    38   24   41 1   
    39   24   42 1   
    40   25   43 1   
    41   25   44 1   
    42   25   45 1   
    43   26   27 1   
    44   26   46 1   
    45   26   47 1   
@<TRIPOS>SUBSTRUCTURE
     1 0RT         1 TEMP              0 ****  ****    0 ROOT
