@<TRIPOS>MOLECULE
0RT
   47    50     1     0     0
SMALL
bcc


@<TRIPOS>ATOM
      1 FAC        -0.0580    0.0330    1.0670 f         1 0RT     -0.236967
      2 CAZ         1.1540    0.0600    0.4290 c3        1 0RT      0.628900
      3 FAD         2.0880    0.0310    1.4330 f         1 0RT     -0.236967
      4 FAE         1.2560   -1.1760   -0.1640 f         1 0RT     -0.236967
      5 CAM         1.3350    1.2190   -0.5960 c3        1 0RT     -0.039200
      6 CAT         1.2130    2.5540    0.0000 cc        1 0RT     -0.159600
      7 SAR         0.0230    3.6370   -0.5240 ss        1 0RT      0.025100
      8 CAG         2.0220    3.0830    0.9780 cd        1 0RT     -0.063200
      9 C5          1.6570    4.4270    1.2990 ca        1 0RT     -0.325400
     10 C4          0.5250    4.8570    0.5280 ca        1 0RT      0.426600
     11 N3         -0.0440    6.0840    0.6760 nb        1 0RT     -0.678000
     12 C2          0.5310    6.8580    1.6160 ca        1 0RT      0.666900
     13 N1          1.6110    6.5760    2.4060 nb        1 0RT     -0.754000
     14 C6          2.1960    5.3570    2.2550 ca        1 0RT      0.702200
     15 NAY         3.2850    4.9470    3.0710 nh        1 0RT     -0.734300
     16 CAK         3.4820    5.6920    4.3100 c3        1 0RT      0.149800
     17 CAI         4.5690    5.0440    5.1980 c3        1 0RT      0.171300
     18 CAJ         4.5330    4.7190    2.3480 c3        1 0RT      0.149800
     19 CAH         5.6000    4.0670    3.2550 c3        1 0RT      0.171300
     20 NAX         5.8250    4.7620    4.5140 nh        1 0RT     -0.663600
     21 CAS         6.7600    5.8200    4.5180 c2        1 0RT      0.630100
     22 SAQ         7.0990    6.5740    6.0920 ss        1 0RT     -0.309300
     23 CBA         8.3980    7.6230    5.3820 c3        1 0RT      0.015100
     24 CAA         8.0150    9.0710    5.5630 c3        1 0RT     -0.083600
     25 CAB         9.7040    7.3210    6.0730 c3        1 0RT     -0.083600
     26 CAL         8.4550    7.2400    3.8780 c3        1 0RT      0.107800
     27 NAN         7.4730    6.2530    3.5100 n2        1 0RT     -0.644900
     28 H1          0.5660    1.0630   -1.3980 hc        1 0RT      0.090700
     29 H2          2.3540    1.0870   -1.0520 hc        1 0RT      0.090700
     30 H3          2.8260    2.5380    1.4840 ha        1 0RT      0.174000
     31 H4          0.0840    7.8640    1.7710 h5        1 0RT      0.058100
     32 H5          3.7640    6.7660    4.1130 h1        1 0RT      0.060450
     33 H6          2.5140    5.6820    4.8840 h1        1 0RT      0.060450
     34 H7          4.1940    4.0540    5.5850 h1        1 0RT      0.077950
     35 H8          4.7500    5.7270    6.0760 h1        1 0RT      0.077950
     36 H9          4.3340    4.0290    1.4830 h1        1 0RT      0.060450
     37 H10         4.9460    5.6850    1.9360 h1        1 0RT      0.060450
     38 H11         5.2660    3.0260    3.5320 h1        1 0RT      0.077950
     39 H12         6.5550    3.9860    2.6680 h1        1 0RT      0.077950
     40 H15         7.0420    9.2900    5.0590 hc        1 0RT      0.048700
     41 H16         8.8010    9.7330    5.1210 hc        1 0RT      0.048700
     42 H17         7.9180    9.3170    6.6480 hc        1 0RT      0.048700
     43 H18         9.9710    6.2420    5.9620 hc        1 0RT      0.048700
     44 H19         9.6340    7.5600    7.1620 hc        1 0RT      0.048700
     45 H20        10.5240    7.9380    5.6280 hc        1 0RT      0.048700
     46 H21         9.4760    6.8330    3.6270 h1        1 0RT      0.075200
     47 H22         8.2820    8.1530    3.2410 h1        1 0RT      0.075200
@<TRIPOS>BOND
     1    1    2 1   
     2    2    3 1   
     3    2    4 1   
     4    2    5 1   
     5    5    6 1   
     6    5   28 1   
     7    5   29 1   
     8    6    7 1   
     9    6    8 2   
    10    7   10 1   
    11    8    9 1   
    12    8   30 1   
    13    9   10 ar  
    14    9   14 ar  
    15   10   11 ar  
    16   11   12 ar  
    17   12   13 ar  
    18   12   31 1   
    19   13   14 ar  
    20   14   15 1   
    21   15   16 1   
    22   15   18 1   
    23   16   17 1   
    24   16   32 1   
    25   16   33 1   
    26   17   20 1   
    27   17   34 1   
    28   17   35 1   
    29   18   19 1   
    30   18   36 1   
    31   18   37 1   
    32   19   20 1   
    33   19   38 1   
    34   19   39 1   
    35   20   21 1   
    36   21   22 1   
    37   21   27 2   
    38   22   23 1   
    39   23   24 1   
    40   23   25 1   
    41   23   26 1   
    42   24   40 1   
    43   24   41 1   
    44   24   42 1   
    45   25   43 1   
    46   25   44 1   
    47   25   45 1   
    48   26   27 1   
    49   26   46 1   
    50   26   47 1   
@<TRIPOS>SUBSTRUCTURE
     1 0RT         1 TEMP              0 ****  ****    0 ROOT
