@<TRIPOS>MOLECULE
0RU
   32    34     1     0     0
SMALL
bcc


@<TRIPOS>ATOM
      1 NAJ         0.0950   -0.0000   -0.0910 nb        1 0RU     -0.710000
      2 CAE         1.4370   -0.0000    0.0230 ca        1 0RU      0.445700
      3 CAC         2.0910   -0.0000    1.2670 ca        1 0RU     -0.382600
      4 CAF         1.2650    0.0000    2.4100 ca        1 0RU      0.445700
      5 NAK        -0.0760    0.0000    2.3400 nb        1 0RU     -0.710000
      6 CAQ        -0.6240    0.0000    1.0760 ca        1 0RU      0.689300
      7 SAN        -2.3420    0.0000    1.0410 ss        1 0RU     -0.060400
      8 CAI        -2.6970   -0.0000   -0.6930 c3        1 0RU     -0.118600
      9 CAP        -4.1950   -0.0000   -0.9160 cc        1 0RU      0.686200
     10 NAL        -4.5880   -0.0000   -2.2610 na        1 0RU     -0.728600
     11 CAT        -5.9470   -0.0000   -2.5820 ca        1 0RU      0.180600
     12 CAO        -6.3950   -0.0000   -3.9300 ca        1 0RU     -0.136300
     13 CAA        -5.4300   -0.0000   -5.0530 c3        1 0RU     -0.053800
     14 CAG        -7.7660   -0.0000   -4.1790 ca        1 0RU     -0.071000
     15 CAD        -8.6970    0.0000   -3.1370 ca        1 0RU     -0.168000
     16 CAH        -8.2640    0.0000   -1.8180 ca        1 0RU     -0.041000
     17 CAS        -6.8960    0.0000   -1.5270 ca        1 0RU     -0.214600
     18 CAR        -6.4200    0.0000   -0.1200 c         1 0RU      0.709100
     19 OAB        -7.2060    0.0000    0.8400 o         1 0RU     -0.528100
     20 NAM        -5.0180   -0.0000    0.1070 nd        1 0RU     -0.682100
     21 H1          2.0030   -0.0010   -0.9260 h4        1 0RU      0.029100
     22 H2          3.1820   -0.0000    1.3460 ha        1 0RU      0.156000
     23 H3          1.6940    0.0010    3.4290 h4        1 0RU      0.029100
     24 H4         -2.2540   -0.9050   -1.1830 h1        1 0RU      0.099700
     25 H5         -2.2530    0.9040   -1.1840 h1        1 0RU      0.099700
     26 H6         -3.9100   -0.0000   -2.9860 hn        1 0RU      0.455800
     27 H7         -4.7770    0.9080   -5.0150 hc        1 0RU      0.045367
     28 H8         -5.9610   -0.0010   -6.0370 hc        1 0RU      0.045367
     29 H9         -4.7770   -0.9090   -5.0150 hc        1 0RU      0.045367
     30 H10        -8.1220   -0.0000   -5.2220 ha        1 0RU      0.137000
     31 H11        -9.7720    0.0000   -3.3660 ha        1 0RU      0.142000
     32 H12        -8.9810    0.0000   -0.9800 ha        1 0RU      0.164000
@<TRIPOS>BOND
     1    1    2 ar  
     2    1    6 ar  
     3    2    3 ar  
     4    2   21 1   
     5    3    4 ar  
     6    3   22 1   
     7    4    5 ar  
     8    4   23 1   
     9    5    6 ar  
    10    6    7 1   
    11    7    8 1   
    12    8    9 1   
    13    8   24 1   
    14    8   25 1   
    15    9   10 1   
    16    9   20 2   
    17   10   11 1   
    18   10   26 1   
    19   11   12 ar  
    20   11   17 ar  
    21   12   13 1   
    22   12   14 ar  
    23   13   27 1   
    24   13   28 1   
    25   13   29 1   
    26   14   15 ar  
    27   14   30 1   
    28   15   16 ar  
    29   15   31 1   
    30   16   17 ar  
    31   16   32 1   
    32   17   18 1   
    33   18   19 2   
    34   18   20 1   
@<TRIPOS>SUBSTRUCTURE
     1 0RU         1 TEMP              0 ****  ****    0 ROOT
