@<TRIPOS>MOLECULE
0RU
   32    26     1     0     0
SMALL
bcc


@<TRIPOS>ATOM
      1 NAJ         2.1720   -3.2300   -2.9420 n1        1 0RU     -0.214000
      2 CAE         2.8660   -3.6510   -4.0110 c1        1 0RU     -0.120000
      3 CAC         4.1560   -3.2500   -4.1850 c1        1 0RU     -0.120000
      4 CAF         4.7380   -2.4280   -3.2800 c1        1 0RU     -0.020000
      5 NAK         4.0380   -2.0070   -2.2080 n1        1 0RU     -0.154000
      6 CAQ         2.7510   -2.4090   -2.0360 c1        1 0RU     -0.164000
      7 SAN         1.8570   -1.9140   -0.6000 ss        1 0RU      0.449000
      8 CAI         0.6090   -0.7360   -1.0500 c3        1 0RU     -0.304000
      9 CAP         0.1810    0.0630    0.1910 c2        1 0RU      0.171000
     10 NAL        -1.1800    0.6060    0.2760 n3        1 0RU     -0.290000
     11 CAT        -1.5850    1.3890    1.4440 c2        1 0RU      0.099000
     12 CAO        -2.9250    1.8760    1.5510 c1        1 0RU     -0.129000
     13 CAA        -4.2430    1.5840    0.7230 c2        1 0RU     -0.179000
     14 CAG        -3.3270    2.5810    2.7030 c1        1 0RU     -0.071000
     15 CAD        -2.4280    2.8020    3.7260 c1        1 0RU     -0.120000
     16 CAH        -1.1020    2.3190    3.6180 c1        1 0RU     -0.120000
     17 CAS        -0.6970    1.6090    2.4580 c1        1 0RU     -0.194000
     18 CAR         0.7290    1.0230    2.3700 c1        1 0RU      0.310000
     19 OAB         1.4780    1.1290    3.3000 o         1 0RU     -0.289000
     20 NAM         1.1160    0.3000    1.2470 n1        1 0RU     -0.255000
     21 H1          2.4540   -4.2310   -4.6500 ha        1 0RU      0.156250
     22 H2          4.6790   -3.5670   -4.9890 ha        1 0RU      0.156250
     23 H3          5.6630   -2.1390   -3.4050 ha        1 0RU      0.169000
     24 H4          0.9530   -0.1480   -1.6970 h1        1 0RU      0.139000
     25 H5         -0.2230   -1.2410   -1.4420 h1        1 0RU      0.139000
     26 H6         -1.7890    0.4670   -0.4320 hn        1 0RU      0.251000
     27 H7         -4.0200    1.0620   -0.0850 ha        1 0RU      0.084667
     28 H8         -4.8750    1.0700    1.2840 ha        1 0RU      0.084667
     29 H9         -4.6350    2.3890    0.4710 ha        1 0RU      0.084667
     30 H10        -4.2290    2.9070    2.7760 ha        1 0RU      0.137000
     31 H11        -2.7120    3.3040    4.5410 ha        1 0RU      0.156250
     32 H12        -0.4720    2.4730    4.3350 ha        1 0RU      0.156250
@<TRIPOS>BOND
     1    1    6 1   
     2    2    3 1   
     3    2   21 1   
     4    3   22 1   
     5    4    5 1   
     6    4   23 1   
     7    6    7 1   
     8    7    8 1   
     9    8    9 1   
    10    8   24 1   
    11    8   25 1   
    12    9   10 1   
    13    9   20 1   
    14   10   11 1   
    15   10   26 1   
    16   11   12 1   
    17   11   17 1   
    18   12   14 1   
    19   13   27 1   
    20   13   28 1   
    21   13   29 1   
    22   14   30 1   
    23   15   16 1   
    24   15   31 1   
    25   16   32 1   
    26   18   19 1   
@<TRIPOS>SUBSTRUCTURE
     1 0RU         1 TEMP              0 ****  ****    0 ROOT
