@<TRIPOS>MOLECULE
0RU
   32    34     1     0     0
SMALL
bcc


@<TRIPOS>ATOM
      1 NAJ        -3.7250   -1.2390   -0.0100 nb        1 0RU     -0.710000
      2 CAE        -4.9650   -1.7640   -0.0110 ca        1 0RU      0.445700
      3 CAC        -6.1250   -0.9700   -0.0180 ca        1 0RU     -0.382600
      4 CAF        -5.9280    0.4260   -0.0230 ca        1 0RU      0.445700
      5 NAK        -4.7100    0.9910   -0.0210 nb        1 0RU     -0.710000
      6 CAQ        -3.6350    0.1300   -0.0150 ca        1 0RU      0.689300
      7 SAN        -2.1000    0.9010   -0.0130 ss        1 0RU     -0.060400
      8 CAI        -0.9760   -0.4660   -0.0040 c3        1 0RU     -0.118600
      9 CAP         0.4530    0.0370   -0.0020 cc        1 0RU      0.686200
     10 NAL         1.4290   -0.9680    0.0050 na        1 0RU     -0.728600
     11 CAT         2.7800   -0.6170    0.0080 ca        1 0RU      0.180600
     12 CAO         3.8060   -1.5990    0.0140 ca        1 0RU     -0.136300
     13 CAA         3.4780   -3.0430    0.0180 c3        1 0RU     -0.053800
     14 CAG         5.1350   -1.1790    0.0170 ca        1 0RU     -0.071000
     15 CAD         5.4710    0.1770    0.0130 ca        1 0RU     -0.168000
     16 CAH         4.4710    1.1410    0.0060 ca        1 0RU     -0.041000
     17 CAS         3.1260    0.7590    0.0040 ca        1 0RU     -0.214600
     18 CAR         2.0480    1.7810   -0.0030 c         1 0RU      0.709100
     19 OAB         2.2940    2.9970   -0.0070 o         1 0RU     -0.528100
     20 NAM         0.7020    1.3260   -0.0050 nd        1 0RU     -0.682100
     21 H1         -5.0220   -2.8680   -0.0070 h4        1 0RU      0.029100
     22 H2         -7.1270   -1.4100   -0.0200 ha        1 0RU      0.156000
     23 H3         -6.7840    1.1270   -0.0280 h4        1 0RU      0.029100
     24 H4         -1.1410   -1.1030    0.9030 h1        1 0RU      0.099700
     25 H5         -1.1360   -1.1100   -0.9070 h1        1 0RU      0.099700
     26 H6          1.1690   -1.9260    0.0070 hn        1 0RU      0.455800
     27 H7          2.8850   -3.3180   -0.8910 hc        1 0RU      0.045367
     28 H8          4.4070   -3.6650    0.0230 hc        1 0RU      0.045367
     29 H9          2.8800   -3.3110    0.9260 hc        1 0RU      0.045367
     30 H10         5.9370   -1.9340    0.0220 ha        1 0RU      0.137000
     31 H11         6.5290    0.4780    0.0150 ha        1 0RU      0.142000
     32 H12         4.7140    2.2170    0.0030 ha        1 0RU      0.164000
@<TRIPOS>BOND
     1    1    2 ar  
     2    1    6 ar  
     3    2    3 ar  
     4    2   21 1   
     5    3    4 ar  
     6    3   22 1   
     7    4    5 ar  
     8    4   23 1   
     9    5    6 ar  
    10    6    7 1   
    11    7    8 1   
    12    8    9 1   
    13    8   24 1   
    14    8   25 1   
    15    9   10 1   
    16    9   20 2   
    17   10   11 1   
    18   10   26 1   
    19   11   12 ar  
    20   11   17 ar  
    21   12   13 1   
    22   12   14 ar  
    23   13   27 1   
    24   13   28 1   
    25   13   29 1   
    26   14   15 ar  
    27   14   30 1   
    28   15   16 ar  
    29   15   31 1   
    30   16   17 ar  
    31   16   32 1   
    32   17   18 1   
    33   18   19 2   
    34   18   20 1   
@<TRIPOS>SUBSTRUCTURE
     1 0RU         1 TEMP              0 ****  ****    0 ROOT
