@<TRIPOS>MOLECULE
0RV
   51    52     1     0     0
SMALL
bcc


@<TRIPOS>ATOM
      1 O           1.7440    0.7450    0.0870 o         1 0RV     -0.655100
      2 C           1.6020    0.0620   -0.9550 c         1 0RV      0.648100
      3 NAY         2.4940   -0.9490   -1.2630 n         1 0RV     -0.448800
      4 CAC         3.7440   -1.0300   -0.5540 c3        1 0RV      0.056300
      5 CAD         2.4480   -1.6530   -2.5210 c3        1 0RV      0.056300
      6 CA          0.3950    0.2920   -1.8790 c3        1 0RV      0.100500
      7 CB          0.8760    0.8580   -3.2320 c3        1 0RV     -0.115400
      8 N          -0.6270    1.1870   -1.3200 n3        1 0RV     -0.796200
      9 CD         -0.9640    2.1870   -2.3300 c3        1 0RV      0.163800
     10 CG         -0.1290    1.9410   -3.5970 c3        1 0RV     -0.017600
     11 SAO         0.5730    3.5050   -4.0830 ss        1 0RV     -0.215700
     12 CAT         1.7520    3.0830   -5.1950 ce        1 0RV     -0.191000
     13 CAV         1.6800    2.3380   -6.3430 c2        1 0RV     -0.009400
     14 CAB         0.5360    1.6790   -6.9660 c3        1 0RV     -0.084900
     15 CAS         3.1920    3.4620   -5.0530 ce        1 0RV      0.445600
     16 CAP         3.6570    4.3500   -3.9700 c         1 0RV      0.594800
     17 OAE         3.6780    5.5850   -3.9440 o         1 0RV     -0.562000
     18 OAH         4.1240    3.7000   -2.8710 oh        1 0RV     -0.567100
     19 NAN         3.9630    2.9670   -5.9900 n2        1 0RV     -0.528900
     20 CAZ         3.1000    2.1920   -6.9060 c3        1 0RV      0.119700
     21 CBA         3.4840    0.7210   -7.0960 c3        1 0RV     -0.178700
     22 CAQ         3.2060   -0.1320   -5.8360 c         1 0RV      0.909600
     23 OAF         2.0650   -0.6800   -5.7400 o         1 0RV     -0.838800
     24 OAI         4.1060   -0.2730   -4.9650 o         1 0RV     -0.838800
     25 CAU         4.9450    0.5650   -7.5180 c3        1 0RV      0.152100
     26 OAJ         5.3010    1.4910   -8.5450 oh        1 0RV     -0.633800
     27 CAA         5.1860   -0.8230   -8.0880 c3        1 0RV     -0.086100
     28 H1          3.7330   -0.3570    0.3440 h1        1 0RV      0.053533
     29 H2          4.5960   -0.7370   -1.2250 h1        1 0RV      0.053533
     30 H3          3.9020   -2.0890   -0.2140 h1        1 0RV      0.053533
     31 H4          1.3930   -1.9470   -2.7600 h1        1 0RV      0.053533
     32 H5          3.0640   -2.5870   -2.4310 h1        1 0RV      0.053533
     33 H6          2.8590   -1.0340   -3.3770 h1        1 0RV      0.053533
     34 H7         -0.1240   -0.6990   -2.0380 h1        1 0RV      0.076700
     35 H8          0.9240    0.0540   -4.0170 hc        1 0RV      0.107200
     36 H9          1.9090    1.2820   -3.1430 hc        1 0RV      0.107200
     37 H10        -0.2820    1.6280   -0.4840 hn        1 0RV      0.374800
     38 H12        -0.8070    3.2370   -1.9540 h1        1 0RV      0.043700
     39 H13        -2.0580    2.0670   -2.5650 h1        1 0RV      0.043700
     40 H14        -0.7820    1.5810   -4.4310 h1        1 0RV      0.072700
     41 H15         0.5500    0.5940   -6.6510 hc        1 0RV      0.070700
     42 H16        -0.4290    2.1450   -6.6490 hc        1 0RV      0.070700
     43 H17         0.6150    1.7200   -8.0810 hc        1 0RV      0.070700
     44 H19         3.1580    2.7050   -7.9120 h1        1 0RV      0.087700
     45 H20         2.8170    0.3360   -7.9170 hc        1 0RV      0.055700
     46 H22         5.6000    0.7220   -6.6130 h1        1 0RV      0.074700
     47 H23         5.4400    2.3400   -8.1130 ho        1 0RV      0.400000
     48 H24         6.2660   -0.9510   -8.3350 hc        1 0RV      0.037033
     49 H25         4.5890   -0.9750   -9.0170 hc        1 0RV      0.037033
     50 H26         4.8840   -1.5780   -7.3220 hc        1 0RV      0.037033
     51 HAY1        4.3730    4.3530   -2.1960 ho        1 0RV      0.434000
@<TRIPOS>BOND
     1    1    2 2   
     2    2    3 1   
     3    2    6 1   
     4    3    4 1   
     5    3    5 1   
     6    4   28 1   
     7    4   29 1   
     8    4   30 1   
     9    5   31 1   
    10    5   32 1   
    11    5   33 1   
    12    6    7 1   
    13    6    8 1   
    14    6   34 1   
    15    7   10 1   
    16    7   35 1   
    17    7   36 1   
    18    8    9 1   
    19    8   37 1   
    20    9   10 1   
    21    9   38 1   
    22    9   39 1   
    23   10   11 1   
    24   10   40 1   
    25   11   12 1   
    26   12   13 2   
    27   12   15 1   
    28   13   14 1   
    29   13   20 1   
    30   14   41 1   
    31   14   42 1   
    32   14   43 1   
    33   15   16 1   
    34   15   19 2   
    35   16   17 2   
    36   16   18 1   
    37   18   51 1   
    38   19   20 1   
    39   20   21 1   
    40   20   44 1   
    41   21   22 1   
    42   21   25 1   
    43   21   45 1   
    44   22   23 1   
    45   22   24 1   
    46   25   26 1   
    47   25   27 1   
    48   25   46 1   
    49   26   47 1   
    50   27   48 1   
    51   27   49 1   
    52   27   50 1   
@<TRIPOS>SUBSTRUCTURE
     1 0RV         1 TEMP              0 ****  ****    0 ROOT
