@<TRIPOS>MOLECULE
0RV
   51    52     1     0     0
SMALL
bcc


@<TRIPOS>ATOM
      1 O           1.9670    0.9970    0.1200 o         1 0RV     -0.655100
      2 C           1.7640    0.2610   -0.8750 c         1 0RV      0.648100
      3 NAY         2.6260   -0.7790   -1.1710 n         1 0RV     -0.448800
      4 CAC         3.9080   -0.8420   -0.5210 c3        1 0RV      0.056300
      5 CAD         2.5080   -1.5480   -2.3860 c3        1 0RV      0.056300
      6 CA          0.5150    0.4600   -1.7500 c3        1 0RV      0.100500
      7 CB          0.9350    0.9460   -3.1540 c3        1 0RV     -0.115400
      8 N          -0.4650    1.4010   -1.1910 n7        1 0RV     -0.796200
      9 CD         -0.8390    2.3510   -2.2360 c3        1 0RV      0.163800
     10 CG         -0.0720    2.0230   -3.5270 c3        1 0RV     -0.017600
     11 SAO         0.6250    3.5470   -4.1320 ss        1 0RV     -0.215700
     12 CAT         1.7410    3.0470   -5.2770 ce        1 0RV     -0.191000
     13 CAV         1.6010    2.2410   -6.3780 c2        1 0RV     -0.009400
     14 CAB         0.4180    1.5690   -6.9050 c3        1 0RV     -0.084900
     15 CAS         3.1900    3.4090   -5.2280 ce        1 0RV      0.445600
     16 CAP         3.7220    4.3480   -4.2190 c         1 0RV      0.594800
     17 OAE         3.7600    5.5810   -4.2630 o         1 0RV     -0.562000
     18 OAH         4.2360    3.7510   -3.1110 oh        1 0RV     -0.567100
     19 NAN         3.9070    2.8520   -6.1740 n2        1 0RV     -0.528900
     20 CAZ         2.9880    2.0420   -7.0010 c3        1 0RV      0.119700
     21 CBA         3.3420    0.5580   -7.1300 c3        1 0RV     -0.178700
     22 CAQ         3.1170   -0.2220   -5.8120 c         1 0RV      0.909600
     23 OAF         1.9750   -0.7450   -5.6300 o         1 0RV     -0.838800
     24 OAI         4.0590   -0.3290   -4.9810 o         1 0RV     -0.838800
     25 CAU         4.7780    0.3550   -7.6140 c3        1 0RV      0.152100
     26 OAJ         5.0940    1.2190   -8.7070 oh        1 0RV     -0.633800
     27 CAA         4.9720   -1.0650   -8.1180 c3        1 0RV     -0.086100
     28 H1          4.0690   -1.8830   -0.1330 h1        1 0RV      0.053533
     29 H2          4.7300   -0.5990   -1.2480 h1        1 0RV      0.053533
     30 H3          3.9520   -0.1210    0.3380 h1        1 0RV      0.053533
     31 H4          1.4380   -1.8380   -2.5550 h1        1 0RV      0.053533
     32 H5          2.8830   -0.9830   -3.2930 h1        1 0RV      0.053533
     33 H6          3.1150   -2.4860   -2.2750 h1        1 0RV      0.053533
     34 H7         -0.0240   -0.5290   -1.8290 h1        1 0RV      0.076700
     35 H8          0.9340    0.1000   -3.8950 hc        1 0RV      0.107200
     36 H9          1.9780    1.3570   -3.1390 hc        1 0RV      0.107200
     37 H10        -0.0730    1.8800   -0.3980 hn        1 0RV      0.374800
     38 H12        -1.9450    2.2360   -2.4090 h1        1 0RV      0.043700
     39 H13        -0.6490    3.4170   -1.9260 h1        1 0RV      0.043700
     40 H14        -0.7710    1.6290   -4.3070 h1        1 0RV      0.072700
     41 H15         0.4410    1.5480   -8.0230 hc        1 0RV      0.070700
     42 H16        -0.5240    2.0660   -6.5670 hc        1 0RV      0.070700
     43 H17         0.4330    0.5020   -6.5310 hc        1 0RV      0.070700
     44 H19         3.0020    2.4990   -8.0350 h1        1 0RV      0.087700
     45 H20         2.6290    0.1400   -7.8930 hc        1 0RV      0.055700
     46 H22         5.4800    0.5510   -6.7530 h1        1 0RV      0.074700
     47 H23         5.2650    2.0880   -8.3300 ho        1 0RV      0.400000
     48 H24         4.6980   -1.7720   -7.2980 hc        1 0RV      0.037033
     49 H25         4.3260   -1.2580   -9.0070 hc        1 0RV      0.037033
     50 H26         6.0360   -1.2240   -8.4110 hc        1 0RV      0.037033
     51 HAY1        4.5270    4.4360   -2.4870 ho        1 0RV      0.434000
@<TRIPOS>BOND
     1    1    2 2   
     2    2    3 1   
     3    2    6 1   
     4    3    4 1   
     5    3    5 1   
     6    4   28 1   
     7    4   29 1   
     8    4   30 1   
     9    5   31 1   
    10    5   32 1   
    11    5   33 1   
    12    6    7 1   
    13    6    8 1   
    14    6   34 1   
    15    7   10 1   
    16    7   35 1   
    17    7   36 1   
    18    8    9 1   
    19    8   37 1   
    20    9   10 1   
    21    9   38 1   
    22    9   39 1   
    23   10   11 1   
    24   10   40 1   
    25   11   12 1   
    26   12   13 2   
    27   12   15 1   
    28   13   14 1   
    29   13   20 1   
    30   14   41 1   
    31   14   42 1   
    32   14   43 1   
    33   15   16 1   
    34   15   19 2   
    35   16   17 2   
    36   16   18 1   
    37   18   51 1   
    38   19   20 1   
    39   20   21 1   
    40   20   44 1   
    41   21   22 1   
    42   21   25 1   
    43   21   45 1   
    44   22   23 1   
    45   22   24 1   
    46   25   26 1   
    47   25   27 1   
    48   25   46 1   
    49   26   47 1   
    50   27   48 1   
    51   27   49 1   
    52   27   50 1   
@<TRIPOS>SUBSTRUCTURE
     1 0RV         1 TEMP              0 ****  ****    0 ROOT
