@<TRIPOS>MOLECULE
0RV
   51    52     1     0     0
SMALL
bcc


@<TRIPOS>ATOM
      1 O           1.9210    1.1010    0.1160 o         1 0RV     -0.655100
      2 C           1.7140    0.3480   -0.8650 c         1 0RV      0.648100
      3 NAY         2.5580   -0.7150   -1.1290 n         1 0RV     -0.448800
      4 CAC         3.8330   -0.7880   -0.4650 c3        1 0RV      0.056300
      5 CAD         2.4380   -1.5080   -2.3280 c3        1 0RV      0.056300
      6 CA          0.4780    0.5520   -1.7570 c3        1 0RV      0.100500
      7 CB          0.9210    0.9980   -3.1670 c3        1 0RV     -0.115400
      8 N          -0.4900    1.5230   -1.2290 n3        1 0RV     -0.796200
      9 CD         -0.8340    2.4570   -2.2990 c3        1 0RV      0.163800
     10 CG         -0.0610    2.0860   -3.5740 c3        1 0RV     -0.017600
     11 SAO         0.6710    3.5830   -4.2050 ss        1 0RV     -0.215700
     12 CAT         1.7890    3.0370   -5.3270 ce        1 0RV     -0.191000
     13 CAV         1.6450    2.2100   -6.4110 c2        1 0RV     -0.009400
     14 CAB         0.4540    1.5480   -6.9360 c3        1 0RV     -0.084900
     15 CAS         3.2450    3.3720   -5.2710 ce        1 0RV      0.445600
     16 CAP         3.7840    4.3230   -4.2770 c         1 0RV      0.594800
     17 OAE         3.8460    5.5540   -4.3470 o         1 0RV     -0.562000
     18 OAH         4.2750    3.7410   -3.1510 oh        1 0RV     -0.567100
     19 NAN         3.9590    2.7810   -6.1970 n2        1 0RV     -0.528900
     20 CAZ         3.0340    1.9710   -7.0160 c3        1 0RV      0.119700
     21 CBA         3.3610    0.4770   -7.1080 c3        1 0RV     -0.178700
     22 CAQ         3.1070   -0.2690   -5.7770 c         1 0RV      0.909600
     23 OAF         1.9540   -0.7660   -5.5950 o         1 0RV     -0.838800
     24 OAI         4.0380   -0.3760   -4.9330 o         1 0RV     -0.838800
     25 CAU         4.7970    0.2370   -7.5730 c3        1 0RV      0.152100
     26 OAJ         5.1410    1.0700   -8.6810 oh        1 0RV     -0.633800
     27 CAA         4.9680   -1.1970   -8.0440 c3        1 0RV     -0.086100
     28 H1          3.8820   -0.0500    0.3790 h1        1 0RV      0.053533
     29 H2          3.9690   -1.8230   -0.0520 h1        1 0RV      0.053533
     30 H3          4.6670   -0.5760   -1.1880 h1        1 0RV      0.053533
     31 H4          2.8330   -0.9700   -3.2440 h1        1 0RV      0.053533
     32 H5          1.3650   -1.7810   -2.5030 h1        1 0RV      0.053533
     33 H6          3.0250   -2.4540   -2.1910 h1        1 0RV      0.053533
     34 H7         -0.0800   -0.4280   -1.8210 h1        1 0RV      0.076700
     35 H8          0.9120    0.1360   -3.8900 hc        1 0RV      0.107200
     36 H9          1.9720    1.3900   -3.1500 hc        1 0RV      0.107200
     37 H10        -0.0960    2.0120   -0.4430 hn        1 0RV      0.374800
     38 H12        -1.9400    2.3590   -2.4810 h1        1 0RV      0.043700
     39 H13        -0.6270    3.5250   -2.0100 h1        1 0RV      0.043700
     40 H14        -0.7590    1.6880   -4.3530 h1        1 0RV      0.072700
     41 H15         0.4450    0.4890   -6.5390 hc        1 0RV      0.070700
     42 H16         0.4880    1.5020   -8.0530 hc        1 0RV      0.070700
     43 H17        -0.4810    2.0710   -6.6190 hc        1 0RV      0.070700
     44 H19         3.0670    2.4050   -8.0590 h1        1 0RV      0.087700
     45 H20         2.6470    0.0560   -7.8700 hc        1 0RV      0.055700
     46 H22         5.4940    0.4380   -6.7090 h1        1 0RV      0.074700
     47 H23         5.3250    1.9440   -8.3220 ho        1 0RV      0.400000
     48 H24         4.3280   -1.3970   -8.9350 hc        1 0RV      0.037033
     49 H25         6.0320   -1.3830   -8.3220 hc        1 0RV      0.037033
     50 H26         4.6730   -1.8810   -7.2120 hc        1 0RV      0.037033
     51 HAY1        4.5730    4.4340   -2.5390 ho        1 0RV      0.434000
@<TRIPOS>BOND
     1    1    2 2   
     2    2    3 1   
     3    2    6 1   
     4    3    4 1   
     5    3    5 1   
     6    4   28 1   
     7    4   29 1   
     8    4   30 1   
     9    5   31 1   
    10    5   32 1   
    11    5   33 1   
    12    6    7 1   
    13    6    8 1   
    14    6   34 1   
    15    7   10 1   
    16    7   35 1   
    17    7   36 1   
    18    8    9 1   
    19    8   37 1   
    20    9   10 1   
    21    9   38 1   
    22    9   39 1   
    23   10   11 1   
    24   10   40 1   
    25   11   12 1   
    26   12   13 2   
    27   12   15 1   
    28   13   14 1   
    29   13   20 1   
    30   14   41 1   
    31   14   42 1   
    32   14   43 1   
    33   15   16 1   
    34   15   19 2   
    35   16   17 2   
    36   16   18 1   
    37   18   51 1   
    38   19   20 1   
    39   20   21 1   
    40   20   44 1   
    41   21   22 1   
    42   21   25 1   
    43   21   45 1   
    44   22   23 1   
    45   22   24 1   
    46   25   26 1   
    47   25   27 1   
    48   25   46 1   
    49   26   47 1   
    50   27   48 1   
    51   27   49 1   
    52   27   50 1   
@<TRIPOS>SUBSTRUCTURE
     1 0RV         1 TEMP              0 ****  ****    0 ROOT
