@<TRIPOS>MOLECULE
0RV
   50    48     1     0     0
SMALL
bcc


@<TRIPOS>ATOM
      1 O           2.0050   -0.0980    1.7970 o         1 0RV     -0.436000
      2 C           3.2070   -0.1940    1.8170 c1        1 0RV      0.315000
      3 NAY         3.9100   -0.2530    3.0870 n3        1 0RV     -0.314000
      4 CAC         4.3420   -1.5310    3.6150 c3        1 0RV     -0.082000
      5 CAD         4.0730    0.9490    3.8810 c3        1 0RV     -0.082000
      6 CA          3.9320   -0.3570    0.5920 c2        1 0RV     -0.040000
      7 CB          3.4100    0.4130   -0.3440 c3        1 0RV     -0.152000
      8 N           3.6510   -1.8680   -0.0310 n3        1 0RV     -0.283000
      9 CD          2.6850   -1.6810   -1.1780 c3        1 0RV     -0.111000
     10 CG          2.2420   -0.4490   -1.0750 c3        1 0RV     -0.258000
     11 SAO         0.7120   -0.4170   -0.0630 ss        1 0RV      0.187000
     12 CAT        -0.7120   -0.6530   -1.1260 c2        1 0RV     -0.318000
     13 CAV        -1.4390    0.4340   -1.5520 c1        1 0RV     -0.071000
     14 CAB        -1.0100    1.8560   -1.1460 c2        1 0RV     -0.193000
     15 CAS        -1.4540   -1.6760   -0.9790 c2        1 0RV     -0.017000
     16 CAP        -0.8850   -3.0900   -1.2450 c2        1 0RV      0.379000
     17 OAE        -0.7630   -3.9090   -0.2920 o         1 0RV     -0.567000
     18 OAH        -0.6380   -3.4580   -2.4280 o         1 0RV     -0.567000
     19 NAN        -2.7750   -1.3900   -1.2910 n1        1 0RV     -0.180000
     20 CAZ        -2.9710    0.0890   -1.7270 c2        1 0RV     -0.030000
     21 CBA        -3.7740    0.8670   -0.9130 c3        1 0RV     -0.163000
     22 CAQ        -4.1760    0.0480    0.3530 c2        1 0RV      0.339000
     23 OAF        -4.8660   -1.0010    0.2330 o         1 0RV     -0.582000
     24 OAI        -3.7530    0.3940    1.4830 o         1 0RV     -0.582000
     25 CAU        -5.0660    1.2830   -1.6990 c3        1 0RV      0.048000
     26 OAJ        -4.7060    1.8720   -2.8960 oh        1 0RV     -0.383000
     27 CAA        -5.8660    2.2670   -0.8710 c3        1 0RV     -0.203000
     28 H1          4.6350   -2.1090    2.8760 h1        1 0RV      0.083333
     29 H2          5.0880   -1.3930    4.2370 h1        1 0RV      0.083333
     30 H3          3.5990   -1.9570    4.0870 h1        1 0RV      0.083333
     31 H4          3.2250    1.4510    3.8930 h1        1 0RV      0.083333
     32 H5          4.3210    0.7060    4.7940 h1        1 0RV      0.083333
     33 H6          4.7760    1.5060    3.4900 h1        1 0RV      0.083333
     34 H7          4.8470   -0.1520    0.8870 h4        1 0RV      0.095000
     35 H8          4.1030    0.6630   -1.0000 hc        1 0RV      0.092000
     36 H9          3.0270    1.2170    0.0600 hc        1 0RV      0.092000
     37 H10         4.4380   -2.2200   -0.3490 hn        1 0RV      0.146000
     38 H12         3.1480   -1.8040   -2.0340 h1        1 0RV      0.139000
     39 H13         1.9430   -2.3130   -1.1010 h1        1 0RV      0.139000
     40 H14         2.0640   -0.0840   -1.9610 h1        1 0RV      0.175000
     41 H15        -1.0900    1.9550   -0.1830 ha        1 0RV      0.092667
     42 H16        -0.0740    2.0060   -1.4150 ha        1 0RV      0.092667
     43 H17        -1.5910    2.5150   -1.5930 ha        1 0RV      0.092667
     44 H19        -3.3920    0.1860   -2.6060 ha        1 0RV      0.086000
     45 H20        -3.2860    1.6650   -0.6420 hc        1 0RV      0.072000
     46 H22        -5.6090    0.4900   -1.8760 h1        1 0RV      0.113000
     47 H23        -5.3660    1.7840   -3.4780 ho        1 0RV      0.211000
     48 H24        -5.5330    2.2680    0.0440 hc        1 0RV      0.068333
     49 H25        -5.7750    3.1700   -1.2550 hc        1 0RV      0.068333
     50 H26        -6.8130    2.0030   -0.8750 hc        1 0RV      0.068333
@<TRIPOS>BOND
     1    1    2 1   
     2    2    3 1   
     3    3    4 1   
     4    3    5 1   
     5    4   28 1   
     6    4   29 1   
     7    4   30 1   
     8    5   31 1   
     9    5   32 1   
    10    5   33 1   
    11    6    7 1   
    12    6    8 1   
    13    6   34 1   
    14    7   10 1   
    15    7   35 1   
    16    7   36 1   
    17    8    9 1   
    18    8   37 1   
    19    9   10 1   
    20    9   38 1   
    21    9   39 1   
    22   10   11 1   
    23   10   40 1   
    24   11   12 1   
    25   12   13 1   
    26   12   15 1   
    27   13   20 1   
    28   14   41 1   
    29   14   42 1   
    30   14   43 1   
    31   15   16 1   
    32   15   19 1   
    33   16   17 1   
    34   16   18 1   
    35   20   21 1   
    36   20   44 1   
    37   21   22 1   
    38   21   25 1   
    39   21   45 1   
    40   22   23 1   
    41   22   24 1   
    42   25   26 1   
    43   25   27 1   
    44   25   46 1   
    45   26   47 1   
    46   27   48 1   
    47   27   49 1   
    48   27   50 1   
@<TRIPOS>SUBSTRUCTURE
     1 0RV         1 TEMP              0 ****  ****    0 ROOT
