@<TRIPOS>MOLECULE
0RV
   50    51     1     0     0
SMALL
bcc


@<TRIPOS>ATOM
      1 O           6.2000    1.1090   -0.7760 o         1 0RV     -0.616100
      2 C           5.4750    0.4080   -0.0430 c         1 0RV      0.666100
      3 NAY         5.8390   -0.9280    0.1740 n         1 0RV     -0.487800
      4 CAC         6.8610   -1.5200   -0.6420 c3        1 0RV      0.073300
      5 CAD         4.9730   -1.8560    0.8500 c3        1 0RV      0.073300
      6 CA          4.2390    0.9370    0.6990 c3        1 0RV      0.102500
      7 CB          2.9590    0.2300    0.1930 c3        1 0RV     -0.090400
      8 N           4.0600    2.3890    0.5380 n3        1 0RV     -0.788200
      9 CD          2.7070    2.6280    0.0320 c3        1 0RV      0.162800
     10 CG          1.9010    1.3250    0.1340 c3        1 0RV     -0.053600
     11 SAO         0.8180    1.1590   -1.2480 ss        1 0RV     -0.213700
     12 CAT        -0.6200    0.5220   -0.6450 ce        1 0RV     -0.159000
     13 CAV        -1.8370    0.7410   -1.2310 c2        1 0RV     -0.093400
     14 CAB        -2.1960    1.6240   -2.3380 c3        1 0RV     -0.065900
     15 CAS        -0.8670   -0.4160    0.5080 ce        1 0RV      0.412600
     16 CAP         0.2600   -0.9990    1.3490 c         1 0RV      0.841300
     17 OAE         0.7750   -2.0900    0.9700 o         1 0RV     -0.838800
     18 OAH         0.6760   -0.3570    2.3550 o         1 0RV     -0.838800
     19 NAN        -2.1340   -0.7220    0.6340 n2        1 0RV     -0.554900
     20 CAZ        -2.8700   -0.1160   -0.4950 c3        1 0RV      0.143700
     21 CBA        -4.2010    0.5830   -0.2310 c3        1 0RV     -0.171700
     22 CAQ        -4.1370    1.9560    0.4840 c         1 0RV      0.927600
     23 OAF        -4.1760    2.0210    1.7420 o         1 0RV     -0.844300
     24 OAI        -4.1430    2.9800   -0.2660 o         1 0RV     -0.844300
     25 CAU        -5.1690   -0.3630    0.4810 c3        1 0RV      0.151100
     26 OAJ        -5.4020   -1.5540   -0.2770 oh        1 0RV     -0.628800
     27 CAA        -6.5050    0.3130    0.7480 c3        1 0RV     -0.121100
     28 H1          7.5490   -2.1260    0.0080 h1        1 0RV      0.039033
     29 H2          6.4150   -2.2030   -1.4160 h1        1 0RV      0.039033
     30 H3          7.4580   -0.7250   -1.1620 h1        1 0RV      0.039033
     31 H4          4.1170   -2.1810    0.1950 h1        1 0RV      0.039033
     32 H5          5.5650   -2.7640    1.1430 h1        1 0RV      0.039033
     33 H6          4.5510   -1.3930    1.7810 h1        1 0RV      0.039033
     34 H7          4.3900    0.6920    1.7930 h1        1 0RV      0.052700
     35 H8          3.1240   -0.2170   -0.8180 hc        1 0RV      0.092200
     36 H9          2.6300   -0.5820    0.8960 hc        1 0RV      0.092200
     37 H10         4.1800    2.8310    1.4300 hn        1 0RV      0.341800
     38 H12         2.2000    3.4560    0.5940 h1        1 0RV      0.049200
     39 H13         2.8040    2.9420   -1.0450 h1        1 0RV      0.049200
     40 H14         1.2970    1.3030    1.0860 h1        1 0RV      0.149700
     41 H15        -1.2960    2.1400   -2.7560 hc        1 0RV      0.051033
     42 H16        -2.6930    1.0500   -3.1590 hc        1 0RV      0.051033
     43 H17        -2.9200    2.3980   -1.9500 hc        1 0RV      0.051033
     44 H19        -3.1120   -0.9970   -1.1730 h1        1 0RV      0.049700
     45 H20        -4.6240    0.8020   -1.2570 hc        1 0RV      0.019700
     46 H22        -4.7160   -0.7250    1.4460 h1        1 0RV      0.106700
     47 H23        -5.5430   -1.2800   -1.1890 ho        1 0RV      0.371000
     48 H24        -7.2150   -0.4140    1.2100 hc        1 0RV      0.031367
     49 H25        -6.3420    1.1740    1.4420 hc        1 0RV      0.031367
     50 H26        -6.9530    0.6900   -0.2020 hc        1 0RV      0.031367
@<TRIPOS>BOND
     1    1    2 2   
     2    2    3 1   
     3    2    6 1   
     4    3    4 1   
     5    3    5 1   
     6    4   28 1   
     7    4   29 1   
     8    4   30 1   
     9    5   31 1   
    10    5   32 1   
    11    5   33 1   
    12    6    7 1   
    13    6    8 1   
    14    6   34 1   
    15    7   10 1   
    16    7   35 1   
    17    7   36 1   
    18    8    9 1   
    19    8   37 1   
    20    9   10 1   
    21    9   38 1   
    22    9   39 1   
    23   10   11 1   
    24   10   40 1   
    25   11   12 1   
    26   12   13 2   
    27   12   15 1   
    28   13   14 1   
    29   13   20 1   
    30   14   41 1   
    31   14   42 1   
    32   14   43 1   
    33   15   16 1   
    34   15   19 2   
    35   16   17 1   
    36   16   18 1   
    37   19   20 1   
    38   20   21 1   
    39   20   44 1   
    40   21   22 1   
    41   21   25 1   
    42   21   45 1   
    43   22   23 1   
    44   22   24 1   
    45   25   26 1   
    46   25   27 1   
    47   25   46 1   
    48   26   47 1   
    49   27   48 1   
    50   27   49 1   
    51   27   50 1   
@<TRIPOS>SUBSTRUCTURE
     1 0RV         1 TEMP              0 ****  ****    0 ROOT
