@<TRIPOS>MOLECULE
0RW
   18    19     1     0     0
SMALL
bcc


@<TRIPOS>ATOM
      1 C1         -0.0410    0.1420   -0.0220 ca        1 0RW     -0.145000
      2 C2          1.3280    0.1000   -0.0570 ca        1 0RW     -0.079000
      3 C3          2.0340    0.0050    1.1610 ca        1 0RW     -0.128000
      4 C4          1.3020   -0.0460    2.4300 ca        1 0RW     -0.077000
      5 C5         -0.1220    0.0010    2.4180 ca        1 0RW     -0.092000
      6 C6         -0.7580    0.0920    1.2100 ca        1 0RW     -0.124000
      7 C11         3.4000   -0.0610    1.5330 cc        1 0RW     -0.110300
      8 N12         3.4010   -0.1430    2.9260 na        1 0RW      0.051800
      9 N13         2.1930   -0.1360    3.4750 nc        1 0RW     -0.276400
     10 C14         4.6050   -0.0500    0.6930 c3        1 0RW     -0.034900
     11 H1         -0.6190    0.2160   -0.9550 ha        1 0RW      0.129000
     12 H2          1.8850    0.1380   -1.0040 ha        1 0RW      0.129000
     13 H3         -0.6740   -0.0370    3.3670 ha        1 0RW      0.143000
     14 H4         -1.8570    0.1300    1.1680 ha        1 0RW      0.130000
     15 H5          4.2070   -0.2030    3.5060 hn        1 0RW      0.319700
     16 H6          4.3030    0.0280   -0.3820 hc        1 0RW      0.054367
     17 H7          5.2620    0.8210    0.9410 hc        1 0RW      0.054367
     18 H8          5.1980   -0.9900    0.8280 hc        1 0RW      0.054367
@<TRIPOS>BOND
     1    1    2 ar  
     2    1    6 ar  
     3    1   11 1   
     4    2    3 ar  
     5    2   12 1   
     6    3    4 ar  
     7    3    7 2   
     8    4    5 ar  
     9    4    9 2   
    10    5    6 ar  
    11    5   13 1   
    12    6   14 1   
    13    7    8 1   
    14    7   10 1   
    15    8    9 1   
    16    8   15 1   
    17   10   16 1   
    18   10   17 1   
    19   10   18 1   
@<TRIPOS>SUBSTRUCTURE
     1 0RW         1 TEMP              0 ****  ****    0 ROOT
