@<TRIPOS>MOLECULE
0RW
   18    19     1     0     0
SMALL
bcc


@<TRIPOS>ATOM
      1 C1         -0.0310    0.1350   -0.0380 ca        1 0RW     -0.145000
      2 C2          1.3390    0.0940   -0.0620 ca        1 0RW     -0.079000
      3 C3          2.0340    0.0050    1.1620 ca        1 0RW     -0.128000
      4 C4          1.2930   -0.0430    2.4250 ca        1 0RW     -0.077000
      5 C5         -0.1310    0.0020    2.4020 ca        1 0RW     -0.092000
      6 C6         -0.7570    0.0890    1.1890 ca        1 0RW     -0.124000
      7 C11         3.3980   -0.0580    1.5440 cc        1 0RW     -0.110300
      8 N12         3.3880   -0.1350    2.9380 na        1 0RW      0.051800
      9 N13         2.1760   -0.1280    3.4780 nc        1 0RW     -0.276400
     10 C14         4.6100   -0.0490    0.7140 c3        1 0RW     -0.034900
     11 H1         -0.6020    0.2050   -0.9760 ha        1 0RW      0.129000
     12 H2          1.9020    0.1290   -1.0050 ha        1 0RW      0.129000
     13 H3         -0.6900   -0.0330    3.3470 ha        1 0RW      0.143000
     14 H4         -1.8560    0.1260    1.1380 ha        1 0RW      0.130000
     15 H5          4.1900   -0.1930    3.5250 hn        1 0RW      0.319700
     16 H6          5.2640    0.8240    0.9640 hc        1 0RW      0.054367
     17 H7          5.2030   -0.9880    0.8570 hc        1 0RW      0.054367
     18 H8          4.3160    0.0240   -0.3630 hc        1 0RW      0.054367
@<TRIPOS>BOND
     1    1    2 ar  
     2    1    6 ar  
     3    1   11 1   
     4    2    3 ar  
     5    2   12 1   
     6    3    4 ar  
     7    3    7 2   
     8    4    5 ar  
     9    4    9 2   
    10    5    6 ar  
    11    5   13 1   
    12    6   14 1   
    13    7    8 1   
    14    7   10 1   
    15    8    9 1   
    16    8   15 1   
    17   10   16 1   
    18   10   17 1   
    19   10   18 1   
@<TRIPOS>SUBSTRUCTURE
     1 0RW         1 TEMP              0 ****  ****    0 ROOT
