@<TRIPOS>MOLECULE
0RX
   48    51     1     0     0
SMALL
bcc


@<TRIPOS>ATOM
      1 O1         -0.1220    0.7490    0.2300 o         1 0RX     -0.572100
      2 C1          1.0300    0.2820    0.1880 c         1 0RX      0.677700
      3 C13         1.9250    0.3230    1.3870 ca        1 0RX     -0.088600
      4 C21         1.3640    0.0630    2.6360 ca        1 0RX     -0.220300
      5 C16         2.1990    0.1090    3.7960 ca        1 0RX      0.623200
      6 N4          1.5960   -0.0770    5.0710 nh        1 0RX     -0.728300
      7 C20         2.4240    0.2000    6.2400 c3        1 0RX      0.150300
      8 C19         1.6170    0.1070    7.5420 c3        1 0RX      0.122400
      9 O3          0.9280   -1.1330    7.6490 os        1 0RX     -0.412600
     10 C18         0.0670   -1.3610    6.5410 c3        1 0RX      0.122400
     11 C17         0.8310   -1.3110    5.2110 c3        1 0RX      0.150300
     12 N3          3.5340    0.4100    3.6930 nb        1 0RX     -0.699000
     13 C15         4.0290    0.6780    2.4770 ca        1 0RX      0.425200
     14 C14         3.2820    0.6430    1.2870 ca        1 0RX     -0.262300
     15 N1          1.5680   -0.3210   -0.9410 n         1 0RX     -0.467100
     16 C2          0.9450   -0.5040   -2.1860 ca        1 0RX      0.068600
     17 C12        -0.2750    0.1170   -2.5350 ca        1 0RX     -0.159000
     18 C11        -0.8350   -0.0920   -3.7900 ca        1 0RX     -0.108500
     19 C5         -0.1890   -0.9200   -4.7120 ca        1 0RX      0.054100
     20 C4          1.0200   -1.5490   -4.3890 ca        1 0RX     -0.108500
     21 C3          1.5830   -1.3390   -3.1380 ca        1 0RX     -0.159000
     22 O2         -0.6440   -1.0430   -6.0260 os        1 0RX     -0.243200
     23 C6         -1.8720   -1.6590   -6.2020 ca        1 0RX      0.153100
     24 C10        -2.6060   -2.2890   -5.1890 ca        1 0RX     -0.289800
     25 C9         -3.8250   -2.8910   -5.5480 ca        1 0RX      0.418700
     26 N2         -4.3230   -2.8950   -6.7990 nb        1 0RX     -0.685000
     27 C8         -3.5950   -2.2800   -7.7550 ca        1 0RX      0.418700
     28 C7         -2.3670   -1.6450   -7.5200 ca        1 0RX     -0.289800
     29 H1          0.2850   -0.1390    2.7140 ha        1 0RX      0.169000
     30 H2          3.2940   -0.5140    6.3060 h1        1 0RX      0.055700
     31 H3          2.8290    1.2460    6.1480 h1        1 0RX      0.055700
     32 H4          2.3130    0.1180    8.4210 h1        1 0RX      0.058450
     33 H5          0.8840    0.9530    7.6190 h1        1 0RX      0.058450
     34 H6         -0.7660   -0.6090    6.5490 h1        1 0RX      0.058450
     35 H7         -0.3400   -2.3930    6.7070 h1        1 0RX      0.058450
     36 H8          1.5070   -2.2120    5.1530 h1        1 0RX      0.055700
     37 H9          0.0830   -1.3780    4.3730 h1        1 0RX      0.055700
     38 H10         5.1050    0.9310    2.4570 h4        1 0RX      0.028100
     39 H11         3.7570    0.8860    0.3290 ha        1 0RX      0.149000
     40 H12         2.4780   -0.7200   -0.8520 hn        1 0RX      0.322500
     41 H13        -0.7980    0.7730   -1.8190 ha        1 0RX      0.157000
     42 H14        -1.7850    0.3960   -4.0600 ha        1 0RX      0.153000
     43 H15         1.5190   -2.1920   -5.1290 ha        1 0RX      0.153000
     44 H16         2.5370   -1.8340   -2.8970 ha        1 0RX      0.157000
     45 H17        -2.2460   -2.3150   -4.1530 ha        1 0RX      0.158000
     46 H18        -4.4400   -3.4010   -4.7850 h4        1 0RX      0.024100
     47 H19        -4.0280   -2.2980   -8.7720 h4        1 0RX      0.024100
     48 H20        -1.8050   -1.1570   -8.3250 ha        1 0RX      0.158000
@<TRIPOS>BOND
     1    1    2 2   
     2    2    3 1   
     3    2   15 1   
     4    3    4 ar  
     5    3   14 ar  
     6    4    5 ar  
     7    4   29 1   
     8    5    6 1   
     9    5   12 ar  
    10    6    7 1   
    11    6   11 1   
    12    7    8 1   
    13    7   30 1   
    14    7   31 1   
    15    8    9 1   
    16    8   32 1   
    17    8   33 1   
    18    9   10 1   
    19   10   11 1   
    20   10   34 1   
    21   10   35 1   
    22   11   36 1   
    23   11   37 1   
    24   12   13 ar  
    25   13   14 ar  
    26   13   38 1   
    27   14   39 1   
    28   15   16 1   
    29   15   40 1   
    30   16   17 ar  
    31   16   21 ar  
    32   17   18 ar  
    33   17   41 1   
    34   18   19 ar  
    35   18   42 1   
    36   19   20 ar  
    37   19   22 1   
    38   20   21 ar  
    39   20   43 1   
    40   21   44 1   
    41   22   23 1   
    42   23   24 ar  
    43   23   28 ar  
    44   24   25 ar  
    45   24   45 1   
    46   25   26 ar  
    47   25   46 1   
    48   26   27 ar  
    49   27   28 ar  
    50   27   47 1   
    51   28   48 1   
@<TRIPOS>SUBSTRUCTURE
     1 0RX         1 TEMP              0 ****  ****    0 ROOT
