@<TRIPOS>MOLECULE
0RX
   48    51     1     0     0
SMALL
bcc


@<TRIPOS>ATOM
      1 O1         -0.1170    0.7480    0.2250 o         1 0RX     -0.572100
      2 C1          1.0340    0.2780    0.1860 c         1 0RX      0.677700
      3 C13         1.9280    0.3200    1.3850 ca        1 0RX     -0.088600
      4 C21         1.3650    0.0630    2.6350 ca        1 0RX     -0.220300
      5 C16         2.1990    0.1110    3.7950 ca        1 0RX      0.623200
      6 N4          1.5940   -0.0710    5.0710 nh        1 0RX     -0.728300
      7 C20         2.4210    0.2080    6.2390 c3        1 0RX      0.150300
      8 C19         1.6120    0.1190    7.5410 c3        1 0RX      0.122400
      9 O3          0.9220   -1.1210    7.6500 os        1 0RX     -0.412600
     10 C18         0.0610   -1.3500    6.5420 c3        1 0RX      0.122400
     11 C17         0.8270   -1.3040    5.2120 c3        1 0RX      0.150300
     12 N3          3.5340    0.4100    3.6940 nb        1 0RX     -0.699000
     13 C15         4.0310    0.6740    2.4770 ca        1 0RX      0.425200
     14 C14         3.2860    0.6370    1.2870 ca        1 0RX     -0.262300
     15 N1          1.5720   -0.3290   -0.9420 ns        1 0RX     -0.467100
     16 C2          0.9500   -0.5140   -2.1860 ca        1 0RX      0.068600
     17 C12        -0.2660    0.1110   -2.5390 ca        1 0RX     -0.159000
     18 C11        -0.8260   -0.0990   -3.7950 ca        1 0RX     -0.109000
     19 C5         -0.1820   -0.9340   -4.7120 ca        1 0RX      0.054100
     20 C4          1.0220   -1.5680   -4.3850 ca        1 0RX     -0.109000
     21 C3          1.5850   -1.3560   -3.1340 ca        1 0RX     -0.159000
     22 O2         -0.6360   -1.0600   -6.0270 os        1 0RX     -0.243200
     23 C6         -1.8700   -1.6650   -6.2020 ca        1 0RX      0.153100
     24 C10        -2.6110   -2.2840   -5.1880 ca        1 0RX     -0.289800
     25 C9         -3.8360   -2.8750   -5.5460 ca        1 0RX      0.418700
     26 N2         -4.3320   -2.8780   -6.7970 nb        1 0RX     -0.685000
     27 C8         -3.5980   -2.2740   -7.7540 ca        1 0RX      0.418700
     28 C7         -2.3630   -1.6500   -7.5200 ca        1 0RX     -0.289800
     29 H1          0.2850   -0.1360    2.7120 ha        1 0RX      0.169000
     30 H2          3.2900   -0.5070    6.3080 h1        1 0RX      0.055700
     31 H3          2.8270    1.2530    6.1450 h1        1 0RX      0.055700
     32 H4          0.8800    0.9650    7.6150 h1        1 0RX      0.058450
     33 H5          2.3080    0.1310    8.4210 h1        1 0RX      0.058450
     34 H6         -0.3470   -2.3810    6.7100 h1        1 0RX      0.058450
     35 H7         -0.7710   -0.5980    6.5460 h1        1 0RX      0.058450
     36 H8          0.0810   -1.3720    4.3740 h1        1 0RX      0.055700
     37 H9          1.5030   -2.2060    5.1570 h1        1 0RX      0.055700
     38 H10         5.1080    0.9260    2.4580 h4        1 0RX      0.028100
     39 H11         3.7620    0.8770    0.3280 ha        1 0RX      0.149000
     40 H12         2.4800   -0.7310   -0.8500 hn        1 0RX      0.322500
     41 H13        -0.7870    0.7740   -1.8270 ha        1 0RX      0.157000
     42 H14        -1.7730    0.3920   -4.0670 ha        1 0RX      0.153000
     43 H15         1.5190   -2.2170   -5.1220 ha        1 0RX      0.153000
     44 H16         2.5360   -1.8550   -2.8900 ha        1 0RX      0.157000
     45 H17        -2.2530   -2.3100   -4.1510 ha        1 0RX      0.158000
     46 H18        -4.4560   -3.3770   -4.7810 h4        1 0RX      0.024100
     47 H19        -4.0290   -2.2920   -8.7710 h4        1 0RX      0.024100
     48 H20        -1.7960   -1.1700   -8.3260 ha        1 0RX      0.158000
@<TRIPOS>BOND
     1    1    2 2   
     2    2    3 1   
     3    2   15 1   
     4    3    4 ar  
     5    3   14 ar  
     6    4    5 ar  
     7    4   29 1   
     8    5    6 1   
     9    5   12 ar  
    10    6    7 1   
    11    6   11 1   
    12    7    8 1   
    13    7   30 1   
    14    7   31 1   
    15    8    9 1   
    16    8   32 1   
    17    8   33 1   
    18    9   10 1   
    19   10   11 1   
    20   10   34 1   
    21   10   35 1   
    22   11   36 1   
    23   11   37 1   
    24   12   13 ar  
    25   13   14 ar  
    26   13   38 1   
    27   14   39 1   
    28   15   16 1   
    29   15   40 1   
    30   16   17 ar  
    31   16   21 ar  
    32   17   18 ar  
    33   17   41 1   
    34   18   19 ar  
    35   18   42 1   
    36   19   20 ar  
    37   19   22 1   
    38   20   21 ar  
    39   20   43 1   
    40   21   44 1   
    41   22   23 1   
    42   23   24 ar  
    43   23   28 ar  
    44   24   25 ar  
    45   24   45 1   
    46   25   26 ar  
    47   25   46 1   
    48   26   27 ar  
    49   27   28 ar  
    50   27   47 1   
    51   28   48 1   
@<TRIPOS>SUBSTRUCTURE
     1 0RX         1 TEMP              0 ****  ****    0 ROOT
