@<TRIPOS>MOLECULE
0RX
   48    41     1     0     0
SMALL
bcc


@<TRIPOS>ATOM
      1 O1         -1.1590    0.1800    0.3620 o         1 0RX     -0.335000
      2 C1          0.0310   -0.0100    0.3940 c1        1 0RX      0.352000
      3 C13         0.7850    0.0660    1.7350 c2        1 0RX     -0.069000
      4 C21         0.0900    0.3840    2.9120 c1        1 0RX     -0.152000
      5 C16         0.7730    0.4840    4.1080 c1        1 0RX      0.100000
      6 N4          0.0520    0.7520    5.3300 n3        1 0RX     -0.219000
      7 C20         0.6530    1.8200    5.9990 c3        1 0RX     -0.089000
      8 C19         0.0390    2.0610    7.3860 c3        1 0RX     -0.028000
      9 O3         -0.0090    0.8770    8.1710 os        1 0RX     -0.268000
     10 C18        -0.6170   -0.2020    7.4910 c3        1 0RX     -0.028000
     11 C17        -0.0030   -0.4410    6.1200 c3        1 0RX     -0.089000
     12 N3          2.1390    0.2720    4.1460 n1        1 0RX     -0.172000
     13 C15         2.8220   -0.0390    2.9980 c1        1 0RX     -0.041000
     14 C14         2.1370   -0.1440    1.7770 c2        1 0RX     -0.197000
     15 N1          0.7430   -0.3390   -0.8220 n2        1 0RX     -0.320000
     16 C2          0.0330   -0.4360   -2.0630 c1        1 0RX      0.076000
     17 C12         0.0020   -1.6610   -2.7630 c1        1 0RX     -0.140250
     18 C11        -0.7110   -1.7630   -3.9700 c1        1 0RX     -0.140250
     19 C5         -1.3920   -0.6470   -4.4780 c1        1 0RX      0.009000
     20 C4         -1.3580    0.5760   -3.7760 c1        1 0RX     -0.118000
     21 C3         -0.6410    0.6730   -2.5660 c1        1 0RX     -0.145000
     22 O2         -2.2010   -0.7760   -5.6580 o         1 0RX     -0.153000
     23 C6         -1.3740   -0.6660   -6.8050 c1        1 0RX      0.108000
     24 C10        -1.1010    0.5450   -7.3170 c1        1 0RX     -0.140250
     25 C9         -0.4000    0.6520   -8.5040 c1        1 0RX     -0.140250
     26 N2          0.0080   -0.4470   -9.1420 n1        1 0RX     -0.159000
     27 C8         -0.2650   -1.6700   -8.6290 c1        1 0RX     -0.049000
     28 C7         -0.9610   -1.7810   -7.4520 c1        1 0RX     -0.205000
     29 H1         -0.9010    0.6080    2.8720 ha        1 0RX      0.167000
     30 H2          0.5410    2.6220    5.4640 h1        1 0RX      0.096500
     31 H3          1.6370    1.6320    6.1040 h1        1 0RX      0.096500
     32 H4          0.5620    2.7150    7.8450 h1        1 0RX      0.097250
     33 H5         -0.8910    2.4120    7.2730 h1        1 0RX      0.097250
     34 H6         -1.5680   -0.0130    7.3830 h1        1 0RX      0.097250
     35 H7         -0.5150   -1.0240    8.0350 h1        1 0RX      0.097250
     36 H8         -0.5650   -1.1360    5.6220 h1        1 0RX      0.096500
     37 H9          0.9090   -0.7910    6.2380 h1        1 0RX      0.096500
     38 H10         3.8190   -0.1940    3.0320 ha        1 0RX      0.165000
     39 H11         2.6530   -0.3780    0.9110 ha        1 0RX      0.149000
     40 H12         1.6430   -0.4560   -0.8030 hn        1 0RX      0.236000
     41 H13         0.4630   -2.4160   -2.4180 ha        1 0RX      0.151750
     42 H14        -0.7330   -2.6130   -4.4560 ha        1 0RX      0.151750
     43 H15        -1.8290    1.3540   -4.1260 ha        1 0RX      0.153000
     44 H16        -0.6170    1.5540   -2.0590 ha        1 0RX      0.179000
     45 H17        -1.3990    1.3550   -6.8480 ha        1 0RX      0.151750
     46 H18        -0.2020    1.5340   -8.8760 ha        1 0RX      0.151750
     47 H19         0.0250   -2.4460   -9.0830 ha        1 0RX      0.161000
     48 H20        -1.1520   -2.6390   -7.0920 ha        1 0RX      0.160000
@<TRIPOS>BOND
     1    1    2 1   
     2    2    3 1   
     3    3    4 1   
     4    3   14 1   
     5    4   29 1   
     6    5    6 1   
     7    5   12 1   
     8    6    7 1   
     9    6   11 1   
    10    7    8 1   
    11    7   30 1   
    12    7   31 1   
    13    8    9 1   
    14    8   32 1   
    15    8   33 1   
    16    9   10 1   
    17   10   11 1   
    18   10   34 1   
    19   10   35 1   
    20   11   36 1   
    21   11   37 1   
    22   13   14 1   
    23   13   38 1   
    24   14   39 1   
    25   15   16 1   
    26   15   40 1   
    27   16   21 1   
    28   17   18 1   
    29   17   41 1   
    30   18   42 1   
    31   19   20 1   
    32   20   43 1   
    33   21   44 1   
    34   22   23 1   
    35   23   28 1   
    36   24   25 1   
    37   24   45 1   
    38   25   46 1   
    39   26   27 1   
    40   27   47 1   
    41   28   48 1   
@<TRIPOS>SUBSTRUCTURE
     1 0RX         1 TEMP              0 ****  ****    0 ROOT
