@<TRIPOS>MOLECULE
0RX
   48    51     1     0     0
SMALL
bcc


@<TRIPOS>ATOM
      1 O1          0.5600    0.0170    1.5360 o         1 0RX     -0.572100
      2 C1          0.8220    0.8230    0.6260 c         1 0RX      0.677700
      3 C13         2.2350    1.2050    0.3130 ca        1 0RX     -0.088600
      4 C21         3.2080    0.2070    0.3430 ca        1 0RX     -0.220300
      5 C16         4.5660    0.5540    0.0590 ca        1 0RX      0.623200
      6 N4          5.5600   -0.4590    0.1740 nh        1 0RX     -0.728300
      7 C20         6.9510   -0.0280    0.1050 c3        1 0RX      0.150300
      8 C19         7.9180   -1.1850    0.3900 c3        1 0RX      0.122400
      9 O3          7.6570   -2.3090   -0.4430 os        1 0RX     -0.412600
     10 C18         6.3180   -2.7680   -0.3140 c3        1 0RX      0.122400
     11 C17         5.3060   -1.6560   -0.6200 c3        1 0RX      0.150300
     12 N3          4.9190    1.8470   -0.2320 nb        1 0RX     -0.699000
     13 C15         3.9570    2.7800   -0.2250 ca        1 0RX      0.425200
     14 C14         2.5990    2.5240    0.0300 ca        1 0RX     -0.262300
     15 N1         -0.1490    1.4120   -0.1740 n         1 0RX     -0.467100
     16 C2         -1.5380    1.2180   -0.1060 ca        1 0RX      0.067600
     17 C12        -2.1710    0.5510    0.9650 ca        1 0RX     -0.159000
     18 C11        -3.5540    0.4040    0.9840 ca        1 0RX     -0.109000
     19 C5         -4.3220    0.9200   -0.0640 ca        1 0RX      0.054100
     20 C4         -3.7180    1.5830   -1.1390 ca        1 0RX     -0.109000
     21 C3         -2.3380    1.7340   -1.1570 ca        1 0RX     -0.159000
     22 O2         -5.7170    0.9170   -0.0160 os        1 0RX     -0.243200
     23 C6         -6.3360   -0.3210   -0.0450 ca        1 0RX      0.153100
     24 C10        -5.6840   -1.5400   -0.2730 ca        1 0RX     -0.289800
     25 C9         -6.4720   -2.7040   -0.2980 ca        1 0RX      0.418700
     26 N2         -7.8060   -2.7140   -0.1180 nb        1 0RX     -0.685000
     27 C8         -8.4080   -1.5260    0.1000 ca        1 0RX      0.418700
     28 C7         -7.7310   -0.2990    0.1480 ca        1 0RX     -0.289800
     29 H1          2.9230   -0.8200    0.6160 ha        1 0RX      0.169000
     30 H2          7.1980    0.4040   -0.9070 h1        1 0RX      0.055700
     31 H3          7.1150    0.7700    0.8800 h1        1 0RX      0.055700
     32 H4          8.9650   -0.8790    0.1270 h1        1 0RX      0.058450
     33 H5          7.8640   -1.4950    1.4670 h1        1 0RX      0.058450
     34 H6          6.2250   -3.5870   -1.0750 h1        1 0RX      0.058450
     35 H7          6.1570   -3.1780    0.7180 h1        1 0RX      0.058450
     36 H8          4.2760   -2.0420   -0.3860 h1        1 0RX      0.055700
     37 H9          5.3540   -1.4240   -1.7240 h1        1 0RX      0.055700
     38 H10         4.3030    3.8070   -0.4490 h4        1 0RX      0.028100
     39 H11         1.8720    3.3450    0.0280 ha        1 0RX      0.149000
     40 H12         0.1690    1.9940   -0.9180 hn        1 0RX      0.322500
     41 H13        -1.5790    0.1380    1.8000 ha        1 0RX      0.157000
     42 H14        -4.0440   -0.1150    1.8220 ha        1 0RX      0.153000
     43 H15        -4.3380    1.9880   -1.9520 ha        1 0RX      0.153000
     44 H16        -1.8750    2.2620   -2.0050 ha        1 0RX      0.157000
     45 H17        -4.5990   -1.5880   -0.4260 ha        1 0RX      0.158000
     46 H18        -6.0030   -3.6890   -0.4750 h4        1 0RX      0.024100
     47 H19        -9.5030   -1.5640    0.2440 h4        1 0RX      0.024100
     48 H20        -8.2580    0.6460    0.3270 ha        1 0RX      0.158000
@<TRIPOS>BOND
     1    1    2 2   
     2    2    3 1   
     3    2   15 1   
     4    3    4 ar  
     5    3   14 ar  
     6    4    5 ar  
     7    4   29 1   
     8    5    6 1   
     9    5   12 ar  
    10    6    7 1   
    11    6   11 1   
    12    7    8 1   
    13    7   30 1   
    14    7   31 1   
    15    8    9 1   
    16    8   32 1   
    17    8   33 1   
    18    9   10 1   
    19   10   11 1   
    20   10   34 1   
    21   10   35 1   
    22   11   36 1   
    23   11   37 1   
    24   12   13 ar  
    25   13   14 ar  
    26   13   38 1   
    27   14   39 1   
    28   15   16 1   
    29   15   40 1   
    30   16   17 ar  
    31   16   21 ar  
    32   17   18 ar  
    33   17   41 1   
    34   18   19 ar  
    35   18   42 1   
    36   19   20 ar  
    37   19   22 1   
    38   20   21 ar  
    39   20   43 1   
    40   21   44 1   
    41   22   23 1   
    42   23   24 ar  
    43   23   28 ar  
    44   24   25 ar  
    45   24   45 1   
    46   25   26 ar  
    47   25   46 1   
    48   26   27 ar  
    49   27   28 ar  
    50   27   47 1   
    51   28   48 1   
@<TRIPOS>SUBSTRUCTURE
     1 0RX         1 TEMP              0 ****  ****    0 ROOT
