@<TRIPOS>MOLECULE
0RX
   49    52     1     0     0
SMALL
bcc


@<TRIPOS>ATOM
      1 O1         -1.2080    0.8250    0.6840 o         1 0RX     -0.422100
      2 C1         -0.0090    0.8120    0.4480 c         1 0RX      0.579700
      3 C13         1.0820    0.2330    1.2430 ca        1 0RX     -0.102600
      4 C21         0.8810    0.1410    2.6210 ca        1 0RX     -0.256300
      5 C16         1.9240   -0.4140    3.4430 ca        1 0RX      0.684200
      6 N4          1.8150   -0.4150    4.8310 nh        1 0RX     -0.731300
      7 C20         2.7530   -1.2240    5.5980 c3        1 0RX      0.163300
      8 C19         2.6410   -1.0310    7.1150 c3        1 0RX      0.116900
      9 O3          1.2900   -1.0960    7.5520 os        1 0RX     -0.392600
     10 C18         0.5040   -0.0850    6.9440 c3        1 0RX      0.116900
     11 C17         0.5000   -0.2010    5.4120 c3        1 0RX      0.163300
     12 N3          3.0830   -0.8930    2.8580 nb        1 0RX     -0.683000
     13 C15         3.2210   -0.7950    1.5360 ca        1 0RX      0.469200
     14 C14         2.2650   -0.2350    0.6640 ca        1 0RX     -0.300300
     15 N1          0.4040    1.5530   -0.8190 n4        1 0RX     -0.535200
     16 C2          0.3010    0.7100   -2.0110 ca        1 0RX     -0.113400
     17 C12        -0.9470    0.1780   -2.3830 ca        1 0RX     -0.063000
     18 C11        -1.0500   -0.6010   -3.5280 ca        1 0RX     -0.160000
     19 C5          0.0920   -0.8500   -4.3050 ca        1 0RX      0.194100
     20 C4          1.3480   -0.3180   -3.9330 ca        1 0RX     -0.160000
     21 C3          1.4500    0.4580   -2.7910 ca        1 0RX     -0.063000
     22 O2          0.1070   -1.5840   -5.4650 os        1 0RX     -0.223200
     23 C6         -1.0890   -2.2030   -5.8510 ca        1 0RX      0.091100
     24 C10        -1.6220   -3.2760   -5.1260 ca        1 0RX     -0.250300
     25 C9         -2.7400   -3.9300   -5.6780 ca        1 0RX      0.416700
     26 N2         -3.3110   -3.5770   -6.8460 nb        1 0RX     -0.641000
     27 C8         -2.7730   -2.5440   -7.5200 ca        1 0RX      0.416700
     28 C7         -1.6570   -1.8100   -7.0690 ca        1 0RX     -0.250300
     29 H1         -0.0730    0.4790    3.0520 ha        1 0RX      0.170000
     30 H2          2.5900   -2.3150    5.3580 h1        1 0RX      0.063950
     31 H3          3.8040   -0.9480    5.2980 h1        1 0RX      0.063950
     32 H4          3.1510   -1.8820    7.6410 h1        1 0RX      0.070950
     33 H5          3.0970   -0.0550    7.4270 h1        1 0RX      0.070950
     34 H6         -0.5340   -0.2560    7.3340 h1        1 0RX      0.070950
     35 H7          0.8740    0.9270    7.2570 h1        1 0RX      0.070950
     36 H8          0.0830    0.7680    5.0160 h1        1 0RX      0.063950
     37 H9         -0.1910   -1.0410    5.1130 h1        1 0RX      0.063950
     38 H10         4.1700   -1.2030    1.1340 h4        1 0RX      0.049100
     39 H11         2.4490   -0.2280   -0.4170 ha        1 0RX      0.147000
     40 H12         1.3710    1.8830   -0.7160 hn        1 0RX      0.462300
     41 H13        -1.8490    0.3680   -1.7740 ha        1 0RX      0.161500
     42 H14        -2.0260   -1.0200   -3.8240 ha        1 0RX      0.184000
     43 H15         2.2310   -0.5240   -4.5600 ha        1 0RX      0.184000
     44 H16         2.4330    0.8740   -2.5140 ha        1 0RX      0.161500
     45 H17        -1.1790   -3.6070   -4.1790 ha        1 0RX      0.162500
     46 H18        -3.2010   -4.7900   -5.1560 h4        1 0RX      0.042600
     47 H19        -3.2610   -2.2870   -8.4790 h4        1 0RX      0.042600
     48 H20        -1.2400   -0.9820   -7.6570 ha        1 0RX      0.162500
     49 H121       -0.2200    2.3620   -0.9460 hn        1 0RX      0.462300
@<TRIPOS>BOND
     1    1    2 2   
     2    2    3 1   
     3    2   15 1   
     4    3    4 ar  
     5    3   14 ar  
     6    4    5 ar  
     7    4   29 1   
     8    5    6 1   
     9    5   12 ar  
    10    6    7 1   
    11    6   11 1   
    12    7    8 1   
    13    7   30 1   
    14    7   31 1   
    15    8    9 1   
    16    8   32 1   
    17    8   33 1   
    18    9   10 1   
    19   10   11 1   
    20   10   34 1   
    21   10   35 1   
    22   11   36 1   
    23   11   37 1   
    24   12   13 ar  
    25   13   14 ar  
    26   13   38 1   
    27   14   39 1   
    28   15   16 1   
    29   15   40 1   
    30   15   49 1   
    31   16   17 ar  
    32   16   21 ar  
    33   17   18 ar  
    34   17   41 1   
    35   18   19 ar  
    36   18   42 1   
    37   19   20 ar  
    38   19   22 1   
    39   20   21 ar  
    40   20   43 1   
    41   21   44 1   
    42   22   23 1   
    43   23   24 ar  
    44   23   28 ar  
    45   24   25 ar  
    46   24   45 1   
    47   25   26 ar  
    48   25   46 1   
    49   26   27 ar  
    50   27   28 ar  
    51   27   47 1   
    52   28   48 1   
@<TRIPOS>SUBSTRUCTURE
     1 0RX         1 TEMP              0 ****  ****    0 ROOT
