@<TRIPOS>MOLECULE
0RY
   27    27     1     0     0
SMALL
bcc


@<TRIPOS>ATOM
      1 OAB        -0.7140   -1.5720   -2.6360 o         1 0RY     -0.814800
      2 CAM        -0.3700   -1.2750   -1.4480 c         1 0RY      0.883800
      3 OAE        -1.0510   -1.5420   -0.4280 o         1 0RY     -0.814800
      4 CAF         0.9400   -0.5390   -1.2410 ce        1 0RY     -0.106200
      5 CAG         1.1710    0.7530   -1.5040 cf        1 0RY     -0.293200
      6 CAO         0.1550    1.6660   -2.0630 c         1 0RY      0.698300
      7 OAD        -0.0220    2.8300   -1.6410 o         1 0RY     -0.660100
      8 NAL        -0.6010    1.1670   -3.1450 n         1 0RY     -0.456100
      9 CAP        -1.9290    1.5300   -3.3510 ca        1 0RY      0.104600
     10 CAK        -2.3880    2.8330   -3.0920 ca        1 0RY     -0.174000
     11 CAI        -2.8650    0.5640   -3.8320 ca        1 0RY     -0.069000
     12 CAH        -4.1880    0.9170   -4.0450 ca        1 0RY     -0.123000
     13 CAJ        -4.6550    2.1970   -3.7330 ca        1 0RY     -0.073000
     14 CAQ        -3.7540    3.1380   -3.2190 ca        1 0RY     -0.197600
     15 CAN        -4.2700    4.4110   -2.7530 c         1 0RY      0.591700
     16 OAC        -5.2840    5.0370   -3.0270 o         1 0RY     -0.453100
     17 NAA        -3.4200    5.0690   -1.6600 n4        1 0RY     -0.768400
     18 H2          1.7280   -1.1590   -0.7810 ha        1 0RY      0.134000
     19 H3          2.1240    1.2490   -1.2660 ha        1 0RY      0.140000
     20 H4         -0.3860    0.2060   -3.4070 hn        1 0RY      0.378500
     21 H5         -1.6510    3.5960   -2.7970 ha        1 0RY      0.158000
     22 H6         -2.5230   -0.4820   -3.9870 ha        1 0RY      0.210000
     23 H7         -4.8950    0.1660   -4.4340 ha        1 0RY      0.159000
     24 H8         -5.7170    2.4550   -3.8640 ha        1 0RY      0.152000
     25 H9         -2.5880    5.4900   -2.0830 hn        1 0RY      0.464800
     26 H10        -3.9570    5.7900   -1.1750 hn        1 0RY      0.464800
     27 HAA3       -3.1100    4.3500   -0.9960 hn        1 0RY      0.464800
@<TRIPOS>BOND
     1    1    2 1   
     2    2    3 1   
     3    2    4 1   
     4    4    5 2   
     5    4   18 1   
     6    5    6 1   
     7    5   19 1   
     8    6    7 2   
     9    6    8 1   
    10    8    9 1   
    11    8   20 1   
    12    9   10 ar  
    13    9   11 ar  
    14   10   14 ar  
    15   10   21 1   
    16   11   12 ar  
    17   11   22 1   
    18   12   13 ar  
    19   12   23 1   
    20   13   14 ar  
    21   13   24 1   
    22   14   15 1   
    23   15   16 2   
    24   15   17 1   
    25   17   25 1   
    26   17   26 1   
    27   17   27 1   
@<TRIPOS>SUBSTRUCTURE
     1 0RY         1 TEMP              0 ****  ****    0 ROOT
