@<TRIPOS>MOLECULE
0RY
   27    27     1     0     0
SMALL
bcc


@<TRIPOS>ATOM
      1 OAB        -0.7140   -1.5740   -2.4500 o         1 0RY     -0.814800
      2 CAM        -0.3210   -1.1950   -1.3020 c         1 0RY      0.883800
      3 OAE        -0.9580   -1.3890   -0.2380 o         1 0RY     -0.814800
      4 CAF         0.9950   -0.4480   -1.2030 ce        1 0RY     -0.106200
      5 CAG         1.2120    0.8220   -1.5660 cf        1 0RY     -0.293200
      6 CAO         0.1720    1.6950   -2.1450 c         1 0RY      0.698300
      7 OAD         0.0100    2.8860   -1.7990 o         1 0RY     -0.660100
      8 NAL        -0.6280    1.1210   -3.1560 ns        1 0RY     -0.456100
      9 CAP        -1.9640    1.4710   -3.3310 ca        1 0RY      0.104600
     10 CAK        -2.4140    2.7890   -3.1460 ca        1 0RY     -0.174000
     11 CAI        -2.9180    0.4740   -3.7040 ca        1 0RY     -0.069000
     12 CAH        -4.2490    0.8140   -3.8860 ca        1 0RY     -0.123000
     13 CAJ        -4.7050    2.1120   -3.6470 ca        1 0RY     -0.073000
     14 CAQ        -3.7840    3.0860   -3.2380 ca        1 0RY     -0.197600
     15 CAN        -4.2830    4.3900   -2.8420 c         1 0RY      0.591700
     16 OAC        -5.3080    4.9960   -3.1170 o         1 0RY     -0.453100
     17 NAA        -3.3900    5.1220   -1.8340 nz        1 0RY     -0.768400
     18 H2          1.8020   -1.0340   -0.7330 ha        1 0RY      0.134000
     19 H3          2.1740    1.3330   -1.4040 ha        1 0RY      0.140000
     20 H4         -0.4230    0.1440   -3.3580 hn        1 0RY      0.379500
     21 H5         -1.6660    3.5710   -2.9360 ha        1 0RY      0.158000
     22 H6         -2.5810   -0.5800   -3.7990 ha        1 0RY      0.210000
     23 H7         -4.9710    0.0380   -4.1920 ha        1 0RY      0.159000
     24 H8         -5.7720    2.3620   -3.7510 ha        1 0RY      0.152000
     25 H9         -3.9070    5.8770   -1.3790 hn        1 0RY      0.464800
     26 H10        -2.5760    5.5110   -2.3190 hn        1 0RY      0.464800
     27 HAA3       -3.0520    4.4510   -1.1340 hn        1 0RY      0.464800
@<TRIPOS>BOND
     1    1    2 1   
     2    2    3 1   
     3    2    4 1   
     4    4    5 2   
     5    4   18 1   
     6    5    6 1   
     7    5   19 1   
     8    6    7 2   
     9    6    8 1   
    10    8    9 1   
    11    8   20 1   
    12    9   10 ar  
    13    9   11 ar  
    14   10   14 ar  
    15   10   21 1   
    16   11   12 ar  
    17   11   22 1   
    18   12   13 ar  
    19   12   23 1   
    20   13   14 ar  
    21   13   24 1   
    22   14   15 1   
    23   15   16 2   
    24   15   17 1   
    25   17   25 1   
    26   17   26 1   
    27   17   27 1   
@<TRIPOS>SUBSTRUCTURE
     1 0RY         1 TEMP              0 ****  ****    0 ROOT
