@<TRIPOS>MOLECULE
0RY
   26    26     1     0     0
SMALL
bcc


@<TRIPOS>ATOM
      1 OAB         2.8570    2.3060   -0.7980 o         1 0RY     -0.820300
      2 CAM         3.5690    1.2550   -0.8280 c         1 0RY      0.891800
      3 OAE         4.2060    0.8650   -1.8410 o         1 0RY     -0.820300
      4 CAF         3.7220    0.4410    0.4370 ce        1 0RY     -0.128200
      5 CAG         2.8050   -0.2160    1.1490 cf        1 0RY     -0.271200
      6 CAO         1.3470   -0.3210    0.9030 c         1 0RY      0.685300
      7 OAD         0.7270   -1.3600    1.2310 o         1 0RY     -0.659100
      8 NAL         0.7060    0.7910    0.3740 n         1 0RY     -0.467100
      9 CAP        -0.6320    0.8710   -0.0170 ca        1 0RY      0.091600
     10 CAK        -1.6290   -0.0200    0.4420 ca        1 0RY     -0.154000
     11 CAI        -1.0220    1.9230   -0.8900 ca        1 0RY     -0.157000
     12 CAH        -2.3490    2.0670   -1.2690 ca        1 0RY     -0.123000
     13 CAJ        -3.3240    1.1790   -0.8180 ca        1 0RY     -0.130000
     14 CAQ        -2.9530    0.1310    0.0280 ca        1 0RY     -0.125600
     15 CAN        -4.0110   -0.8160    0.4780 c         1 0RY      0.675700
     16 OAC        -5.1970   -0.4610    0.6660 o         1 0RY     -0.642100
     17 NAA        -3.6710   -2.1370    0.6520 n         1 0RY     -0.674000
     18 H2          4.7790    0.3770    0.7560 ha        1 0RY      0.112000
     19 H3          3.1000   -0.8180    2.0260 ha        1 0RY      0.121000
     20 H4          1.3010    1.5460    0.0480 hn        1 0RY      0.382500
     21 H5         -1.3480   -0.8280    1.1370 ha        1 0RY      0.167000
     22 H6         -0.2620    2.6250   -1.2720 ha        1 0RY      0.160000
     23 H7         -2.6330    2.8910   -1.9410 ha        1 0RY      0.124000
     24 H8         -4.3770    1.2950   -1.1130 ha        1 0RY      0.140000
     25 H9         -2.7340   -2.4350    0.5600 hn        1 0RY      0.310500
     26 H10        -4.3460   -2.7710    0.9960 hn        1 0RY      0.310500
@<TRIPOS>BOND
     1    1    2 1   
     2    2    3 1   
     3    2    4 1   
     4    4    5 2   
     5    4   18 1   
     6    5    6 1   
     7    5   19 1   
     8    6    7 2   
     9    6    8 1   
    10    8    9 1   
    11    8   20 1   
    12    9   10 ar  
    13    9   11 ar  
    14   10   14 ar  
    15   10   21 1   
    16   11   12 ar  
    17   11   22 1   
    18   12   13 ar  
    19   12   23 1   
    20   13   14 ar  
    21   13   24 1   
    22   14   15 1   
    23   15   16 2   
    24   15   17 1   
    25   17   25 1   
    26   17   26 1   
@<TRIPOS>SUBSTRUCTURE
     1 0RY         1 TEMP              0 ****  ****    0 ROOT
