@<TRIPOS>MOLECULE
0RY
   28    28     1     0     0
SMALL
bcc


@<TRIPOS>ATOM
      1 OAB         0.0740    1.0750   -1.9020 os        1 0RY     -0.484200
      2 CAM         0.2480    1.6340   -0.6310 c         1 0RY      0.727300
      3 OAE        -0.6220    2.4220   -0.2810 o         1 0RY     -0.548500
      4 CAF         1.5020    1.0870   -0.0340 cc        1 0RY     -0.146200
      5 CAG         2.0470    0.2290   -0.9250 cd        1 0RY     -0.146200
      6 CAO         1.1680    0.1870   -2.1320 c         1 0RY      0.727300
      7 OAD         1.1420   -0.3810   -3.2040 o         1 0RY     -0.548500
      8 NAL        -1.7790    0.0850   -4.3230 nh        1 0RY     -0.844200
      9 CAP        -2.7960    1.0080   -4.2290 ca        1 0RY      0.200600
     10 CAK        -2.8300    1.9460   -3.1710 ca        1 0RY     -0.205000
     11 CAI        -3.8820    0.9950   -5.1560 ca        1 0RY     -0.132000
     12 CAH        -4.9410    1.8710   -5.0130 ca        1 0RY     -0.088000
     13 CAJ        -4.9770    2.7920   -3.9610 ca        1 0RY     -0.091000
     14 CAQ        -3.9200    2.8200   -3.0430 ca        1 0RY     -0.153600
     15 CAN        -4.0230    3.8010   -1.9680 c         1 0RY      0.573700
     16 OAC        -4.8380    4.7020   -1.8140 o         1 0RY     -0.432100
     17 NAA        -3.0030    3.7150   -0.8500 n4        1 0RY     -0.753400
     18 H2          1.8480    1.3830    0.9600 ha        1 0RY      0.214500
     19 H3          2.9610   -0.3690   -0.8600 ha        1 0RY      0.214500
     20 H4         -1.6910   -0.4230   -5.1710 hn        1 0RY      0.435300
     21 H5         -1.9820    1.9690   -2.4680 ha        1 0RY      0.138000
     22 H6         -3.8770    0.2760   -5.9920 ha        1 0RY      0.161000
     23 H7         -5.7730    1.8500   -5.7370 ha        1 0RY      0.166000
     24 H8         -5.8260    3.4880   -3.8570 ha        1 0RY      0.168000
     25 H9         -2.0630    3.9190   -1.2100 hn        1 0RY      0.469800
     26 H10        -2.9780    2.7660   -0.4610 hn        1 0RY      0.469800
     27 HAL2       -0.9440    0.2480   -3.8100 hn        1 0RY      0.435300
     28 HAA3       -3.2320    4.3840   -0.1080 hn        1 0RY      0.469800
@<TRIPOS>BOND
     1    1    2 1   
     2    1    6 1   
     3    2    3 2   
     4    2    4 1   
     5    4    5 2   
     6    4   18 1   
     7    5    6 1   
     8    5   19 1   
     9    6    7 2   
    10    8    9 1   
    11    8   20 1   
    12    8   27 1   
    13    9   10 ar  
    14    9   11 ar  
    15   10   14 ar  
    16   10   21 1   
    17   11   12 ar  
    18   11   22 1   
    19   12   13 ar  
    20   12   23 1   
    21   13   14 ar  
    22   13   24 1   
    23   14   15 1   
    24   15   16 2   
    25   15   17 1   
    26   17   25 1   
    27   17   26 1   
    28   17   28 1   
@<TRIPOS>SUBSTRUCTURE
     1 0RY         1 TEMP              0 ****  ****    0 ROOT
