@<TRIPOS>MOLECULE
0RY
   26    19     1     0     0
SMALL
bcc


@<TRIPOS>ATOM
      1 OAB         0.4150   -5.0470    1.0950 o         1 0RY     -0.555000
      2 CAM         0.7530   -4.7270   -0.0720 c1        1 0RY      0.342000
      3 OAE        -0.0510   -4.8900   -1.0260 o         1 0RY     -0.555000
      4 CAF         2.1410   -4.1780   -0.3370 c1        1 0RY     -0.180500
      5 CAG         2.3450   -2.8310   -0.3790 c1        1 0RY     -0.180500
      6 CAO         1.1680   -1.8680   -0.1600 c1        1 0RY      0.354500
      7 OAD         0.3400   -2.1070    0.7000 o         1 0RY     -0.411500
      8 NAL         1.1070   -0.6290   -0.8940 n2        1 0RY     -0.321000
      9 CAP         0.0570    0.3350   -0.6070 c2        1 0RY      0.099000
     10 CAK         0.3360    1.4590    0.1650 c1        1 0RY     -0.154000
     11 CAI        -1.2200    0.1370   -1.1060 c2        1 0RY     -0.157000
     12 CAH        -2.2230    1.0590   -0.8360 c1        1 0RY     -0.123000
     13 CAJ        -1.9450    2.1850   -0.0630 c1        1 0RY     -0.130000
     14 CAQ        -0.6680    2.3830    0.4360 c1        1 0RY     -0.105000
     15 CAN        -0.3590    3.6220    1.2840 c1        1 0RY      0.354500
     16 OAC         0.7570    3.7930    1.7230 o         1 0RY     -0.411500
     17 NAA        -1.3920    4.5740    1.5640 n2        1 0RY     -0.434000
     18 H2          2.8870   -4.7870   -0.4760 ha        1 0RY      0.116500
     19 H3          3.2340   -2.4790   -0.5480 ha        1 0RY      0.116500
     20 H4          1.7120   -0.4620   -1.5570 hn        1 0RY      0.296000
     21 H5          1.2360    1.6070    0.4990 ha        1 0RY      0.167000
     22 H6         -1.4180   -0.6580   -1.6520 ha        1 0RY      0.160000
     23 H7         -3.1210    0.9190   -1.1870 ha        1 0RY      0.124000
     24 H8         -2.6410    2.8510    0.0980 ha        1 0RY      0.140000
     25 H9         -1.2160    5.2940    2.1010 hn        1 0RY      0.224000
     26 H10        -2.2340    4.4440    1.2360 hn        1 0RY      0.224000
@<TRIPOS>BOND
     1    1    2 1   
     2    2    3 1   
     3    4    5 1   
     4    4   18 1   
     5    5   19 1   
     6    6    7 1   
     7    8    9 1   
     8    8   20 1   
     9    9   10 1   
    10    9   11 1   
    11   10   21 1   
    12   11   12 1   
    13   11   22 1   
    14   12   23 1   
    15   13   14 1   
    16   13   24 1   
    17   15   16 1   
    18   17   25 1   
    19   17   26 1   
@<TRIPOS>SUBSTRUCTURE
     1 0RY         1 TEMP              0 ****  ****    0 ROOT
