@<TRIPOS>MOLECULE
0RZ
   26    26     1     0     0
SMALL
bcc


@<TRIPOS>ATOM
      1 OAB        -5.3010    0.9340   -0.0680 o         1 0RZ     -0.817800
      2 CAM        -4.9410   -0.2380   -0.3700 c         1 0RZ      0.885800
      3 OAE        -5.7270   -1.1800   -0.6650 o         1 0RZ     -0.817800
      4 CAF        -3.4540   -0.5570   -0.3900 ce        1 0RZ     -0.086200
      5 CAG        -2.5290    0.3520   -0.0530 cf        1 0RZ     -0.303200
      6 CAO        -1.0860    0.0590   -0.0740 c         1 0RZ      0.682300
      7 OAD        -0.6030   -1.0580   -0.3490 o         1 0RZ     -0.631100
      8 NAL        -0.2460    1.1430    0.2420 n         1 0RZ     -0.484100
      9 CAP         1.1470    1.1710    0.2460 ca        1 0RZ      0.094600
     10 CAK         1.9400   -0.0010    0.2260 ca        1 0RZ     -0.145000
     11 CAI         1.8100    2.4260    0.2920 ca        1 0RZ     -0.184000
     12 CAH         3.1970    2.4930    0.3090 ca        1 0RZ     -0.114000
     13 CAJ         3.9690    1.3350    0.2720 ca        1 0RZ     -0.129000
     14 CAQ         3.3310    0.0910    0.2210 ca        1 0RZ     -0.114600
     15 CAN         4.1870   -1.1290    0.1770 c         1 0RZ      0.672700
     16 OAC         5.3150   -1.1700    0.7170 o         1 0RZ     -0.635100
     17 NAA         3.7330   -2.2220   -0.5210 n         1 0RZ     -0.669000
     18 H2         -3.1880   -1.5810   -0.6980 ha        1 0RZ      0.124000
     19 H3         -2.8580    1.3610    0.2500 ha        1 0RZ      0.152000
     20 H4         -0.6950    2.0220    0.3820 hn        1 0RZ      0.317500
     21 H5          1.4430   -0.9860    0.2270 ha        1 0RZ      0.176000
     22 H6          1.2260    3.3590    0.3160 ha        1 0RZ      0.129000
     23 H7          3.6900    3.4760    0.3510 ha        1 0RZ      0.125000
     24 H8          5.0670    1.3830    0.2920 ha        1 0RZ      0.146000
     25 H9          2.8210   -2.2400   -0.9020 hn        1 0RZ      0.313500
     26 H10         4.2630   -3.0560   -0.5120 hn        1 0RZ      0.313500
@<TRIPOS>BOND
     1    1    2 1   
     2    2    3 1   
     3    2    4 1   
     4    4    5 2   
     5    4   18 1   
     6    5    6 1   
     7    5   19 1   
     8    6    7 2   
     9    6    8 1   
    10    8    9 1   
    11    8   20 1   
    12    9   10 ar  
    13    9   11 ar  
    14   10   14 ar  
    15   10   21 1   
    16   11   12 ar  
    17   11   22 1   
    18   12   13 ar  
    19   12   23 1   
    20   13   14 ar  
    21   13   24 1   
    22   14   15 1   
    23   15   16 2   
    24   15   17 1   
    25   17   25 1   
    26   17   26 1   
@<TRIPOS>SUBSTRUCTURE
     1 0RZ         1 TEMP              0 ****  ****    0 ROOT
