@<TRIPOS>MOLECULE
0RZ
   26    21     1     0     0
SMALL
bcc


@<TRIPOS>ATOM
      1 OAB         0.7350   -4.3820    1.9250 o         1 0RZ     -0.581000
      2 CAM         1.7730   -3.6940    2.1260 c1        1 0RZ      0.342000
      3 OAE         1.9490   -3.1270    3.2410 os        1 0RZ     -0.529000
      4 CAF         2.7980   -3.5190    1.0140 c2        1 0RZ     -0.109000
      5 CAG         2.6830   -2.4850    0.1410 c1        1 0RZ     -0.252000
      6 CAO         1.5310   -1.5020    0.2740 c1        1 0RZ      0.360000
      7 OAD         1.2970   -0.9870    1.3420 o         1 0RZ     -0.420000
      8 NAL         0.7630   -1.1460   -0.8740 n3        1 0RZ     -0.321000
      9 CAP        -0.2960   -0.1690   -0.7600 c2        1 0RZ      0.099000
     10 CAK         0.0090    1.1810   -0.6990 c1        1 0RZ     -0.154000
     11 CAI        -1.6150   -0.5830   -0.7030 c2        1 0RZ     -0.157000
     12 CAH        -2.6350    0.3570   -0.5830 c1        1 0RZ     -0.123000
     13 CAJ        -2.3290    1.7050   -0.5220 c1        1 0RZ     -0.130000
     14 CAQ        -1.0090    2.1190   -0.5800 c1        1 0RZ     -0.105000
     15 CAN        -0.6660    3.6020   -0.4210 c1        1 0RZ      0.349000
     16 OAC         0.4960    3.9550   -0.3630 o         1 0RZ     -0.403000
     17 NAA        -1.7190    4.5730   -0.2970 n2        1 0RZ     -0.434000
     18 H2          3.5380   -4.1500    0.9290 ha        1 0RZ      0.112000
     19 H3          3.3400   -2.3740   -0.5720 ha        1 0RZ      0.121000
     20 H4          0.9640   -1.5110   -1.6930 hn        1 0RZ      0.296000
     21 H5          0.9450    1.4710   -0.6860 ha        1 0RZ      0.167000
     22 H6         -1.8300   -1.5410   -0.7100 ha        1 0RZ      0.160000
     23 H7         -3.5700    0.0640   -0.5420 ha        1 0RZ      0.124000
     24 H8         -3.0470    2.3670   -0.4380 ha        1 0RZ      0.140000
     25 H9         -2.5930    4.3130   -0.3760 hn        1 0RZ      0.224000
     26 H10        -1.5130    5.4630   -0.1730 hn        1 0RZ      0.224000
@<TRIPOS>BOND
     1    1    2 1   
     2    2    4 1   
     3    4    5 1   
     4    4   18 1   
     5    5   19 1   
     6    6    7 1   
     7    6    8 1   
     8    8    9 1   
     9    8   20 1   
    10    9   10 1   
    11    9   11 1   
    12   10   21 1   
    13   11   12 1   
    14   11   22 1   
    15   12   23 1   
    16   13   14 1   
    17   13   24 1   
    18   14   15 1   
    19   15   16 1   
    20   17   25 1   
    21   17   26 1   
@<TRIPOS>SUBSTRUCTURE
     1 0RZ         1 TEMP              0 ****  ****    0 ROOT
