@<TRIPOS>MOLECULE
0RZ
   28    28     1     0     0
SMALL
bcc


@<TRIPOS>ATOM
      1 OAB         1.3650    0.1520   -2.1990 os        1 0RZ     -0.477200
      2 CAM         0.9180   -0.0810   -0.8710 c         1 0RZ      0.708300
      3 OAE        -0.0140   -0.8490   -0.7520 o         1 0RZ     -0.513500
      4 CAF         1.7750    0.7300    0.0480 cc        1 0RZ     -0.157200
      5 CAG         2.6760    1.4040   -0.6980 cd        1 0RZ     -0.157200
      6 CAO         2.4390    1.0560   -2.1310 c         1 0RZ      0.708300
      7 OAD         2.9380    1.3620   -3.2030 o         1 0RZ     -0.513500
      8 NAL         1.0440   -0.1460   -5.2470 nh        1 0RZ     -0.842200
      9 CAP         1.8210   -0.1820   -6.3720 ca        1 0RZ      0.214600
     10 CAK         3.0240    0.5760   -6.4430 ca        1 0RZ     -0.141000
     11 CAI         1.4320   -0.9240   -7.5210 ca        1 0RZ     -0.158000
     12 CAH         2.1980   -0.8920   -8.6780 ca        1 0RZ     -0.066000
     13 CAJ         3.3640   -0.1330   -8.7530 ca        1 0RZ     -0.180000
     14 CAQ         3.7670    0.6000   -7.6270 ca        1 0RZ     -0.149600
     15 CAN         4.9800    1.4110   -7.6090 c         1 0RZ      0.580700
     16 OAC         5.6410    1.8410   -6.6770 o         1 0RZ     -0.415100
     17 NAA         5.5160    1.8370   -8.9760 n4        1 0RZ     -0.767400
     18 H2          1.6230    0.7180    1.1300 ha        1 0RZ      0.204000
     19 H3          3.4660    2.0950   -0.3950 ha        1 0RZ      0.204000
     20 H4          0.3040   -0.7990   -5.1510 hn        1 0RZ      0.449300
     21 H5          3.3690    1.1430   -5.5590 ha        1 0RZ      0.183000
     22 H6          0.5130   -1.5320   -7.4970 ha        1 0RZ      0.162000
     23 H7          1.8790   -1.4800   -9.5550 ha        1 0RZ      0.159000
     24 H8          3.9480   -0.1570   -9.6820 ha        1 0RZ      0.119000
     25 H9          5.8970    1.0220   -9.4630 hn        1 0RZ      0.464800
     26 H10         6.2580    2.5360   -8.8600 hn        1 0RZ      0.464800
     27 HAL2        1.4100    0.2680   -4.4200 hn        1 0RZ      0.449300
     28 HAA3        4.7550    2.2300   -9.5350 hn        1 0RZ      0.464800
@<TRIPOS>BOND
     1    1    2 1   
     2    1    6 1   
     3    2    3 2   
     4    2    4 1   
     5    4    5 2   
     6    4   18 1   
     7    5    6 1   
     8    5   19 1   
     9    6    7 2   
    10    8    9 1   
    11    8   20 1   
    12    8   27 1   
    13    9   10 ar  
    14    9   11 ar  
    15   10   14 ar  
    16   10   21 1   
    17   11   12 ar  
    18   11   22 1   
    19   12   13 ar  
    20   12   23 1   
    21   13   14 ar  
    22   13   24 1   
    23   14   15 1   
    24   15   16 2   
    25   15   17 1   
    26   17   25 1   
    27   17   26 1   
    28   17   28 1   
@<TRIPOS>SUBSTRUCTURE
     1 0RZ         1 TEMP              0 ****  ****    0 ROOT
