@<TRIPOS>MOLECULE
0RZ
   27    27     1     0     0
SMALL
bcc


@<TRIPOS>ATOM
      1 OAB         0.1630   -1.0300   -3.6060 o         1 0RZ     -0.814800
      2 CAM         1.1300   -1.3290   -2.8370 c         1 0RZ      0.883800
      3 OAE         1.7600   -2.4140   -2.8840 o         1 0RZ     -0.814800
      4 CAF         1.5690   -0.3090   -1.8040 ce        1 0RZ     -0.106200
      5 CAG         2.2600    0.8120   -2.0420 cf        1 0RZ     -0.293200
      6 CAO         2.6920    1.2340   -3.3900 c         1 0RZ      0.698300
      7 OAD         3.8330    1.6850   -3.6300 o         1 0RZ     -0.661100
      8 NAL         1.7240    1.1350   -4.4110 ns        1 0RZ     -0.456100
      9 CAP         2.0640    0.8390   -5.7290 ca        1 0RZ      0.104600
     10 CAK         3.2380    1.3370   -6.3180 ca        1 0RZ     -0.174000
     11 CAI         1.2100    0.0050   -6.5140 ca        1 0RZ     -0.069000
     12 CAH         1.5380   -0.2900   -7.8280 ca        1 0RZ     -0.123000
     13 CAJ         2.7330    0.1590   -8.3950 ca        1 0RZ     -0.073000
     14 CAQ         3.5970    0.9410   -7.6180 ca        1 0RZ     -0.197600
     15 CAN         4.9030    1.2750   -8.1540 c         1 0RZ      0.591700
     16 OAC         5.3280    1.3470   -9.2980 o         1 0RZ     -0.453100
     17 NAA         5.9750    1.5180   -7.0860 nz        1 0RZ     -0.768400
     18 H2          1.3160   -0.5930   -0.7680 ha        1 0RZ      0.134000
     19 H3          2.6120    1.4780   -1.2400 ha        1 0RZ      0.140000
     20 H4          0.8290    0.7470   -4.1140 hn        1 0RZ      0.379500
     21 H5          3.8540    2.0430   -5.7380 ha        1 0RZ      0.158000
     22 H6          0.3080   -0.4360   -6.0390 ha        1 0RZ      0.210000
     23 H7          0.8600   -0.9200   -8.4280 ha        1 0RZ      0.159000
     24 H8          3.0060   -0.1180   -9.4250 ha        1 0RZ      0.152000
     25 H9          6.9090    1.4640   -7.4970 hn        1 0RZ      0.464800
     26 H10         5.8740    0.8190   -6.3410 hn        1 0RZ      0.464800
     27 HAA3        5.8390    2.4450   -6.6720 hn        1 0RZ      0.464800
@<TRIPOS>BOND
     1    1    2 1   
     2    2    3 1   
     3    2    4 1   
     4    4    5 2   
     5    4   18 1   
     6    5    6 1   
     7    5   19 1   
     8    6    7 2   
     9    6    8 1   
    10    8    9 1   
    11    8   20 1   
    12    9   10 ar  
    13    9   11 ar  
    14   10   14 ar  
    15   10   21 1   
    16   11   12 ar  
    17   11   22 1   
    18   12   13 ar  
    19   12   23 1   
    20   13   14 ar  
    21   13   24 1   
    22   14   15 1   
    23   15   16 2   
    24   15   17 1   
    25   17   25 1   
    26   17   26 1   
    27   17   27 1   
@<TRIPOS>SUBSTRUCTURE
     1 0RZ         1 TEMP              0 ****  ****    0 ROOT
