@<TRIPOS>MOLECULE
0RZ
   27    27     1     0     0
SMALL
bcc


@<TRIPOS>ATOM
      1 OAB         3.7930   -1.2760   -4.2600 o         1 0RZ     -0.843300
      2 CAM         4.0100   -0.2780   -3.4990 c         1 0RZ      0.888800
      3 OAE         4.9760    0.5080   -3.7650 o         1 0RZ     -0.843300
      4 CAF         3.1150   -0.0120   -2.3340 ce        1 0RZ     -0.113200
      5 CAG         2.1400    0.8990   -2.3210 cf        1 0RZ     -0.254200
      6 CAO         1.8620    1.8010   -3.4710 c         1 0RZ      0.659300
      7 OAD         2.3530    2.9290   -3.5820 o         1 0RZ     -0.510100
      8 NAL         0.9430    1.3300   -4.4580 n         1 0RZ     -0.472100
      9 CAP         1.4020    1.1240   -5.7740 ca        1 0RZ      0.069600
     10 CAK         2.7840    1.0450   -6.0480 ca        1 0RZ     -0.114000
     11 CAI         0.4930    0.9380   -6.8400 ca        1 0RZ     -0.108000
     12 CAH         0.9650    0.6400   -8.1170 ca        1 0RZ     -0.120000
     13 CAJ         2.3250    0.4660   -8.3620 ca        1 0RZ     -0.090000
     14 CAQ         3.2300    0.6370   -7.3060 ca        1 0RZ     -0.161600
     15 CAN         4.6430    0.2860   -7.5090 c         1 0RZ      0.578700
     16 OAC         5.2960    0.3630   -8.5470 o         1 0RZ     -0.480100
     17 NAA         5.3380   -0.3030   -6.3320 n4        1 0RZ     -0.792400
     18 H2          3.3190   -0.6420   -1.4530 ha        1 0RZ      0.147000
     19 H3          1.5070    1.0750   -1.4380 ha        1 0RZ      0.150000
     20 H4          0.3270    0.6080   -4.1440 hn        1 0RZ      0.307500
     21 H5          3.5070    1.2930   -5.2460 ha        1 0RZ      0.185000
     22 H6         -0.5910    1.0220   -6.6630 ha        1 0RZ      0.152000
     23 H7          0.2460    0.5230   -8.9430 ha        1 0RZ      0.147000
     24 H8          2.6870    0.1860   -9.3620 ha        1 0RZ      0.153000
     25 H9          4.7240   -1.0140   -5.8440 hn        1 0RZ      0.488800
     26 H10         5.5040    0.4180   -5.5850 hn        1 0RZ      0.488800
     27 HAA3        6.2240   -0.7210   -6.6040 hn        1 0RZ      0.488800
@<TRIPOS>BOND
     1    1    2 1   
     2    2    3 1   
     3    2    4 1   
     4    4    5 2   
     5    4   18 1   
     6    5    6 1   
     7    5   19 1   
     8    6    7 2   
     9    6    8 1   
    10    8    9 1   
    11    8   20 1   
    12    9   10 ar  
    13    9   11 ar  
    14   10   14 ar  
    15   10   21 1   
    16   11   12 ar  
    17   11   22 1   
    18   12   13 ar  
    19   12   23 1   
    20   13   14 ar  
    21   13   24 1   
    22   14   15 1   
    23   15   16 2   
    24   15   17 1   
    25   17   25 1   
    26   17   26 1   
    27   17   27 1   
@<TRIPOS>SUBSTRUCTURE
     1 0RZ         1 TEMP              0 ****  ****    0 ROOT
