@<TRIPOS>MOLECULE
0S0
   31    32     1     0     0
SMALL
bcc


@<TRIPOS>ATOM
      1 O01         0.1110    1.1620   -0.1820 o         1 0S0     -0.573500
      2 C02         1.2540    0.6910   -0.1490 c         1 0S0      0.730700
      3 N03         1.8680    0.6260    1.1380 n         1 0S0     -0.431100
      4 C04         3.1240    0.1290    1.3030 cc        1 0S0      0.337700
      5 O05         3.5550    0.1410    2.5980 oh        1 0S0     -0.476100
      6 C06         3.8930   -0.3500    0.2270 cd        1 0S0     -0.356000
      7 C07         3.3470   -0.3110   -1.0540 cd        1 0S0      0.083000
      8 C08         2.0580    0.1860   -1.2830 cc        1 0S0     -0.130600
      9 N09         1.3980    0.2610   -2.5140 ne        1 0S0     -0.094600
     10 N10         1.9710   -0.0480   -3.5720 nf        1 0S0     -0.299400
     11 C11         1.2310   -0.0130   -4.7850 ca        1 0S0      0.295400
     12 C12        -0.1200   -0.4330   -4.9030 ca        1 0S0     -0.159000
     13 C13        -0.7340   -0.4780   -6.1360 ca        1 0S0      0.019500
     14 C14        -0.0560   -0.1030   -7.3230 ca        1 0S0     -0.605500
     15 S15        -0.7490   -0.2110   -8.7380 sy        1 0S0      1.507200
     16 O16        -1.9160   -0.9430   -8.7890 o         1 0S0     -0.575300
     17 N17        -1.5160    1.5800   -8.7820 n4        1 0S0     -0.782500
     18 O18         0.0850   -0.1140   -9.8310 o         1 0S0     -0.575300
     19 C19         1.2960    0.3070   -7.1900 ca        1 0S0      0.019500
     20 C20         1.9280    0.3560   -5.9680 ca        1 0S0     -0.159000
     21 H1          1.3510    0.9590    1.9300 hn        1 0S0      0.365500
     22 H2          4.9020   -0.7430    0.4070 ha        1 0S0      0.173000
     23 H3          3.9580   -0.6880   -1.8950 ha        1 0S0      0.169000
     24 H5         -0.6860   -0.7280   -4.0010 ha        1 0S0      0.183500
     25 H6         -1.7820   -0.8270   -6.2080 ha        1 0S0      0.164500
     26 H7         -2.5270    1.5260   -8.8730 hn        1 0S0      0.450133
     27 H8         -1.3020    2.1070   -7.9430 hn        1 0S0      0.450133
     28 H9          1.8590    0.5810   -8.1030 ha        1 0S0      0.164500
     29 H10         2.9830    0.6770   -5.9070 ha        1 0S0      0.183500
     30 H11         4.4550   -0.2300    2.6280 ho        1 0S0      0.471000
     31 H173       -1.1570    2.0960   -9.5810 hn        1 0S0      0.450133
@<TRIPOS>BOND
     1    1    2 2   
     2    2    3 1   
     3    2    8 1   
     4    3    4 1   
     5    3   21 1   
     6    4    5 1   
     7    4    6 2   
     8    5   30 1   
     9    6    7 1   
    10    6   22 1   
    11    7    8 2   
    12    7   23 1   
    13    8    9 1   
    14    9   10 2   
    15   10   11 1   
    16   11   12 ar  
    17   11   20 ar  
    18   12   13 ar  
    19   12   24 1   
    20   13   14 ar  
    21   13   25 1   
    22   14   15 1   
    23   14   19 ar  
    24   15   16 2   
    25   15   17 1   
    26   15   18 2   
    27   17   26 1   
    28   17   27 1   
    29   17   31 1   
    30   19   20 ar  
    31   19   28 1   
    32   20   29 1   
@<TRIPOS>SUBSTRUCTURE
     1 0S0         1 TEMP              0 ****  ****    0 ROOT
