@<TRIPOS>MOLECULE
0S0
   30    31     1     0     0
SMALL
bcc


@<TRIPOS>ATOM
      1 O01         3.5120   -2.1280    0.9380 o         1 0S0     -0.591500
      2 C02         3.8970   -1.0230    0.5290 c         1 0S0      0.725700
      3 N03         5.3060   -0.8380    0.4730 n         1 0S0     -0.443100
      4 C04         5.8540    0.3390    0.0390 cc        1 0S0      0.290700
      5 O05         7.2280    0.3400    0.0500 oh        1 0S0     -0.496100
      6 C06         5.0790    1.4190   -0.3700 cd        1 0S0     -0.353000
      7 C07         3.6750    1.2900   -0.3340 cd        1 0S0      0.038000
      8 C08         3.0680    0.1230    0.0950 cc        1 0S0     -0.082600
      9 N09         1.6690   -0.1290    0.1650 ne        1 0S0     -0.141600
     10 N10         0.8730    0.7670   -0.1200 nf        1 0S0     -0.251400
     11 C11        -0.5360    0.4880   -0.0650 ca        1 0S0      0.173400
     12 C12        -1.1040   -0.7690   -0.3480 ca        1 0S0     -0.136500
     13 C13        -2.4860   -0.9240   -0.3450 ca        1 0S0     -0.022000
     14 C14        -3.3370    0.1470   -0.0570 ca        1 0S0     -0.381500
     15 S15        -5.0160   -0.0510   -0.0700 sy        1 0S0      1.527200
     16 O16        -5.3350   -1.0990   -0.9600 o         1 0S0     -0.658800
     17 N17        -5.3400   -0.5160    1.4270 n3        1 0S0     -1.026700
     18 O18        -5.6110    1.2090   -0.3020 o         1 0S0     -0.658800
     19 C19        -2.7660    1.3950    0.2170 ca        1 0S0     -0.022000
     20 C20        -1.3890    1.5780    0.2160 ca        1 0S0     -0.136500
     21 H1          5.9010   -1.5890    0.7580 hn        1 0S0      0.351500
     22 H2          5.5490    2.3470   -0.7130 ha        1 0S0      0.159000
     23 H3          3.0720    2.1560   -0.6620 ha        1 0S0      0.164000
     24 H5         -0.4630   -1.6360   -0.5750 ha        1 0S0      0.156000
     25 H6         -2.9230   -1.9090   -0.5910 ha        1 0S0      0.155000
     26 H7         -5.5550    0.1100    2.1610 hn        1 0S0      0.447800
     27 H8         -5.3650   -1.4630    1.7130 hn        1 0S0      0.447800
     28 H9         -3.4280    2.2570    0.4200 ha        1 0S0      0.155000
     29 H10        -0.9700    2.5730    0.4320 ha        1 0S0      0.156000
     30 H11         7.5240    1.2060   -0.2740 ho        1 0S0      0.454000
@<TRIPOS>BOND
     1    1    2 2   
     2    2    3 1   
     3    2    8 1   
     4    3    4 1   
     5    3   21 1   
     6    4    5 1   
     7    4    6 2   
     8    5   30 1   
     9    6    7 1   
    10    6   22 1   
    11    7    8 2   
    12    7   23 1   
    13    8    9 1   
    14    9   10 2   
    15   10   11 1   
    16   11   12 ar  
    17   11   20 ar  
    18   12   13 ar  
    19   12   24 1   
    20   13   14 ar  
    21   13   25 1   
    22   14   15 1   
    23   14   19 ar  
    24   15   16 2   
    25   15   17 1   
    26   15   18 2   
    27   17   26 1   
    28   17   27 1   
    29   19   20 ar  
    30   19   28 1   
    31   20   29 1   
@<TRIPOS>SUBSTRUCTURE
     1 0S0         1 TEMP              0 ****  ****    0 ROOT
