@<TRIPOS>MOLECULE
0S0
   31    32     1     0     0
SMALL
bcc


@<TRIPOS>ATOM
      1 O01         0.0890    1.1150   -0.1770 o         1 0S0     -0.573500
      2 C02         1.2440    0.6690   -0.1460 c         1 0S0      0.730700
      3 N03         1.8590    0.6100    1.1410 ns        1 0S0     -0.431100
      4 C04         3.1250    0.1400    1.3030 cc        1 0S0      0.337700
      5 O05         3.5560    0.1540    2.5980 oh        1 0S0     -0.476100
      6 C06         3.9050   -0.3140    0.2240 cd        1 0S0     -0.356000
      7 C07         3.3580   -0.2800   -1.0570 cd        1 0S0      0.083000
      8 C08         2.0580    0.1900   -1.2830 cc        1 0S0     -0.130600
      9 N09         1.3970    0.2580   -2.5140 ne        1 0S0     -0.094600
     10 N10         1.9770   -0.0310   -3.5740 nf        1 0S0     -0.299400
     11 C11         1.2360   -0.0050   -4.7860 ca        1 0S0      0.294400
     12 C12        -0.1050   -0.4530   -4.9070 ca        1 0S0     -0.158500
     13 C13        -0.7180   -0.5030   -6.1400 ca        1 0S0      0.019500
     14 C14        -0.0490   -0.1070   -7.3250 ca        1 0S0     -0.605500
     15 S15        -0.7390   -0.2220   -8.7400 sy        1 0S0      1.507200
     16 O16        -1.8910   -0.9770   -8.7960 o         1 0S0     -0.575300
     17 N17        -1.5430    1.5530   -8.7750 nz        1 0S0     -0.782500
     18 O18         0.0930   -0.1020   -9.8340 o         1 0S0     -0.575300
     19 C19         1.2940    0.3290   -7.1900 ca        1 0S0      0.019500
     20 C20         1.9250    0.3850   -5.9670 ca        1 0S0     -0.158500
     21 H1          1.3330    0.9270    1.9350 hn        1 0S0      0.365500
     22 H2          4.9220   -0.6850    0.4010 ha        1 0S0      0.173000
     23 H3          3.9770   -0.6370   -1.9000 ha        1 0S0      0.169000
     24 H5         -0.6660   -0.7650   -4.0070 ha        1 0S0      0.183500
     25 H6         -1.7590   -0.8730   -6.2150 ha        1 0S0      0.164500
     26 H7         -2.5530    1.4790   -8.8670 hn        1 0S0      0.450133
     27 H8         -1.3400    2.0790   -7.9330 hn        1 0S0      0.450133
     28 H9          1.8530    0.6200   -8.1010 ha        1 0S0      0.164500
     29 H10         2.9730    0.7270   -5.9040 ha        1 0S0      0.183500
     30 H11         4.4640   -0.1970    2.6260 ho        1 0S0      0.471000
     31 H173       -1.1940    2.0810   -9.5710 hn        1 0S0      0.450133
@<TRIPOS>BOND
     1    1    2 2   
     2    2    3 1   
     3    2    8 1   
     4    3    4 1   
     5    3   21 1   
     6    4    5 1   
     7    4    6 2   
     8    5   30 1   
     9    6    7 1   
    10    6   22 1   
    11    7    8 2   
    12    7   23 1   
    13    8    9 1   
    14    9   10 2   
    15   10   11 1   
    16   11   12 ar  
    17   11   20 ar  
    18   12   13 ar  
    19   12   24 1   
    20   13   14 ar  
    21   13   25 1   
    22   14   15 1   
    23   14   19 ar  
    24   15   16 2   
    25   15   17 1   
    26   15   18 2   
    27   17   26 1   
    28   17   27 1   
    29   17   31 1   
    30   19   20 ar  
    31   19   28 1   
    32   20   29 1   
@<TRIPOS>SUBSTRUCTURE
     1 0S0         1 TEMP              0 ****  ****    0 ROOT
