@<TRIPOS>MOLECULE
0S0
   31    32     1     0     0
SMALL
bcc


@<TRIPOS>ATOM
      1 O01         0.1040    1.1390   -0.1790 o         1 0S0     -0.573500
      2 C02         1.2520    0.6790   -0.1470 c         1 0S0      0.730700
      3 N03         1.8680    0.6170    1.1390 n         1 0S0     -0.431100
      4 C04         3.1290    0.1310    1.3010 cc        1 0S0      0.337700
      5 O05         3.5610    0.1440    2.5960 oh        1 0S0     -0.476100
      6 C06         3.9020   -0.3360    0.2240 cd        1 0S0     -0.356000
      7 C07         3.3540   -0.2990   -1.0570 cd        1 0S0      0.083000
      8 C08         2.0600    0.1860   -1.2840 cc        1 0S0     -0.130600
      9 N09         1.3990    0.2590   -2.5140 ne        1 0S0     -0.094600
     10 N10         1.9730   -0.0420   -3.5730 nf        1 0S0     -0.299400
     11 C11         1.2320   -0.0100   -4.7850 ca        1 0S0      0.294400
     12 C12        -0.1160   -0.4390   -4.9030 ca        1 0S0     -0.158500
     13 C13        -0.7310   -0.4850   -6.1350 ca        1 0S0      0.019500
     14 C14        -0.0570   -0.1030   -7.3230 ca        1 0S0     -0.605500
     15 S15        -0.7500   -0.2140   -8.7370 sy        1 0S0      1.507200
     16 O16        -1.9130   -0.9530   -8.7880 o         1 0S0     -0.575300
     17 N17        -1.5280    1.5720   -8.7780 n4        1 0S0     -0.782500
     18 O18         0.0820   -0.1110   -9.8310 o         1 0S0     -0.575300
     19 C19         1.2930    0.3140   -7.1910 ca        1 0S0      0.019500
     20 C20         1.9260    0.3650   -5.9690 ca        1 0S0     -0.158500
     21 H1          1.3470    0.9420    1.9320 hn        1 0S0      0.365500
     22 H2          4.9150   -0.7190    0.4010 ha        1 0S0      0.173000
     23 H3          3.9680   -0.6670   -1.9000 ha        1 0S0      0.169000
     24 H5         -0.6800   -0.7380   -4.0010 ha        1 0S0      0.183500
     25 H6         -1.7770   -0.8400   -6.2070 ha        1 0S0      0.164500
     26 H7         -2.5390    1.5130   -8.8690 hn        1 0S0      0.450133
     27 H8         -1.1720    2.0920   -9.5770 hn        1 0S0      0.450133
     28 H9          1.8540    0.5920   -8.1030 ha        1 0S0      0.164500
     29 H10         2.9790    0.6920   -5.9080 ha        1 0S0      0.183500
     30 H11         4.4650   -0.2170    2.6240 ho        1 0S0      0.471000
     31 H173       -1.3160    2.0990   -7.9380 hn        1 0S0      0.450133
@<TRIPOS>BOND
     1    1    2 2   
     2    2    3 1   
     3    2    8 1   
     4    3    4 1   
     5    3   21 1   
     6    4    5 1   
     7    4    6 2   
     8    5   30 1   
     9    6    7 1   
    10    6   22 1   
    11    7    8 2   
    12    7   23 1   
    13    8    9 1   
    14    9   10 2   
    15   10   11 1   
    16   11   12 ar  
    17   11   20 ar  
    18   12   13 ar  
    19   12   24 1   
    20   13   14 ar  
    21   13   25 1   
    22   14   15 1   
    23   14   19 ar  
    24   15   16 2   
    25   15   17 1   
    26   15   18 2   
    27   17   26 1   
    28   17   27 1   
    29   17   31 1   
    30   19   20 ar  
    31   19   28 1   
    32   20   29 1   
@<TRIPOS>SUBSTRUCTURE
     1 0S0         1 TEMP              0 ****  ****    0 ROOT
