@<TRIPOS>MOLECULE
0S0
   30    22     1     0     0
SMALL
bcc


@<TRIPOS>ATOM
      1 O01        -1.7670    2.4450    0.4170 o         1 0S0     -0.358000
      2 C02        -1.8070    1.5740    1.2640 c1        1 0S0      0.350000
      3 N03        -1.2790    1.8330    2.6030 n3        1 0S0     -0.275000
      4 C04        -1.1960    0.7480    3.5800 c1        1 0S0      0.228000
      5 O05        -0.6600    0.9930    4.8580 o         1 0S0     -0.251000
      6 C06        -1.7590   -0.6150    3.2470 c1        1 0S0     -0.338000
      7 C07        -2.2920   -0.8790    1.9020 c1        1 0S0     -0.054500
      8 C08        -2.3730    0.2130    0.9220 c1        1 0S0     -0.143000
      9 N09        -3.1140    0.0350   -0.2750 n1        1 0S0      0.027500
     10 N10        -2.5220   -0.1650   -1.3460 n1        1 0S0      0.027500
     11 C11        -1.1070   -0.2170   -1.3740 c1        1 0S0     -0.143000
     12 C12        -0.4530   -1.4050   -1.0870 c1        1 0S0     -0.082000
     13 C13         0.9240   -1.4890   -1.2250 c1        1 0S0     -0.082000
     14 C14         1.6470   -0.3850   -1.6490 c1        1 0S0     -0.833000
     15 S15         3.3940   -0.5230   -1.9230 s4        1 0S0      2.083800
     16 O16         4.0880    0.6480   -1.4650 o         1 0S0     -0.546900
     17 N17         3.6990   -0.8140   -3.5080 n2        1 0S0     -0.953000
     18 O18         3.9750   -1.5360   -1.0860 o         1 0S0     -0.546900
     19 C19         0.9930    0.8030   -1.9350 c1        1 0S0     -0.013000
     20 C20        -0.3840    0.8870   -1.7980 c1        1 0S0     -0.054500
     21 H1         -1.0090    2.6740    2.8320 hn        1 0S0      0.268000
     22 H2         -1.7040   -1.3390    3.9000 ha        1 0S0      0.159000
     23 H3         -2.6560   -1.7580    1.6850 ha        1 0S0      0.166500
     24 H5         -0.9620   -2.1830   -0.7890 ha        1 0S0      0.152000
     25 H6          1.3840   -2.3260   -1.0230 ha        1 0S0      0.152000
     26 H7          3.8020   -1.6720   -3.8040 hn        1 0S0      0.243000
     27 H8          3.7860   -0.1160   -4.0920 hn        1 0S0      0.243000
     28 H9          1.5030    1.5810   -2.2340 ha        1 0S0      0.156000
     29 H10        -0.8440    1.7240   -2.0000 ha        1 0S0      0.166500
     30 H11        -1.3070    1.2660    5.4040 ho        1 0S0      0.252000
@<TRIPOS>BOND
     1    1    2 1   
     2    2    3 1   
     3    3    4 1   
     4    3   21 1   
     5    4    6 1   
     6    5   30 1   
     7    6   22 1   
     8    7    8 1   
     9    7   23 1   
    10    9   10 1   
    11   11   20 1   
    12   12   13 1   
    13   12   24 1   
    14   13   25 1   
    15   14   15 1   
    16   14   19 1   
    17   15   16 1   
    18   15   18 1   
    19   17   26 1   
    20   17   27 1   
    21   19   28 1   
    22   20   29 1   
@<TRIPOS>SUBSTRUCTURE
     1 0S0         1 TEMP              0 ****  ****    0 ROOT
