@<TRIPOS>MOLECULE
0S1
   38    39     1     0     0
SMALL
bcc


@<TRIPOS>ATOM
      1 C1          3.2600   -1.3060   -0.1920 cy        1 0S1      0.117100
      2 O1          3.1740   -2.1920   -1.2780 oh        1 0S1     -0.584800
      3 C2          2.2790    0.6700   -0.2010 cy        1 0S1     -0.094700
      4 C3          3.6320    0.1100   -0.6890 cy        1 0S1     -0.084400
      5 C4          1.8830   -0.7490    0.3510 cy        1 0S1      0.184500
      6 H           3.9090   -1.7130    0.6180 h1        1 0S1      0.052700
      7 HO          2.9020   -3.0470   -0.9210 ho        1 0S1      0.409000
      8 C5          2.3550    1.7260    0.8720 c3        1 0S1     -0.042200
      9 HG          1.6340    1.0120   -1.0440 hc        1 0S1      0.072700
     10 HGA         4.5160    0.5390   -0.1730 hc        1 0S1      0.066200
     11 N1          0.7000   -1.3510   -0.1550 n3        1 0S1     -0.900100
     12 HB1         1.8580   -0.7610    1.4760 h1        1 0S1      0.087700
     13 S1         -0.6300   -1.6600    0.7140 sy        1 0S1      1.516200
     14 C6         -1.6630   -0.3900    0.3140 ca        1 0S1     -0.393500
     15 O2         -1.2030   -2.8620    0.2430 o         1 0S1     -0.656300
     16 O3         -0.3300   -1.5900    2.0920 o         1 0S1     -0.656300
     17 C7         -2.5910   -0.5230   -0.7270 ca        1 0S1     -0.010500
     18 C8         -3.4640    0.5110   -1.0450 ca        1 0S1     -0.161000
     19 C9         -3.4310    1.7100   -0.3220 ca        1 0S1     -0.007300
     20 C10        -2.5100    1.8500    0.7250 ca        1 0S1     -0.161000
     21 C11        -1.6400    0.8100    1.0350 ca        1 0S1     -0.010500
     22 C12        -4.3690    2.8080   -0.6470 c3        1 0S1     -0.068800
     23 HB2         0.7580   -1.5670   -1.1250 hn        1 0S1      0.455800
     24 H7         -2.6380   -1.4740   -1.2880 ha        1 0S1      0.151500
     25 H8         -4.1870    0.3870   -1.8660 ha        1 0S1      0.140500
     26 H9         -2.4780    2.7850    1.3040 ha        1 0S1      0.140500
     27 H10        -0.9270    0.9220    1.8710 ha        1 0S1      0.151500
     28 H11        -5.3070    2.6920   -0.0460 hc        1 0S1      0.053367
     29 H12        -3.9200    3.8040   -0.4060 hc        1 0S1      0.053367
     30 H13        -4.6430    2.7950   -1.7300 hc        1 0S1      0.053367
     31 C13         2.8160    3.0290    0.3310 c2        1 0S1     -0.165200
     32 C14         2.2820    4.2020    0.6630 c2        1 0S1     -0.221000
     33 H14         3.7680    0.1630   -1.7910 hc        1 0S1      0.066200
     34 H15         1.3440    1.8310    1.3520 hc        1 0S1      0.049700
     35 H16         3.0700    1.3980    1.6760 hc        1 0S1      0.049700
     36 H17         3.6620    2.9630   -0.3740 ha        1 0S1      0.122000
     37 H18         1.4380    4.2970    1.3590 ha        1 0S1      0.111500
     38 H19         2.6580    5.1510    0.2590 ha        1 0S1      0.111500
@<TRIPOS>BOND
     1    1    2 1   
     2    1    4 1   
     3    1    5 1   
     4    1    6 1   
     5    2    7 1   
     6    3    4 1   
     7    3    5 1   
     8    3    8 1   
     9    3    9 1   
    10    4   10 1   
    11    4   33 1   
    12    5   11 1   
    13    5   12 1   
    14    8   31 1   
    15    8   34 1   
    16    8   35 1   
    17   11   13 1   
    18   11   23 1   
    19   13   14 1   
    20   13   15 2   
    21   13   16 2   
    22   14   17 ar  
    23   14   21 ar  
    24   17   18 ar  
    25   17   24 1   
    26   18   19 ar  
    27   18   25 1   
    28   19   20 ar  
    29   19   22 1   
    30   20   21 ar  
    31   20   26 1   
    32   21   27 1   
    33   22   28 1   
    34   22   29 1   
    35   22   30 1   
    36   31   32 2   
    37   31   36 1   
    38   32   37 1   
    39   32   38 1   
@<TRIPOS>SUBSTRUCTURE
     1 0S1         1 TEMP              0 ****  ****    0 ROOT
