@<TRIPOS>MOLECULE
0S1
   39    34     1     0     0
SMALL
bcc


@<TRIPOS>ATOM
      1 C1          0.3080   -0.0370   -0.4800 c2        1 0S1     -0.062000
      2 O1         -0.5320    0.7560   -1.2450 oh        1 0S1     -0.251000
      3 C2          0.3170   -1.2840    1.7290 c3        1 0S1     -0.311000
      4 C3          1.5670   -0.3790   -0.8570 c2        1 0S1     -0.084000
      5 C4         -0.3100   -0.4180    0.7540 c2        1 0S1      0.345000
      6 H           0.8700   -0.6050    2.4590 hc        1 0S1      0.175000
      7 HO         -0.0990    0.9450   -2.0920 ho        1 0S1      0.243000
      8 C5          2.9840   -3.0990    0.5240 c1        1 0S1      0.371000
      9 HG         -0.4410   -1.8570    2.3240 hc        1 0S1      0.175000
     10 HGA         2.2150   -1.0220   -0.2320 ha        1 0S1      0.172000
     11 N1         -0.1160    3.8970    1.5720 n8        1 0S1     -0.954000
     12 HB1        -1.3510   -0.0640    0.9280 ha        1 0S1      0.197000
     13 S1         -0.5840    2.6250    2.3980 s6        1 0S1      2.891000
     14 C6         -0.1000    2.9300    3.9460 c2        1 0S1     -0.916000
     15 O2         -1.9700    2.4250    2.2660 o         1 0S1     -0.979500
     16 O3          0.1430    1.4450    1.9670 o         1 0S1     -0.979500
     17 C7         -0.5780    3.8080    4.7860 c1        1 0S1      0.062000
     18 C8         -1.0090    4.6870    5.6420 c2        1 0S1     -0.106000
     19 C9         -2.1620    4.5010    6.5800 c3        1 0S1      0.053000
     20 C10        -2.6050    3.1350    6.6730 c1        1 0S1     -0.201000
     21 C11        -3.0090    2.0140    6.7710 c1        1 0S1     -0.164000
     22 C12        -1.8000    5.0550    7.9520 c3        1 0S1     -0.210000
     23 HB2        -0.7510    4.4740    1.0700 hn        1 0S1      0.259000
     24 H7          0.7120    2.2710    4.3290 h4        1 0S1      0.203000
     25 H8         -0.5220    5.6810    5.7010 ha        1 0S1      0.182000
     26 H9         -3.0190    5.1190    6.1620 hc        1 0S1      0.132000
     27 H10        -3.3740    1.0220    6.8620 ha        1 0S1      0.231000
     28 H11        -2.6710    4.9490    8.6420 hc        1 0S1      0.094000
     29 H12        -0.9330    4.5020    8.3870 hc        1 0S1      0.094000
     30 H13        -1.5340    6.1360    7.8710 hc        1 0S1      0.094000
     31 C13         3.8290   -4.0480    0.6200 c1        1 0S1     -0.753000
     32 C14         4.6950   -5.0160    0.7000 c1        1 0S1      0.371000
     33 H14         1.9990   -0.0380   -1.8110 ha        1 0S1      0.172000
     34 H15         3.7980   -1.2000    1.9300 ha        1 0S1      0.005500
     35 H16         1.0800   -1.9890    1.2980 hc        1 0S1      0.175000
     36 H17         3.1350   -1.0640    1.9660 ha        1 0S1      0.005500
     37 H18         4.1700   -6.7250    2.2960 ha        1 0S1      0.005500
     38 H19         3.6550   -6.2890    2.3780 ha        1 0S1      0.005500
     39 H121        0.8160    4.2240    1.5100 hn        1 0S1      0.259000
@<TRIPOS>BOND
     1    1    2 1   
     2    1    4 1   
     3    1    5 1   
     4    2    7 1   
     5    3    5 1   
     6    3    6 1   
     7    3    9 1   
     8    3   35 1   
     9    4   10 1   
    10    4   33 1   
    11    5   12 1   
    12    8   31 1   
    13   11   13 1   
    14   11   23 1   
    15   11   39 1   
    16   13   14 1   
    17   13   15 1   
    18   13   16 1   
    19   14   17 1   
    20   14   24 1   
    21   17   18 1   
    22   18   19 1   
    23   18   25 1   
    24   19   20 1   
    25   19   22 1   
    26   19   26 1   
    27   20   21 1   
    28   21   27 1   
    29   22   28 1   
    30   22   29 1   
    31   22   30 1   
    32   31   32 1   
    33   34   36 1   
    34   37   38 1   
@<TRIPOS>SUBSTRUCTURE
     1 0S1         1 TEMP              0 ****  ****    0 ROOT
