@<TRIPOS>MOLECULE
0S1
   38    35     1     0     0
SMALL
bcc


@<TRIPOS>ATOM
      1 C1          0.3750   -2.1600   -2.0850 cy        1 0S1      0.000000
      2 O1          0.3540   -1.4680   -3.3290 oh        1 0S1     -0.323000
      3 C2          1.8880   -1.6260   -0.6260 cy        1 0S1     -0.108000
      4 C3          1.8450   -1.4620   -2.0090 cy        1 0S1     -0.162000
      5 C4          0.4950   -1.6110   -0.5550 cy        1 0S1     -0.023000
      6 H          -0.5270   -1.7800   -1.9890 h1        1 0S1      0.090000
      7 HO          0.5740   -2.0300   -3.9870 ho        1 0S1      0.231000
      8 C5          2.5080   -3.0310   -0.1940 c3        1 0S1     -0.128000
      9 HG          2.2980   -0.8590   -0.1670 hc        1 0S1      0.103000
     10 HGA         2.5360   -1.9870   -2.4730 hc        1 0S1      0.105500
     11 N1         -0.0100   -0.3530   -0.4070 n3        1 0S1     -0.874000
     12 HB1         0.1440   -2.2530    0.1050 h1        1 0S1      0.110000
     13 S1         -1.6540   -0.1240   -0.2970 s4        1 0S1      2.085800
     14 C6         -2.0130    1.3660    0.6340 c1        1 0S1     -0.843000
     15 O2         -2.2650   -0.0850   -1.6020 o         1 0S1     -0.556400
     16 O3         -2.3040   -1.2720    0.2820 o         1 0S1     -0.556400
     17 C7         -2.7510    1.3770    1.8150 c2        1 0S1     -0.008000
     18 C8         -3.1220    2.5870    2.3930 c1        1 0S1     -0.163000
     19 C9         -2.7560    3.7890    1.7910 c1        1 0S1      0.004000
     20 C10        -2.0180    3.7780    0.6100 c1        1 0S1     -0.162000
     21 C11        -1.6460    2.5670    0.0320 c1        1 0S1     -0.009000
     22 C12        -3.1130    5.1170    2.4570 c3        1 0S1     -0.195000
     23 HB2         0.5590    0.3620   -0.3230 hn        1 0S1      0.246000
     24 H7         -3.0090    0.5310    2.2400 ha        1 0S1      0.157000
     25 H8         -3.6430    2.5940    3.2260 ha        1 0S1      0.143000
     26 H9         -1.7600    4.6250    0.1860 ha        1 0S1      0.143000
     27 H10        -1.1270    2.5600   -0.7990 ha        1 0S1      0.156000
     28 H11        -2.4620    5.8030    2.1890 hc        1 0S1      0.094000
     29 H12        -3.0930    5.0100    3.4320 hc        1 0S1      0.094000
     30 H13        -4.0140    5.3920    2.1760 hc        1 0S1      0.094000
     31 C13         4.0350   -2.9100   -0.1000 c2        1 0S1     -0.161000
     32 C14         4.8040   -4.0320   -0.0420 c1        1 0S1     -0.220000
     33 H14         1.8280   -0.5160   -2.2770 hc        1 0S1      0.105500
     34 H15         2.1460   -3.2940    0.6810 hc        1 0S1      0.093000
     35 H16         2.2740   -3.7120   -0.8630 hc        1 0S1      0.093000
     36 H17         4.4560   -2.0240   -0.0820 ha        1 0S1      0.119000
     37 H18         4.3830   -4.9160   -0.0600 DU        1 0S1      0.112000
     38 H19         5.7820   -3.9540    0.0190 ha        1 0S1      0.113000
@<TRIPOS>BOND
     1    1    2 1   
     2    1    4 1   
     3    1    5 1   
     4    1    6 1   
     5    2    7 1   
     6    3    4 1   
     7    3    5 1   
     8    3    8 1   
     9    3    9 1   
    10    4   10 1   
    11    4   33 1   
    12    5   11 1   
    13    5   12 1   
    14    8   31 1   
    15    8   34 1   
    16    8   35 1   
    17   11   13 1   
    18   11   23 1   
    19   13   15 1   
    20   13   16 1   
    21   14   17 1   
    22   14   21 1   
    23   17   18 1   
    24   17   24 1   
    25   18   25 1   
    26   19   20 1   
    27   19   22 1   
    28   20   26 1   
    29   21   27 1   
    30   22   28 1   
    31   22   29 1   
    32   22   30 1   
    33   31   32 1   
    34   31   36 1   
    35   32   38 1   
@<TRIPOS>SUBSTRUCTURE
     1 0S1         1 TEMP              0 ****  ****    0 ROOT
