@<TRIPOS>MOLECULE
0S1
   38    34     1     0     0
SMALL
bcc


@<TRIPOS>ATOM
      1 C1         -0.0550    0.4570    0.3920 c2        1 0S1      0.077000
      2 O1         -0.0160    1.8420    0.3230 oh        1 0S1     -0.311000
      3 C2          1.1800   -0.7600    2.3400 c2        1 0S1     -0.128000
      4 C3         -0.7710   -0.2520   -0.6980 c3        1 0S1     -0.202000
      5 C4          0.5480   -0.1400    1.3960 c1        1 0S1     -0.253000
      6 H          -0.3330    0.0350   -1.6870 hc        1 0S1      0.097333
      7 HO         -0.7810    2.1330   -0.2040 ho        1 0S1      0.252000
      8 C5          6.4480   -3.1030    4.0610 c1        1 0S1      0.385000
      9 HG          2.2460   -1.0420    2.2600 ha        1 0S1      0.135000
     10 HGA        -0.6880   -1.3590   -0.5740 hc        1 0S1      0.097333
     11 N1          0.4900    4.3760    1.7590 n3        1 0S1     -0.926000
     12 HB1         0.9380    3.9570    0.9780 hn        1 0S1      0.258500
     13 S1         -1.0390    4.1380    2.0880 s6        1 0S1      2.850000
     14 C6         -1.0410    2.8020    3.2300 c3        1 0S1     -0.854000
     15 O2         -1.6320    5.2350    2.7370 o         1 0S1     -0.948500
     16 O3         -1.7110    3.6680    0.9300 o         1 0S1     -0.948500
     17 C7         -0.0670    3.0980    4.2600 c1        1 0S1     -0.057000
     18 C8         -0.1630    2.5600    5.5950 c3        1 0S1     -0.213000
     19 C9         -1.3980    1.7240    5.9290 c3        1 0S1     -0.271000
     20 C10        -2.5330    1.8110    5.0130 c1        1 0S1     -0.063000
     21 C11        -2.4330    2.4490    3.7200 c3        1 0S1     -0.198000
     22 C12        -1.0480    0.3360    6.2400 c1        1 0S1     -0.001000
     23 HB2         1.1320    4.7580    2.4110 hn        1 0S1      0.258500
     24 H7         -0.6120    1.8930    2.6880 h1        1 0S1      0.219000
     25 H8          0.7720    1.9430    5.7650 hc        1 0S1      0.160000
     26 H9         -3.0660    3.3890    3.8090 hc        1 0S1      0.161000
     27 H10        -2.9560    1.7980    2.9620 hc        1 0S1      0.161000
     28 H11        -1.8130    2.0770    6.9410 hc        1 0S1      0.201000
     29 H12        -1.8730   -0.3910    6.1410 ha        1 0S1      0.054000
     30 H13        -0.0800    3.4350    6.3040 hc        1 0S1      0.160000
     31 C13         5.4030   -2.5620    3.5360 c1        1 0S1     -0.784000
     32 C14         4.3650   -2.0180    3.0010 c1        1 0S1      0.385000
     33 H14        -1.8540    0.0300   -0.6940 hc        1 0S1      0.097333
     34 H15         0.6930   -1.0530    3.2830 ha        1 0S1      0.135000
     35 H16         2.1720   -2.9550    3.5980 ha        1 0S1      0.004250
     36 H17         2.5560   -3.5020    3.7160 ha        1 0S1      0.004250
     37 H18         2.7910   -0.9000    4.5230 ha        1 0S1      0.004250
     38 H19         3.3570   -0.8510    4.8950 ha        1 0S1      0.004250
@<TRIPOS>BOND
     1    1    2 1   
     2    1    4 1   
     3    1    5 1   
     4    2    7 1   
     5    3    5 1   
     6    3    9 1   
     7    3   34 1   
     8    4    6 1   
     9    4   10 1   
    10    4   33 1   
    11    8   31 1   
    12   11   12 1   
    13   11   13 1   
    14   11   23 1   
    15   13   14 1   
    16   13   15 1   
    17   13   16 1   
    18   14   17 1   
    19   14   21 1   
    20   14   24 1   
    21   17   18 1   
    22   18   19 1   
    23   18   25 1   
    24   18   30 1   
    25   19   20 1   
    26   19   22 1   
    27   19   28 1   
    28   20   21 1   
    29   21   26 1   
    30   21   27 1   
    31   22   29 1   
    32   31   32 1   
    33   35   36 1   
    34   37   38 1   
@<TRIPOS>SUBSTRUCTURE
     1 0S1         1 TEMP              0 ****  ****    0 ROOT
