@<TRIPOS>MOLECULE
0S2
   57    57     1     0     0
SMALL
bcc


@<TRIPOS>ATOM
      1 C12         2.8940    3.4420    1.3630 c3        1 0S2     -0.281500
      2 C11         3.3430    2.4010    2.2590 c1        1 0S2     -0.102000
      3 C14         1.5780   -4.2890   -1.6390 c2        1 0S2      0.301000
      4 C13         2.4620    1.3150    2.5920 c3        1 0S2     -0.281500
      5 C15         1.5870   -5.1000   -0.3380 c3        1 0S2     -0.119000
      6 C17         1.4550   -6.5900   -0.6190 c3        1 0S2     -0.146000
      7 C18         2.7170   -7.1950   -1.1970 c3        1 0S2     -0.154500
      8 C19         3.9290   -6.9120   -0.3230 c3        1 0S2     -0.105000
      9 C20         4.0770   -5.4120   -0.1130 c3        1 0S2     -0.154500
     10 C21         2.8260   -4.8220    0.5020 c3        1 0S2     -0.146000
     11 C02         1.4850   -2.2210   -3.9040 c2        1 0S2     -0.133000
     12 C03         1.6390   -1.0550   -4.6430 c2        1 0S2     -0.345000
     13 S04         1.9700    0.2640   -3.6580 ss        1 0S2      0.652000
     14 C05         1.9330   -0.6190   -2.2500 c2        1 0S2     -0.441000
     15 C06         1.6520   -1.9720   -2.4990 c2        1 0S2      0.026000
     16 N07         1.5260   -2.9210   -1.4840 ns        1 0S2     -0.287000
     17 O09         2.1580   -0.7290    0.1310 o         1 0S2     -0.571500
     18 O10         2.4110    1.2450   -0.8510 o         1 0S2     -0.571500
     19 O16         1.5500   -4.8530   -2.7550 o         1 0S2     -0.401000
     20 C22         5.1810   -7.4900   -0.9460 c3        1 0S2     -0.205000
     21 C23         1.4540   -0.8590   -7.2160 c1        1 0S2     -0.209000
     22 C24         1.3530   -0.7440   -8.6510 c3        1 0S2      0.074000
     23 C25         2.5270   -1.4630   -9.3140 c3        1 0S2     -0.201000
     24 C26         0.0470   -1.3760   -9.1320 c3        1 0S2     -0.201000
     25 C27         1.3750    0.7290   -9.0580 c3        1 0S2     -0.201000
     26 H1          3.5120    4.3670    1.4610 hc        1 0S2      0.108333
     27 H2          3.0450    3.0110    0.3230 hc        1 0S2      0.108333
     28 H3          1.8120    3.7190    1.4490 hc        1 0S2      0.108333
     29 H4          1.6290   -2.5330   -0.5560 hn        1 0S2      0.284000
     30 H5          1.3770    1.5770    2.6830 hc        1 0S2      0.108333
     31 H6          2.5480    0.5890    1.7090 hc        1 0S2      0.108333
     32 H7          2.7860    0.7800    3.5170 hc        1 0S2      0.108333
     33 H8          0.6820   -4.7800    0.2560 hc        1 0S2      0.102000
     34 H9          0.6110   -6.7530   -1.3390 hc        1 0S2      0.086500
     35 H10         1.1980   -7.1070    0.3440 hc        1 0S2      0.086500
     36 H11         2.5830   -8.3030   -1.3040 hc        1 0S2      0.087250
     37 H12         2.8860   -6.7680   -2.2220 hc        1 0S2      0.087250
     38 H13         3.7690   -7.3980    0.6810 hc        1 0S2      0.074000
     39 H14         4.2820   -4.9160   -1.0980 hc        1 0S2      0.087250
     40 H15         4.9530   -5.2110    0.5580 hc        1 0S2      0.087250
     41 H16         2.6660   -5.2760    1.5170 hc        1 0S2      0.086500
     42 H17         2.9670   -3.7190    0.6520 hc        1 0S2      0.086500
     43 H18         1.2740   -3.2110   -4.3160 ha        1 0S2      0.175000
     44 H20         5.3710   -7.0270   -1.9440 hc        1 0S2      0.068333
     45 H21         6.0650   -7.2960   -0.2920 hc        1 0S2      0.068333
     46 H22         5.0740   -8.5930   -1.0820 hc        1 0S2      0.068333
     47 H23         2.5260   -2.5430   -9.0360 hc        1 0S2      0.074222
     48 H24         3.4930   -1.0100   -8.9850 hc        1 0S2      0.074222
     49 H25         2.4470   -1.3750  -10.4240 hc        1 0S2      0.074222
     50 H26        -0.8260   -0.8580   -8.6670 hc        1 0S2      0.074222
     51 H27         0.0140   -2.4550   -8.8510 hc        1 0S2      0.074222
     52 H28        -0.0300   -1.2880  -10.2420 hc        1 0S2      0.074222
     53 H29         1.2970    0.8160  -10.1680 hc        1 0S2      0.074222
     54 H30         2.3260    1.2070   -8.7240 hc        1 0S2      0.074222
     55 H31         0.5190    1.2710   -8.5910 hc        1 0S2      0.074222
     56 C01         1.5400   -0.9500   -6.0230 c1        1 0S2     -0.039000
     57 C08         2.1830    0.0030   -0.9070 c2        1 0S2      0.393000
@<TRIPOS>BOND
     1    1    2 1   
     2    1   26 1   
     3    1   27 1   
     4    1   28 1   
     5    2    4 1   
     6    3    5 1   
     7    3   16 1   
     8    3   19 1   
     9    4   30 1   
    10    4   31 1   
    11    4   32 1   
    12    5    6 1   
    13    5   10 1   
    14    5   33 1   
    15    6    7 1   
    16    6   34 1   
    17    6   35 1   
    18    7    8 1   
    19    7   36 1   
    20    7   37 1   
    21    8    9 1   
    22    8   20 1   
    23    8   38 1   
    24    9   10 1   
    25    9   39 1   
    26    9   40 1   
    27   10   41 1   
    28   10   42 1   
    29   11   12 1   
    30   11   15 1   
    31   11   43 1   
    32   12   13 1   
    33   12   56 1   
    34   13   14 1   
    35   14   15 1   
    36   14   57 1   
    37   15   16 1   
    38   16   29 1   
    39   17   57 1   
    40   18   57 1   
    41   20   44 1   
    42   20   45 1   
    43   20   46 1   
    44   21   22 1   
    45   21   56 1   
    46   22   23 1   
    47   22   24 1   
    48   22   25 1   
    49   23   47 1   
    50   23   48 1   
    51   23   49 1   
    52   24   50 1   
    53   24   51 1   
    54   24   52 1   
    55   25   53 1   
    56   25   54 1   
    57   25   55 1   
@<TRIPOS>SUBSTRUCTURE
     1 0S2         1 TEMP              0 ****  ****    0 ROOT
