@<TRIPOS>MOLECULE
0S2
   57    52     1     0     0
SMALL
bcc


@<TRIPOS>ATOM
      1 C12        -1.4010    1.6480    1.0690 c3        1 0S2     -0.234500
      2 C11         0.0490    1.9580    0.6140 c3        1 0S2      0.048000
      3 C14         1.1470    0.8600   -1.3660 c1        1 0S2      0.336000
      4 C13         0.8880    2.3420    1.8200 c3        1 0S2     -0.234500
      5 C15         1.3000    2.2400   -2.0550 c2        1 0S2     -0.116000
      6 C17         0.4160    2.3430   -3.3270 c3        1 0S2     -0.162000
      7 C18         0.6280    3.6560   -4.1060 c3        1 0S2     -0.146500
      8 C19         2.0550    3.9140   -4.4210 c3        1 0S2     -0.110000
      9 C20         2.9440    3.8280   -3.2250 c3        1 0S2     -0.146500
     10 C21         2.7630    2.5180   -2.4340 c3        1 0S2     -0.162000
     11 C01        -1.3560   -3.5080    2.3970 c1        1 0S2     -0.126500
     12 C02        -0.7560   -1.2630    1.0920 c1        1 0S2     -0.054000
     13 C03        -0.3830   -2.4910    1.7600 c1        1 0S2     -0.364000
     14 S04         1.1560   -2.5760    1.7750 ss        1 0S2      0.618000
     15 C05         1.6980   -1.3140    1.0700 c1        1 0S2     -0.364000
     16 C06         0.5610   -0.5160    0.6540 c1        1 0S2     -0.054000
     17 N07         0.6220    0.7750   -0.0220 n2        1 0S2     -0.259000
     18 C08         3.1710   -1.0480    0.7030 c1        1 0S2      0.381000
     19 O09         3.6200   -1.4250   -0.4240 o         1 0S2     -0.550500
     20 O10         3.9550   -0.5820    1.5630 o         1 0S2     -0.550500
     21 O16         1.5490   -0.1720   -1.9440 o         1 0S2     -0.368000
     22 C22         2.1890    5.3790   -5.0590 c3        1 0S2     -0.205000
     23 C23        -2.1190   -4.3070    2.8930 c1        1 0S2     -0.126500
     24 C24        -3.0850   -5.3200    3.5170 c2        1 0S2      0.076000
     25 C25        -4.0080   -5.8950    2.4190 c3        1 0S2     -0.200667
     26 C26        -3.9410   -4.6210    4.5890 c3        1 0S2     -0.200667
     27 C27        -2.2790   -6.4690    4.1640 c3        1 0S2     -0.200667
     28 H1         -1.8260    1.0760    0.4210 hc        1 0S2      0.085500
     29 H2         -1.3810    1.1970    1.9390 hc        1 0S2      0.085500
     30 H3         -1.9000    2.4740    1.1450 hc        1 0S2      0.085500
     31 H4          0.0390    2.7170   -0.0400 h1        1 0S2      0.065000
     32 H5          0.3760    2.9780    2.3910 hc        1 0S2      0.085500
     33 H6          1.1030    1.5380    2.3360 hc        1 0S2      0.085500
     34 H7          1.7090    2.7640    1.5230 hc        1 0S2      0.085500
     35 H8          0.9830    2.8530   -1.3410 ha        1 0S2      0.099000
     36 H9         -0.5140    2.2820   -3.0650 hc        1 0S2      0.106500
     37 H10         0.6220    1.6120   -3.9020 hc        1 0S2      0.106500
     38 H11         0.1110    3.6100   -4.9630 hc        1 0S2      0.071000
     39 H12         0.2890    4.3880   -3.5780 hc        1 0S2      0.071000
     40 H13         2.3540    3.2500   -5.0840 hc        1 0S2      0.087000
     41 H14         2.7400    4.6160   -2.6070 hc        1 0S2      0.071000
     42 H15         3.8520    3.8890   -3.5120 hc        1 0S2      0.071000
     43 H16         3.2870    2.5690   -1.6260 hc        1 0S2      0.106500
     44 H17         3.0960    1.7680   -2.9810 hc        1 0S2      0.106500
     45 H18        -1.6940   -0.9530    0.9110 DU        1 0S2      0.146000
     46 H20         3.0360    5.4290   -5.6200 hc        1 0S2      0.064667
     47 H21         2.2320    6.0410   -4.3470 hc        1 0S2      0.064667
     48 H22         1.4070    5.5610   -5.6300 hc        1 0S2      0.064667
     49 H23        -3.4660   -6.4670    1.7880 hc        1 0S2      0.073333
     50 H24        -4.4200   -5.1590    1.9200 hc        1 0S2      0.073333
     51 H25        -4.7270   -6.4540    2.8450 hc        1 0S2      0.073333
     52 H26        -4.3030   -5.2780    5.1870 hc        1 0S2      0.073333
     53 H27        -4.6680   -4.1390    4.1580 hc        1 0S2      0.073333
     54 H28        -3.3680   -3.9730    5.1070 hc        1 0S2      0.073333
     55 H29        -1.5400   -6.1010    4.6640 hc        1 0S2      0.073333
     56 H30        -2.8700   -6.9880    4.7770 hc        1 0S2      0.073333
     57 H31        -1.9400   -7.0540    3.4710 hc        1 0S2      0.073333
@<TRIPOS>BOND
     1    1    2 1   
     2    1   28 1   
     3    1   29 1   
     4    1   30 1   
     5    2    4 1   
     6    2   17 1   
     7    2   31 1   
     8    3   17 1   
     9    3   21 1   
    10    4   32 1   
    11    4   33 1   
    12    4   34 1   
    13    5    6 1   
    14    5   10 1   
    15    5   35 1   
    16    6    7 1   
    17    6   36 1   
    18    6   37 1   
    19    7    8 1   
    20    7   38 1   
    21    7   39 1   
    22    8    9 1   
    23    8   22 1   
    24    8   40 1   
    25    9   10 1   
    26    9   41 1   
    27    9   42 1   
    28   10   43 1   
    29   10   44 1   
    30   11   23 1   
    31   12   13 1   
    32   12   16 1   
    33   13   14 1   
    34   14   15 1   
    35   15   16 1   
    36   18   19 1   
    37   18   20 1   
    38   22   46 1   
    39   22   47 1   
    40   22   48 1   
    41   24   25 1   
    42   24   26 1   
    43   24   27 1   
    44   25   49 1   
    45   25   50 1   
    46   25   51 1   
    47   26   52 1   
    48   26   53 1   
    49   26   54 1   
    50   27   55 1   
    51   27   56 1   
    52   27   57 1   
@<TRIPOS>SUBSTRUCTURE
     1 0S2         1 TEMP              0 ****  ****    0 ROOT
