@<TRIPOS>MOLECULE
0S2
   58    58     1     0     0
SMALL
bcc


@<TRIPOS>ATOM
      1 C12        -0.6420   -0.5390   -1.1680 c3        1 0S2     -0.231500
      2 C11         0.7800   -0.2430   -0.7030 c3        1 0S2     -0.063000
      3 C14         1.3770   -2.8200   -0.7040 c2        1 0S2      0.219000
      4 C13         0.7880   -0.0670    0.8150 c3        1 0S2     -0.231500
      5 C15         2.2630   -3.3400    0.4900 c2        1 0S2     -0.107000
      6 C17         3.6260   -3.7120    0.0230 c3        1 0S2      0.044000
      7 C18         4.1440   -7.3510   -1.2080 c3        1 0S2     -0.212333
      8 C19         5.2760   -7.7280   -0.2750 c3        1 0S2     -0.107000
      9 C20         5.5730   -6.5950    0.6840 c3        1 0S2     -0.212333
     10 C21         1.7200   -3.3840    1.6200 c1        1 0S2     -0.466000
     11 C02         1.6530   -0.3410   -3.4890 c2        1 0S2     -0.146000
     12 C03         2.2670   -0.5570   -4.7230 c2        1 0S2     -0.257000
     13 S04         3.4050   -1.7710   -4.6490 ss        1 0S2      0.780000
     14 C05         3.1700   -2.0600   -3.0360 c2        1 0S2     -0.465000
     15 C06         2.1820   -1.2140   -2.4930 c2        1 0S2     -0.042000
     16 N07         1.7720   -1.2880   -1.1150 n4        1 0S2     -0.053000
     17 O09         4.2340   -4.1990   -2.6910 o         1 0S2     -0.306000
     18 O10         4.1160   -2.7830   -0.9640 os        1 0S2     -0.303000
     19 O16         0.3280   -3.2320   -1.1530 o         1 0S2     -0.265000
     20 C22         4.9440   -8.9950    0.4840 c3        1 0S2     -0.212333
     21 C23         1.7480    0.7310   -6.9050 c1        1 0S2     -0.078000
     22 C24         1.4600    1.4450   -8.1300 c3        1 0S2      0.048000
     23 C25         1.3700    2.9430   -7.8430 c3        1 0S2     -0.204667
     24 C26         2.5710    1.1930   -9.1470 c3        1 0S2     -0.204667
     25 C27         0.1300    0.9620   -8.7070 c3        1 0S2     -0.204667
     26 H1         -1.2650    0.3730   -1.0090 hc        1 0S2      0.099500
     27 H2         -0.6700   -0.8150   -2.2490 hc        1 0S2      0.099500
     28 H3         -1.0810   -1.3850   -0.5840 hc        1 0S2      0.099500
     29 H4          1.1080    0.7380   -1.1670 hx        1 0S2      0.099000
     30 H5          1.7560    0.3710    1.1610 hc        1 0S2      0.099500
     31 H6          0.6340   -1.0480    1.3350 hc        1 0S2      0.099500
     32 H7         -0.0400    0.6250    1.1010 hc        1 0S2      0.099500
     33 H8          3.6500   -4.7590   -0.3850 h1        1 0S2      0.117000
     34 H9          4.3660   -3.6120    0.8640 h1        1 0S2      0.117000
     35 H10         4.4050   -6.4310   -1.7880 hc        1 0S2      0.073778
     36 H11         3.2100   -7.1510   -0.6290 hc        1 0S2      0.073778
     37 H12         3.9430   -8.1800   -1.9270 hc        1 0S2      0.073778
     38 H13         6.1980   -7.9180   -0.8950 hc        1 0S2      0.081000
     39 H14         4.6790   -6.3700    1.3150 hc        1 0S2      0.073778
     40 H15         6.4220   -6.8660    1.3570 hc        1 0S2      0.073778
     41 H16         1.0320   -3.3310    2.4180 ha        1 0S2      0.201000
     42 H17         5.8450   -5.6700    0.1200 hc        1 0S2      0.073778
     43 H18         0.8660    0.3970   -3.3180 ha        1 0S2      0.173000
     44 H20         4.0330   -8.8470    1.1130 hc        1 0S2      0.073778
     45 H21         5.7910   -9.2830    1.1520 hc        1 0S2      0.073778
     46 H22         4.7500   -9.8340   -0.2270 hc        1 0S2      0.073778
     47 H23         1.1480    3.4920   -8.7890 hc        1 0S2      0.083111
     48 H24         2.3360    3.3180   -7.4270 hc        1 0S2      0.083111
     49 H25         0.5570    3.1510   -7.1080 hc        1 0S2      0.083111
     50 H26         3.5520    1.5460   -8.7490 hc        1 0S2      0.083111
     51 H27         2.6470    0.1040   -9.3790 hc        1 0S2      0.083111
     52 H28         2.3460    1.7460  -10.0910 hc        1 0S2      0.083111
     53 H29         0.1770   -0.1290   -8.9320 hc        1 0S2      0.083111
     54 H30        -0.0900    1.5160   -9.6510 hc        1 0S2      0.083111
     55 H31        -0.6980    1.1450   -7.9810 hc        1 0S2      0.083111
     56 C08         3.8480   -3.1060   -2.2770 c2        1 0S2      0.382000
     57 H071        2.6230   -1.1360   -0.5530 hn        1 0S2      0.246000
     58 C01         1.9910    0.1330   -5.8940 c1        1 0S2     -0.143000
@<TRIPOS>BOND
     1    1    2 1   
     2    1   26 1   
     3    1   27 1   
     4    1   28 1   
     5    2    4 1   
     6    2   16 1   
     7    2   29 1   
     8    3    5 1   
     9    3   16 1   
    10    3   19 1   
    11    4   30 1   
    12    4   31 1   
    13    4   32 1   
    14    5    6 1   
    15    5   10 1   
    16    6   18 1   
    17    6   33 1   
    18    6   34 1   
    19    7    8 1   
    20    7   35 1   
    21    7   36 1   
    22    7   37 1   
    23    8    9 1   
    24    8   20 1   
    25    8   38 1   
    26    9   39 1   
    27    9   40 1   
    28    9   42 1   
    29   10   41 1   
    30   11   12 1   
    31   11   15 1   
    32   11   43 1   
    33   12   13 1   
    34   12   58 1   
    35   13   14 1   
    36   14   15 1   
    37   14   56 1   
    38   15   16 1   
    39   16   57 1   
    40   17   56 1   
    41   18   56 1   
    42   20   44 1   
    43   20   45 1   
    44   20   46 1   
    45   21   22 1   
    46   21   58 1   
    47   22   23 1   
    48   22   24 1   
    49   22   25 1   
    50   23   47 1   
    51   23   48 1   
    52   23   49 1   
    53   24   50 1   
    54   24   51 1   
    55   24   52 1   
    56   25   53 1   
    57   25   54 1   
    58   25   55 1   
@<TRIPOS>SUBSTRUCTURE
     1 0S2         1 TEMP              0 ****  ****    0 ROOT
