@<TRIPOS>MOLECULE
0S2
   57    58     1     0     0
SMALL
bcc


@<TRIPOS>ATOM
      1 C12         0.1510    0.0360    0.7780 c3        1 0S2     -0.114600
      2 C11         1.6400   -0.0670    0.4400 c3        1 0S2      0.122700
      3 C14         1.8950   -2.5280    0.4740 c         1 0S2      0.679100
      4 C13         2.4670    0.2150    1.6940 c3        1 0S2     -0.114600
      5 C15         2.3720   -3.8730   -0.0720 c3        1 0S2     -0.111700
      6 C17         1.4260   -4.3910   -1.1430 c3        1 0S2     -0.083400
      7 C18         1.8980   -5.7400   -1.6450 c3        1 0S2     -0.068400
      8 C19         3.2820   -5.6650   -2.2810 c3        1 0S2     -0.064700
      9 C20         3.9930   -4.3600   -1.9490 c3        1 0S2     -0.068400
     10 C21         3.8250   -3.9140   -0.5120 c3        1 0S2     -0.083400
     11 C02         1.8500   -1.4000   -2.7150 cc        1 0S2     -0.114000
     12 C03         2.6240   -1.1230   -3.8320 cd        1 0S2     -0.090100
     13 S04         4.1640   -0.6050   -3.3830 ss        1 0S2      0.073200
     14 C05         3.8750   -0.7320   -1.7550 cd        1 0S2     -0.110700
     15 C06         2.5810   -1.1920   -1.4910 cc        1 0S2     -0.035400
     16 N07         1.9830   -1.3340   -0.2220 n         1 0S2     -0.344000
     17 O09         4.9420    0.8650   -0.3560 o         1 0S2     -0.800800
     18 O10         5.7020   -1.2400   -0.3140 o         1 0S2     -0.800800
     19 O16         1.3430   -2.5430    1.6020 o         1 0S2     -0.655100
     20 C22         4.1210   -6.8610   -1.8800 c3        1 0S2     -0.086100
     21 C23         1.8820   -1.3240   -6.3010 c1        1 0S2     -0.185100
     22 C24         1.4750   -1.4330   -7.6810 c3        1 0S2      0.047100
     23 C25         2.2110   -2.5930   -8.3510 c3        1 0S2     -0.082767
     24 C26        -0.0300   -1.6870   -7.7590 c3        1 0S2     -0.082767
     25 C27         1.8020   -0.1390   -8.4250 c3        1 0S2     -0.082767
     26 H1         -0.1290   -0.7180    1.5520 hc        1 0S2      0.043700
     27 H2         -0.4790   -0.1250   -0.1280 hc        1 0S2      0.043700
     28 H3         -0.0540    1.0590    1.1770 hc        1 0S2      0.043700
     29 H4          1.8820    0.7540   -0.3040 h1        1 0S2      0.067700
     30 H5          3.5550    0.2680    1.4300 hc        1 0S2      0.043700
     31 H6          2.1530    1.1990    2.1160 hc        1 0S2      0.043700
     32 H7          2.3090   -0.5760    2.4650 hc        1 0S2      0.043700
     33 H8          2.2730   -4.5710    0.8150 hc        1 0S2      0.061700
     34 H9          0.3950   -4.4880   -0.7140 hc        1 0S2      0.062200
     35 H10         1.3730   -3.6690   -1.9980 hc        1 0S2      0.062200
     36 H11         1.9130   -6.4630   -0.7850 hc        1 0S2      0.037200
     37 H12         1.1640   -6.1350   -2.3940 hc        1 0S2      0.037200
     38 H13         3.1520   -5.6980   -3.4010 hc        1 0S2      0.032700
     39 H14         5.0880   -4.4670   -2.1680 hc        1 0S2      0.037200
     40 H15         3.5970   -3.5510   -2.6230 hc        1 0S2      0.037200
     41 H16         4.3770   -4.6290    0.1550 hc        1 0S2      0.062200
     42 H17         4.3210   -2.9080   -0.3860 hc        1 0S2      0.062200
     43 H18         0.8070   -1.7220   -2.7480 ha        1 0S2      0.146000
     44 H20         5.0860   -6.8620   -2.4410 hc        1 0S2      0.026367
     45 H21         3.5790   -7.8110   -2.1030 hc        1 0S2      0.026367
     46 H22         4.3490   -6.8290   -0.7880 hc        1 0S2      0.026367
     47 H23         3.3130   -2.4240   -8.3140 hc        1 0S2      0.034922
     48 H24         1.9780   -3.5510   -7.8290 hc        1 0S2      0.034922
     49 H25         1.8940   -2.6770   -9.4180 hc        1 0S2      0.034922
     50 H26        -0.2910   -2.6340   -7.2300 hc        1 0S2      0.034922
     51 H27        -0.3450   -1.7710   -8.8270 hc        1 0S2      0.034922
     52 H28        -0.5890   -0.8460   -7.2830 hc        1 0S2      0.034922
     53 H29         2.8990    0.0600   -8.3890 hc        1 0S2      0.034922
     54 H30         1.4860   -0.2250   -9.4920 hc        1 0S2      0.034922
     55 H31         1.2670    0.7210   -7.9570 hc        1 0S2      0.034922
     56 C01         2.2250   -1.2310   -5.1550 ch        1 0S2     -0.035000
     57 C08         4.9210   -0.3400   -0.7220 c         1 0S2      0.931200
@<TRIPOS>BOND
     1    1    2 1   
     2    1   26 1   
     3    1   27 1   
     4    1   28 1   
     5    2    4 1   
     6    2   16 1   
     7    2   29 1   
     8    3    5 1   
     9    3   16 1   
    10    3   19 2   
    11    4   30 1   
    12    4   31 1   
    13    4   32 1   
    14    5    6 1   
    15    5   10 1   
    16    5   33 1   
    17    6    7 1   
    18    6   34 1   
    19    6   35 1   
    20    7    8 1   
    21    7   36 1   
    22    7   37 1   
    23    8    9 1   
    24    8   20 1   
    25    8   38 1   
    26    9   10 1   
    27    9   39 1   
    28    9   40 1   
    29   10   41 1   
    30   10   42 1   
    31   11   12 2   
    32   11   15 1   
    33   11   43 1   
    34   12   13 1   
    35   12   56 1   
    36   13   14 1   
    37   14   15 2   
    38   14   57 1   
    39   15   16 1   
    40   17   57 1   
    41   18   57 1   
    42   20   44 1   
    43   20   45 1   
    44   20   46 1   
    45   21   22 1   
    46   21   56 3   
    47   22   23 1   
    48   22   24 1   
    49   22   25 1   
    50   23   47 1   
    51   23   48 1   
    52   23   49 1   
    53   24   50 1   
    54   24   51 1   
    55   24   52 1   
    56   25   53 1   
    57   25   54 1   
    58   25   55 1   
@<TRIPOS>SUBSTRUCTURE
     1 0S2         1 TEMP              0 ****  ****    0 ROOT
