@<TRIPOS>MOLECULE
0S2
   57    58     1     0     0
SMALL
bcc


@<TRIPOS>ATOM
      1 C12         1.7030    3.4180    2.4880 c3        1 0S2     -0.115600
      2 C11         1.6370    2.9900    1.0200 c3        1 0S2      0.125700
      3 C14         2.2510    0.5890    1.2510 c         1 0S2      0.681100
      4 C13         2.9170    3.4280    0.3080 c3        1 0S2     -0.115600
      5 C15         2.0090   -0.8620    0.8370 c3        1 0S2     -0.123700
      6 C17         2.4530   -1.7940    1.9550 c3        1 0S2     -0.082900
      7 C18         2.3200   -3.2430    1.5360 c3        1 0S2     -0.066400
      8 C19         3.1040   -3.5250    0.2630 c3        1 0S2     -0.070700
      9 C20         2.6560   -2.5880   -0.8500 c3        1 0S2     -0.066400
     10 C21         2.7880   -1.1370   -0.4430 c3        1 0S2     -0.082900
     11 C02        -1.0100    0.7460    0.7020 cc        1 0S2     -0.114000
     12 C03        -2.0020    0.5280   -0.2420 cd        1 0S2     -0.087100
     13 S04        -1.4570    0.9200   -1.7900 ss        1 0S2      0.070200
     14 C05         0.0580    1.3680   -1.2850 cd        1 0S2     -0.107700
     15 C06         0.2020    1.2380    0.0980 cc        1 0S2     -0.042400
     16 N07         1.3400    1.5640    0.8660 n         1 0S2     -0.349000
     17 O09         1.8570    0.9840   -2.7910 o         1 0S2     -0.802300
     18 O10         1.1930    3.0960   -2.4630 o         1 0S2     -0.802300
     19 O16         3.2440    0.8850    1.9530 o         1 0S2     -0.645100
     20 C22         2.9400   -4.9700   -0.1540 c3        1 0S2     -0.086100
     21 C23        -4.3890   -0.3540    0.2140 c1        1 0S2     -0.185100
     22 C24        -5.7230   -0.8470    0.4610 c3        1 0S2      0.047100
     23 C25        -6.4630    0.1030    1.4030 c3        1 0S2     -0.083100
     24 C26        -6.4930   -0.9420   -0.8560 c3        1 0S2     -0.083100
     25 C27        -5.6570   -2.2330    1.1010 c3        1 0S2     -0.083100
     26 H1          1.8470    4.5240    2.5310 hc        1 0S2      0.043367
     27 H2          0.7590    3.1600    3.0240 hc        1 0S2      0.043367
     28 H3          2.5590    2.9190    3.0020 hc        1 0S2      0.043367
     29 H4          0.7780    3.5470    0.5320 h1        1 0S2      0.068700
     30 H5          3.8030    2.8780    0.7060 hc        1 0S2      0.043367
     31 H6          2.8240    3.2400   -0.7930 hc        1 0S2      0.043367
     32 H7          3.0640    4.5220    0.4730 hc        1 0S2      0.043367
     33 H8          0.9140   -1.0380    0.6390 hc        1 0S2      0.070700
     34 H9          3.5190   -1.5660    2.2220 hc        1 0S2      0.065200
     35 H10         1.8310   -1.6070    2.8680 hc        1 0S2      0.065200
     36 H11         2.6930   -3.9060    2.3600 hc        1 0S2      0.033700
     37 H12         1.2390   -3.4900    1.3680 hc        1 0S2      0.033700
     38 H13         4.1940   -3.3310    0.4700 hc        1 0S2      0.044700
     39 H14         3.2770   -2.7720   -1.7660 hc        1 0S2      0.033700
     40 H15         1.5900   -2.8090   -1.1170 hc        1 0S2      0.033700
     41 H16         2.4070   -0.4710   -1.2710 hc        1 0S2      0.065200
     42 H17         3.8690   -0.8860   -0.2760 hc        1 0S2      0.065200
     43 H18        -1.1200    0.5710    1.7730 ha        1 0S2      0.146000
     44 H20         1.8680   -5.1970   -0.3700 hc        1 0S2      0.025033
     45 H21         3.5360   -5.1770   -1.0760 hc        1 0S2      0.025033
     46 H22         3.2900   -5.6530    0.6570 hc        1 0S2      0.025033
     47 H23        -7.4940   -0.2790    1.5930 hc        1 0S2      0.034811
     48 H24        -5.9220    0.1800    2.3760 hc        1 0S2      0.034811
     49 H25        -6.5310    1.1200    0.9510 hc        1 0S2      0.034811
     50 H26        -6.5620    0.0630   -1.3360 hc        1 0S2      0.034811
     51 H27        -5.9750   -1.6390   -1.5570 hc        1 0S2      0.034811
     52 H28        -7.5240   -1.3220   -0.6640 hc        1 0S2      0.034811
     53 H29        -5.1280   -2.9460    0.4250 hc        1 0S2      0.034811
     54 H30        -5.1060   -2.1850    2.0700 hc        1 0S2      0.034811
     55 H31        -6.6890   -2.6120    1.2910 hc        1 0S2      0.034811
     56 C01        -3.2810    0.0550    0.0030 ch        1 0S2     -0.035000
     57 C08         1.1230    1.8560   -2.2540 c         1 0S2      0.932200
@<TRIPOS>BOND
     1    1    2 1   
     2    1   26 1   
     3    1   27 1   
     4    1   28 1   
     5    2    4 1   
     6    2   16 1   
     7    2   29 1   
     8    3    5 1   
     9    3   16 1   
    10    3   19 2   
    11    4   30 1   
    12    4   31 1   
    13    4   32 1   
    14    5    6 1   
    15    5   10 1   
    16    5   33 1   
    17    6    7 1   
    18    6   34 1   
    19    6   35 1   
    20    7    8 1   
    21    7   36 1   
    22    7   37 1   
    23    8    9 1   
    24    8   20 1   
    25    8   38 1   
    26    9   10 1   
    27    9   39 1   
    28    9   40 1   
    29   10   41 1   
    30   10   42 1   
    31   11   12 2   
    32   11   15 1   
    33   11   43 1   
    34   12   13 1   
    35   12   56 1   
    36   13   14 1   
    37   14   15 2   
    38   14   57 1   
    39   15   16 1   
    40   17   57 1   
    41   18   57 1   
    42   20   44 1   
    43   20   45 1   
    44   20   46 1   
    45   21   22 1   
    46   21   56 3   
    47   22   23 1   
    48   22   24 1   
    49   22   25 1   
    50   23   47 1   
    51   23   48 1   
    52   23   49 1   
    53   24   50 1   
    54   24   51 1   
    55   24   52 1   
    56   25   53 1   
    57   25   54 1   
    58   25   55 1   
@<TRIPOS>SUBSTRUCTURE
     1 0S2         1 TEMP              0 ****  ****    0 ROOT
