@<TRIPOS>MOLECULE
0S3
   56    57     1     0     0
SMALL
bcc


@<TRIPOS>ATOM
      1 C01        -0.8180   -0.5520   -0.9260 cc        1 0S3     -0.111000
      2 C02         0.4810   -0.8180   -0.3650 cc        1 0S3     -0.005400
      3 C03         0.3800   -1.3650    0.9150 cd        1 0S3     -0.113700
      4 S04        -1.2080   -1.5260    1.3840 ss        1 0S3      0.090200
      5 C05        -1.8330   -0.8860   -0.0420 cd        1 0S3     -0.095100
      6 C06        -3.1940   -0.7360   -0.2650 ch        1 0S3     -0.032000
      7 C07        -4.3710   -0.6060   -0.4570 c1        1 0S3     -0.188100
      8 C08        -5.7880   -0.4540   -0.6810 c3        1 0S3      0.047100
      9 C09        -6.4410    0.1990    0.5370 c3        1 0S3     -0.082767
     10 C10        -6.0280    0.4250   -1.9070 c3        1 0S3     -0.082767
     11 C11        -6.4290   -1.8220   -0.9150 c3        1 0S3     -0.082767
     12 N12         1.6590   -0.5610   -1.1270 n         1 0S3     -0.226400
     13 C13         2.3570    0.6510   -0.9400 c         1 0S3      0.679100
     14 N14         2.2520   -1.7000   -1.6700 n3        1 0S3     -0.447600
     15 C15         1.7070    1.7710   -0.1350 c3        1 0S3     -0.115700
     16 O16         3.4550    0.8400   -1.5060 o         1 0S3     -0.640100
     17 C17         2.5660    2.0380    1.0950 c3        1 0S3     -0.083400
     18 C18         2.0280    3.2120    1.8820 c3        1 0S3     -0.067400
     19 C19         1.9260    4.4620    1.0190 c3        1 0S3     -0.070700
     20 C20         1.0680    4.1890   -0.2080 c3        1 0S3     -0.067400
     21 C21         1.6020    3.0170   -1.0040 c3        1 0S3     -0.083400
     22 C22         1.3630    5.6190    1.8150 c3        1 0S3     -0.087100
     23 C23         2.5340   -1.5600   -3.1070 c3        1 0S3      0.118100
     24 C24         3.4650   -2.1610   -0.9760 c3        1 0S3      0.118100
     25 C25         1.5050   -1.7840    1.8400 c         1 0S3      0.931200
     26 O26         2.5300   -1.0490    1.8950 o         1 0S3     -0.810300
     27 O27         1.3430   -2.8340    2.5160 o         1 0S3     -0.810300
     28 H1         -0.9700   -0.1380   -1.9240 ha        1 0S3      0.145000
     29 H2         -7.5370    0.3170    0.3620 hc        1 0S3      0.034589
     30 H3         -6.2860   -0.4330    1.4440 hc        1 0S3      0.034589
     31 H4         -5.9950    1.2050    0.7210 hc        1 0S3      0.034589
     32 H5         -5.5770    1.4340   -1.7530 hc        1 0S3      0.034589
     33 H6         -5.5670   -0.0390   -2.8110 hc        1 0S3      0.034589
     34 H7         -7.1240    0.5430   -2.0800 hc        1 0S3      0.034589
     35 H8         -5.9720   -2.3140   -1.8070 hc        1 0S3      0.034589
     36 H9         -6.2740   -2.4780   -0.0270 hc        1 0S3      0.034589
     37 H10        -7.5250   -1.7030   -1.0900 hc        1 0S3      0.034589
     38 H11         0.6740    1.4830    0.2070 hc        1 0S3      0.075700
     39 H12         2.5840    1.1110    1.7360 hc        1 0S3      0.064700
     40 H13         3.6190    2.2460    0.7680 hc        1 0S3      0.064700
     41 H14         1.0150    2.9590    2.2910 hc        1 0S3      0.033450
     42 H15         2.7020    3.4160    2.7540 hc        1 0S3      0.033450
     43 H16         2.9620    4.7350    0.6700 hc        1 0S3      0.044700
     44 H17         0.0150    3.9750    0.1170 hc        1 0S3      0.033450
     45 H18         1.0420    5.1020   -0.8570 hc        1 0S3      0.033450
     46 H19         2.6160    3.2630   -1.4170 hc        1 0S3      0.064700
     47 H20         0.9220    2.8130   -1.8720 hc        1 0S3      0.064700
     48 H21         2.0100    5.8310    2.7000 hc        1 0S3      0.025367
     49 H22         1.3110    6.5390    1.1840 hc        1 0S3      0.025367
     50 H23         0.3350    5.3820    2.1790 hc        1 0S3      0.025367
     51 H24         3.3400   -0.8140   -3.3380 h1        1 0S3      0.045867
     52 H25         2.8550   -2.5720   -3.4670 h1        1 0S3      0.045867
     53 H26         1.6000   -1.2650   -3.6500 h1        1 0S3      0.045867
     54 H27         3.2810   -2.1970    0.1340 h1        1 0S3      0.045867
     55 H28         3.6700   -3.1960   -1.3510 h1        1 0S3      0.045867
     56 H29         4.3590   -1.5110   -1.1720 h1        1 0S3      0.045867
@<TRIPOS>BOND
     1    1    2 1   
     2    1    5 2   
     3    1   28 1   
     4    2    3 2   
     5    2   12 1   
     6    3    4 1   
     7    3   25 1   
     8    4    5 1   
     9    5    6 1   
    10    6    7 3   
    11    7    8 1   
    12    8    9 1   
    13    8   10 1   
    14    8   11 1   
    15    9   29 1   
    16    9   30 1   
    17    9   31 1   
    18   10   32 1   
    19   10   33 1   
    20   10   34 1   
    21   11   35 1   
    22   11   36 1   
    23   11   37 1   
    24   12   13 1   
    25   12   14 1   
    26   13   15 1   
    27   13   16 2   
    28   14   23 1   
    29   14   24 1   
    30   15   17 1   
    31   15   21 1   
    32   15   38 1   
    33   17   18 1   
    34   17   39 1   
    35   17   40 1   
    36   18   19 1   
    37   18   41 1   
    38   18   42 1   
    39   19   20 1   
    40   19   22 1   
    41   19   43 1   
    42   20   21 1   
    43   20   44 1   
    44   20   45 1   
    45   21   46 1   
    46   21   47 1   
    47   22   48 1   
    48   22   49 1   
    49   22   50 1   
    50   23   51 1   
    51   23   52 1   
    52   23   53 1   
    53   24   54 1   
    54   24   55 1   
    55   24   56 1   
    56   25   26 1   
    57   25   27 1   
@<TRIPOS>SUBSTRUCTURE
     1 0S3         1 TEMP              0 ****  ****    0 ROOT
