@<TRIPOS>MOLECULE
0S3
   58    59     1     0     0
SMALL
bcc


@<TRIPOS>ATOM
      1 C01        -0.0660    0.4400    0.8120 cc        1 0S3     -0.131000
      2 C02         1.3350    0.2880    0.9180 cc        1 0S3     -0.018400
      3 C03         1.6920   -0.7360    1.8280 cd        1 0S3     -0.272700
      4 S04         0.3630   -1.4500    2.4720 ss        1 0S3      0.403200
      5 C05        -0.7100   -0.4890    1.6470 cd        1 0S3      0.043900
      6 C06        -2.0800   -0.6210    1.7890 ch        1 0S3     -0.213000
      7 C07        -3.2700   -0.7350    1.9080 c1        1 0S3      0.043900
      8 C08        -4.7020   -0.8830    2.0600 c3        1 0S3      0.003100
      9 C09        -5.2820    0.3790    2.6980 c3        1 0S3     -0.089433
     10 C10        -5.3430   -1.0980    0.6890 c3        1 0S3     -0.089433
     11 C11        -5.0020   -2.0860    2.9540 c3        1 0S3     -0.089433
     12 N12         2.3470    1.0510    0.1960 n4        1 0S3     -0.321400
     13 C13         1.8410    1.3430   -1.2460 c         1 0S3      0.564100
     14 N14         3.6460    0.3120    0.1730 na        1 0S3     -0.131900
     15 C15         1.4130    2.7780   -1.4550 c3        1 0S3     -0.132700
     16 O16         1.8380    0.4240   -2.0390 o         1 0S3     -0.367100
     17 C17         2.6420    3.6610   -1.6440 c3        1 0S3     -0.077900
     18 C18         2.2210    5.0940   -1.9040 c3        1 0S3     -0.078900
     19 C19         1.3030    5.1920   -3.1140 c3        1 0S3     -0.069700
     20 C20         0.0920    4.2880   -2.9370 c3        1 0S3     -0.078900
     21 C21         0.5020    2.8530   -2.6790 c3        1 0S3     -0.077900
     22 C22         0.8670    6.6250   -3.3300 c3        1 0S3     -0.094100
     23 C23         0.2090   -2.2680   -3.6490 c3        1 0S3     -0.110800
     24 C24         4.7560    1.1830   -0.2900 c3        1 0S3      0.063100
     25 C25         3.0900   -0.9870    2.0830 c         1 0S3      0.785200
     26 O26         3.9830   -0.0880    1.4010 os        1 0S3     -0.265400
     27 O27         3.7030   -1.7310    2.8230 o         1 0S3     -0.457500
     28 H1         -0.5850    1.1610    0.1750 ha        1 0S3      0.183000
     29 H2         -4.8330    0.5500    3.7060 hc        1 0S3      0.050811
     30 H3         -6.3870    0.2600    2.8130 hc        1 0S3      0.050811
     31 H4         -5.0830    1.2700    2.0560 hc        1 0S3      0.050811
     32 H5         -5.1450   -0.2250    0.0240 hc        1 0S3      0.050811
     33 H6         -6.4470   -1.2120    0.8120 hc        1 0S3      0.050811
     34 H7         -4.9390   -2.0200    0.2090 hc        1 0S3      0.050811
     35 H8         -4.5950   -3.0210    2.5010 hc        1 0S3      0.050811
     36 H9         -4.5510   -1.9440    3.9650 hc        1 0S3      0.050811
     37 H10        -6.1080   -2.1950    3.0670 hc        1 0S3      0.050811
     38 H11         0.8300    3.1350   -0.5570 hc        1 0S3      0.090700
     39 H12         3.2910    3.6210   -0.7310 hc        1 0S3      0.059200
     40 H13         3.2430    3.2850   -2.5140 hc        1 0S3      0.059200
     41 H14         3.1370    5.7170   -2.0780 hc        1 0S3      0.062450
     42 H15         1.6990    5.5060   -1.0010 hc        1 0S3      0.062450
     43 H16         1.8750    4.8480   -4.0220 hc        1 0S3      0.059700
     44 H17        -0.5370    4.6640   -2.0890 hc        1 0S3      0.062450
     45 H18        -0.5370    4.3230   -3.8650 hc        1 0S3      0.062450
     46 H19        -0.4070    2.2200   -2.5080 hc        1 0S3      0.059200
     47 H20         1.0420    2.4400   -3.5720 hc        1 0S3      0.059200
     48 H21         1.7580    7.2810   -3.4830 hc        1 0S3      0.047367
     49 H22         0.2140    6.6970   -4.2330 hc        1 0S3      0.047367
     50 H23         0.2950    7.0030   -2.4490 hc        1 0S3      0.047367
     51 H24         0.1720   -2.1070   -4.7480 hc        1 0S3      0.027700
     52 H25         0.7140   -3.2360   -3.4360 hc        1 0S3      0.027700
     53 H26        -0.8250   -2.2930   -3.2430 hc        1 0S3      0.027700
     54 H27         5.6590    0.5130   -0.3410 h1        1 0S3      0.100367
     55 H28         4.9830    2.0410    0.3960 h1        1 0S3      0.100367
     56 H29         4.5050    1.5510   -1.3190 h1        1 0S3      0.100367
     57 H121        2.4450    1.9580    0.6830 hn        1 0S3      0.430800
     58 H141        0.7790   -1.4400   -3.1720 hc        1 0S3      0.027700
@<TRIPOS>BOND
     1    1    2 1   
     2    1    5 2   
     3    1   28 1   
     4    2    3 2   
     5    2   12 1   
     6    3    4 1   
     7    3   25 1   
     8    4    5 1   
     9    5    6 1   
    10    6    7 3   
    11    7    8 1   
    12    8    9 1   
    13    8   10 1   
    14    8   11 1   
    15    9   29 1   
    16    9   30 1   
    17    9   31 1   
    18   10   32 1   
    19   10   33 1   
    20   10   34 1   
    21   11   35 1   
    22   11   36 1   
    23   11   37 1   
    24   12   13 1   
    25   12   14 1   
    26   12   57 1   
    27   13   15 1   
    28   13   16 2   
    29   14   24 1   
    30   14   26 1   
    31   15   17 1   
    32   15   21 1   
    33   15   38 1   
    34   17   18 1   
    35   17   39 1   
    36   17   40 1   
    37   18   19 1   
    38   18   41 1   
    39   18   42 1   
    40   19   20 1   
    41   19   22 1   
    42   19   43 1   
    43   20   21 1   
    44   20   44 1   
    45   20   45 1   
    46   21   46 1   
    47   21   47 1   
    48   22   48 1   
    49   22   49 1   
    50   22   50 1   
    51   23   51 1   
    52   23   52 1   
    53   23   53 1   
    54   23   58 1   
    55   24   54 1   
    56   24   55 1   
    57   24   56 1   
    58   25   26 1   
    59   25   27 2   
@<TRIPOS>SUBSTRUCTURE
     1 0S3         1 TEMP              0 ****  ****    0 ROOT
