@<TRIPOS>MOLECULE
0S3
   57    58     1     0     0
SMALL
bcc


@<TRIPOS>ATOM
      1 C01        -0.1640   -0.1300   -0.0390 cc        1 0S3     -0.158000
      2 C02         1.2310    0.2000   -0.0470 cc        1 0S3      0.063600
      3 C03         1.6630    0.5910    1.2290 cd        1 0S3     -0.239700
      4 S04         0.4200    0.5760    2.3310 ss        1 0S3      0.182200
      5 C05        -0.7160    0.0400    1.2250 cd        1 0S3      0.012900
      6 C06        -2.0370   -0.1940    1.5810 ch        1 0S3     -0.131000
      7 C07        -3.1800   -0.3970    1.8830 c1        1 0S3     -0.062100
      8 C08        -4.5560   -0.6390    2.2540 c3        1 0S3      0.023100
      9 C09        -5.3740    0.6380    2.0640 c3        1 0S3     -0.086433
     10 C10        -5.1390   -1.7460    1.3760 c3        1 0S3     -0.086433
     11 C11        -4.6280   -1.0690    3.7190 c3        1 0S3     -0.086433
     12 N12         2.0810    0.1370   -1.1880 n         1 0S3     -0.260400
     13 C13         1.8430    1.0620   -2.2470 c         1 0S3      0.652100
     14 N14         2.6550   -1.1190   -1.3900 n3        1 0S3     -0.475600
     15 C15         1.1890    2.3930   -1.8980 c3        1 0S3     -0.124700
     16 O16         2.2460    0.8080   -3.3950 o         1 0S3     -0.583100
     17 C17         2.2250    3.3180   -1.2720 c3        1 0S3     -0.072400
     18 C18         1.6260    4.6780   -0.9820 c3        1 0S3     -0.072400
     19 C19         1.0340    5.3060   -2.2350 c3        1 0S3     -0.069700
     20 C20         0.0030    4.3750   -2.8560 c3        1 0S3     -0.072400
     21 C21         0.5990    3.0160   -3.1560 c3        1 0S3     -0.072400
     22 C22         0.4150    6.6490   -1.9160 c3        1 0S3     -0.089100
     23 C23         1.9000   -2.0100   -2.2850 c3        1 0S3      0.116600
     24 C24         4.0560   -1.0380   -1.8340 c3        1 0S3      0.116600
     25 C25         3.0280    1.0080    1.5480 c         1 0S3      0.685700
     26 O26         3.3770    2.0850    2.0350 o         1 0S3     -0.493000
     27 O27         4.0580    0.1490    1.3130 oh        1 0S3     -0.572100
     28 H1         -0.7140   -0.4720   -0.9190 ha        1 0S3      0.171000
     29 H2         -6.4360    0.4470    2.3500 hc        1 0S3      0.043256
     30 H3         -5.3420    0.9650    0.9980 hc        1 0S3      0.043256
     31 H4         -4.9710    1.4570    2.7050 hc        1 0S3      0.043256
     32 H5         -4.5600   -2.6910    1.5060 hc        1 0S3      0.043256
     33 H6         -5.1050   -1.4470    0.3010 hc        1 0S3      0.043256
     34 H7         -6.2010   -1.9310    1.6640 hc        1 0S3      0.043256
     35 H8         -4.0420   -2.0060    3.8780 hc        1 0S3      0.043256
     36 H9         -4.2160   -0.2700    4.3790 hc        1 0S3      0.043256
     37 H10        -5.6910   -1.2570    4.0010 hc        1 0S3      0.043256
     38 H11         0.3550    2.2240   -1.1590 hc        1 0S3      0.071700
     39 H12         2.6080    2.8680   -0.3170 hc        1 0S3      0.056700
     40 H13         3.0940    3.4280   -1.9720 hc        1 0S3      0.056700
     41 H14         0.8280    4.5800   -0.2010 hc        1 0S3      0.043700
     42 H15         2.4220    5.3500   -0.5670 hc        1 0S3      0.043700
     43 H16         1.8650    5.4600   -2.9810 hc        1 0S3      0.050700
     44 H17        -0.8660    4.2620   -2.1560 hc        1 0S3      0.043700
     45 H18        -0.3850    4.8270   -3.8050 hc        1 0S3      0.043700
     46 H19        -0.1900    2.3380   -3.5740 hc        1 0S3      0.056700
     47 H20         1.4030    3.1110   -3.9330 hc        1 0S3      0.056700
     48 H21         1.1810    7.3360   -1.4820 hc        1 0S3      0.034033
     49 H22        -0.4160    6.5350   -1.1790 hc        1 0S3      0.034033
     50 H23         0.0030    7.1160   -2.8430 hc        1 0S3      0.034033
     51 H24         1.8890   -1.6650   -3.3530 h1        1 0S3      0.053533
     52 H25         2.3890   -3.0170   -2.2280 h1        1 0S3      0.053533
     53 H26         0.8450   -2.1010   -1.9180 h1        1 0S3      0.053533
     54 H27         4.4650   -2.0800   -1.7750 h1        1 0S3      0.053533
     55 H28         4.6390   -0.3790   -1.1370 h1        1 0S3      0.053533
     56 H29         4.1710   -0.6520   -2.8810 h1        1 0S3      0.053533
     57 H141        3.7280   -0.6750    0.9220 ho        1 0S3      0.449000
@<TRIPOS>BOND
     1    1    2 1   
     2    1    5 2   
     3    1   28 1   
     4    2    3 2   
     5    2   12 1   
     6    3    4 1   
     7    3   25 1   
     8    4    5 1   
     9    5    6 1   
    10    6    7 3   
    11    7    8 1   
    12    8    9 1   
    13    8   10 1   
    14    8   11 1   
    15    9   29 1   
    16    9   30 1   
    17    9   31 1   
    18   10   32 1   
    19   10   33 1   
    20   10   34 1   
    21   11   35 1   
    22   11   36 1   
    23   11   37 1   
    24   12   13 1   
    25   12   14 1   
    26   13   15 1   
    27   13   16 2   
    28   14   23 1   
    29   14   24 1   
    30   15   17 1   
    31   15   21 1   
    32   15   38 1   
    33   17   18 1   
    34   17   39 1   
    35   17   40 1   
    36   18   19 1   
    37   18   41 1   
    38   18   42 1   
    39   19   20 1   
    40   19   22 1   
    41   19   43 1   
    42   20   21 1   
    43   20   44 1   
    44   20   45 1   
    45   21   46 1   
    46   21   47 1   
    47   22   48 1   
    48   22   49 1   
    49   22   50 1   
    50   23   51 1   
    51   23   52 1   
    52   23   53 1   
    53   24   54 1   
    54   24   55 1   
    55   24   56 1   
    56   25   26 2   
    57   25   27 1   
    58   27   57 1   
@<TRIPOS>SUBSTRUCTURE
     1 0S3         1 TEMP              0 ****  ****    0 ROOT
