@<TRIPOS>MOLECULE
0S3
   56    51     1     0     0
SMALL
bcc


@<TRIPOS>ATOM
      1 C01        -0.9210    0.9000    1.3740 c1        1 0S3     -0.067500
      2 C02        -0.9830   -0.0740    0.1000 c1        1 0S3     -0.067500
      3 C03        -2.0360   -1.0410    0.3160 c1        1 0S3     -0.363000
      4 S04        -2.6810   -0.7430    1.6960 ss        1 0S3      0.620000
      5 C05        -1.9360    0.4860    2.3090 c1        1 0S3     -0.363000
      6 C06        -2.1580    1.0730    3.7230 c1        1 0S3     -0.126000
      7 C07        -2.3320    1.5340    4.8280 c1        1 0S3     -0.126000
      8 C08        -2.5510    2.1270    6.2340 c2        1 0S3      0.076000
      9 C09        -1.7730    1.3450    7.2260 c3        1 0S3     -0.200667
     10 C10        -4.0640    2.0600    6.5960 c3        1 0S3     -0.200667
     11 C11        -2.0660    3.6350    6.2510 c3        1 0S3     -0.200667
     12 N12        -0.1260   -0.0180   -1.0300 n2        1 0S3     -0.196000
     13 C13         0.7960   -1.2090   -1.3570 c1        1 0S3      0.353000
     14 N14        -0.0860    1.1490   -1.8260 n3        1 0S3     -0.131000
     15 C15         1.6100   -1.2190   -2.6740 c2        1 0S3     -0.108000
     16 O16         0.7860   -2.2150   -0.6300 o         1 0S3     -0.359000
     17 C17         3.1150   -1.4390   -2.4140 c3        1 0S3     -0.162000
     18 C18         3.9220   -1.5560   -3.6810 c3        1 0S3     -0.146500
     19 C19         3.3800   -2.5900   -4.6280 c3        1 0S3     -0.110000
     20 C20         1.9270   -2.4220   -4.9120 c3        1 0S3     -0.146500
     21 C21         1.0950   -2.3190   -3.6660 c3        1 0S3     -0.162000
     22 C22         4.1450   -2.4830   -5.9520 c3        1 0S3     -0.205000
     23 C23        -1.4010    1.6120   -2.0490 c3        1 0S3     -0.156500
     24 C24         0.6700    2.1680   -1.1440 c3        1 0S3     -0.156500
     25 C25        -2.4300   -2.1950   -0.6470 c1        1 0S3      0.378000
     26 O26        -3.3520   -2.0260   -1.4910 o         1 0S3     -0.548500
     27 O27        -1.8340   -3.2940   -0.5840 o         1 0S3     -0.548500
     28 H1         -0.2650    1.6500    1.5100 DU        1 0S3      0.149000
     29 H2         -1.8370    1.7630    8.0810 hc        1 0S3      0.073556
     30 H3         -0.8380    1.3080    6.9510 hc        1 0S3      0.073556
     31 H4         -2.1300    0.4460    7.2800 hc        1 0S3      0.073556
     32 H5         -4.2310    2.5890    7.4160 hc        1 0S3      0.073556
     33 H6         -4.5990    2.4310    5.8500 hc        1 0S3      0.073556
     34 H7         -4.3240    1.1160    6.7510 hc        1 0S3      0.073556
     35 H8         -2.7050    4.1840    5.7810 hc        1 0S3      0.073556
     36 H9         -1.9860    3.9510    7.1960 hc        1 0S3      0.073556
     37 H10        -1.1760    3.7020    5.8020 hc        1 0S3      0.073556
     38 H11         1.4360   -0.3290   -3.0110 ha        1 0S3      0.115000
     39 H12         3.2230   -2.2330   -1.9080 hc        1 0S3      0.105000
     40 H13         3.4610   -0.6750   -1.8880 hc        1 0S3      0.105000
     41 H14         4.8460   -1.7980   -3.4450 hc        1 0S3      0.070750
     42 H15         3.9280   -0.6850   -4.1320 hc        1 0S3      0.070750
     43 H16         3.5320   -3.5040   -4.2360 hc        1 0S3      0.086000
     44 H17         1.8000   -1.6000   -5.4480 hc        1 0S3      0.070750
     45 H18         1.6070   -3.2170   -5.4520 hc        1 0S3      0.070750
     46 H19         1.1070   -3.2150   -3.1930 hc        1 0S3      0.105000
     47 H20         0.1760   -2.1110   -3.9190 hc        1 0S3      0.105000
     48 H21         3.6240   -2.8730   -6.6510 hc        1 0S3      0.064333
     49 H22         4.3140   -1.5260   -6.1590 hc        1 0S3      0.064333
     50 H23         4.9650   -2.9390   -5.8800 hc        1 0S3      0.064333
     51 H24        -1.8130    1.1050   -2.8330 h1        1 0S3      0.085667
     52 H25        -1.9510    1.4610   -1.2260 h1        1 0S3      0.085667
     53 H26        -1.3770    2.5720   -2.2550 h1        1 0S3      0.085667
     54 H27         1.5920    1.9280   -1.1370 h1        1 0S3      0.085667
     55 H28         0.3460    2.2510   -0.2210 h1        1 0S3      0.085667
     56 H29         0.5630    3.0000   -1.5960 h1        1 0S3      0.085667
@<TRIPOS>BOND
     1    1    2 1   
     2    1    5 1   
     3    2    3 1   
     4    3    4 1   
     5    4    5 1   
     6    6    7 1   
     7    8    9 1   
     8    8   10 1   
     9    8   11 1   
    10    9   29 1   
    11    9   30 1   
    12    9   31 1   
    13   10   32 1   
    14   10   33 1   
    15   10   34 1   
    16   11   35 1   
    17   11   36 1   
    18   11   37 1   
    19   12   13 1   
    20   12   14 1   
    21   13   16 1   
    22   14   23 1   
    23   14   24 1   
    24   15   17 1   
    25   15   21 1   
    26   15   38 1   
    27   17   18 1   
    28   17   39 1   
    29   17   40 1   
    30   18   19 1   
    31   18   41 1   
    32   18   42 1   
    33   19   20 1   
    34   19   22 1   
    35   19   43 1   
    36   20   21 1   
    37   20   44 1   
    38   20   45 1   
    39   21   46 1   
    40   21   47 1   
    41   22   48 1   
    42   22   49 1   
    43   22   50 1   
    44   23   51 1   
    45   23   52 1   
    46   23   53 1   
    47   24   54 1   
    48   24   55 1   
    49   24   56 1   
    50   25   26 1   
    51   25   27 1   
@<TRIPOS>SUBSTRUCTURE
     1 0S3         1 TEMP              0 ****  ****    0 ROOT
