@<TRIPOS>MOLECULE
0S3
   57    58     1     0     0
SMALL
bcc


@<TRIPOS>ATOM
      1 C01        -0.1590   -0.1580   -0.1190 cc        1 0S3     -0.158000
      2 C02         1.2280    0.2030   -0.0840 cc        1 0S3      0.063600
      3 C03         1.6210    0.5660    1.2130 cd        1 0S3     -0.239700
      4 S04         0.3530    0.4920    2.2830 ss        1 0S3      0.182200
      5 C05        -0.7440   -0.0370    1.1350 cd        1 0S3      0.012900
      6 C06        -2.0680   -0.3090    1.4520 ch        1 0S3     -0.131000
      7 C07        -3.2120   -0.5460    1.7200 c1        1 0S3     -0.062100
      8 C08        -4.5920   -0.8290    2.0500 c3        1 0S3      0.023100
      9 C09        -5.5080    0.1520    1.3200 c3        1 0S3     -0.086433
     10 C10        -4.9410   -2.2550    1.6260 c3        1 0S3     -0.086433
     11 C11        -4.8010   -0.6870    3.5570 c3        1 0S3     -0.086433
     12 N12         2.1070    0.1910   -1.2050 n         1 0S3     -0.260400
     13 C13         1.8730    1.1410   -2.2430 c         1 0S3      0.652100
     14 N14         2.7130   -1.0460   -1.4290 n3        1 0S3     -0.475600
     15 C15         1.1810    2.4460   -1.8730 c3        1 0S3     -0.124700
     16 O16         2.3090    0.9280   -3.3880 o         1 0S3     -0.583100
     17 C17         2.1800    3.3750   -1.1950 c3        1 0S3     -0.072400
     18 C18         1.5440    4.7130   -0.8820 c3        1 0S3     -0.072400
     19 C19         0.9690    5.3640   -2.1310 c3        1 0S3     -0.069700
     20 C20        -0.0250    4.4280   -2.8040 c3        1 0S3     -0.072400
     21 C21         0.6090    3.0920   -3.1280 c3        1 0S3     -0.072400
     22 C22         0.3120    6.6830   -1.7900 c3        1 0S3     -0.089100
     23 C23         2.0000   -1.9270   -2.3660 c3        1 0S3      0.116600
     24 C24         4.1220   -0.9230   -1.8350 c3        1 0S3      0.116600
     25 C25         2.9680    1.0030    1.5770 c         1 0S3      0.685700
     26 O26         3.2820    2.0730    2.1020 o         1 0S3     -0.493000
     27 O27         4.0220    0.1730    1.3430 oh        1 0S3     -0.572100
     28 H1         -0.6790   -0.4860   -1.0220 ha        1 0S3      0.171000
     29 H2         -6.5720   -0.0700    1.5760 hc        1 0S3      0.043144
     30 H3         -5.3770    0.0580    0.2160 hc        1 0S3      0.043144
     31 H4         -5.2760    1.2000    1.6230 hc        1 0S3      0.043144
     32 H5         -4.2870   -2.9890    2.1550 hc        1 0S3      0.043144
     33 H6         -6.0060   -2.4710    1.8820 hc        1 0S3      0.043144
     34 H7         -4.8030   -2.3780    0.5260 hc        1 0S3      0.043144
     35 H8         -4.1460   -1.4020    4.1100 hc        1 0S3      0.043144
     36 H9         -5.8660   -0.9060    3.8080 hc        1 0S3      0.043144
     37 H10        -4.5600    0.3520    3.8870 hc        1 0S3      0.043144
     38 H11         0.3330    2.2370   -1.1610 hc        1 0S3      0.071700
     39 H12         3.0640    3.5240   -1.8700 hc        1 0S3      0.056700
     40 H13         2.5500    2.9060   -0.2440 hc        1 0S3      0.056700
     41 H14         2.3150    5.3890   -0.4280 hc        1 0S3      0.043700
     42 H15         0.7290    4.5750   -0.1240 hc        1 0S3      0.043700
     43 H16         1.8150    5.5570   -2.8510 hc        1 0S3      0.050700
     44 H17        -0.4000    4.8990   -3.7500 hc        1 0S3      0.043700
     45 H18        -0.9080    4.2760   -2.1300 hc        1 0S3      0.043700
     46 H19         1.4290    3.2280   -3.8810 hc        1 0S3      0.056700
     47 H20        -0.1540    2.4100   -3.5840 hc        1 0S3      0.056700
     48 H21        -0.5340    6.5300   -1.0770 hc        1 0S3      0.034033
     49 H22         1.0520    7.3730   -1.3170 hc        1 0S3      0.034033
     50 H23        -0.0870    7.1680   -2.7130 hc        1 0S3      0.034033
     51 H24         2.0070   -1.5520   -3.4250 h1        1 0S3      0.053533
     52 H25         2.5090   -2.9250   -2.3250 h1        1 0S3      0.053533
     53 H26         0.9380   -2.0510   -2.0290 h1        1 0S3      0.053533
     54 H27         4.5530   -1.9570   -1.7960 h1        1 0S3      0.053533
     55 H28         4.6730   -0.2720   -1.1060 h1        1 0S3      0.053533
     56 H29         4.2530   -0.5040   -2.8680 h1        1 0S3      0.053533
     57 H141        3.7210   -0.6460    0.9210 ho        1 0S3      0.449000
@<TRIPOS>BOND
     1    1    2 1   
     2    1    5 2   
     3    1   28 1   
     4    2    3 2   
     5    2   12 1   
     6    3    4 1   
     7    3   25 1   
     8    4    5 1   
     9    5    6 1   
    10    6    7 3   
    11    7    8 1   
    12    8    9 1   
    13    8   10 1   
    14    8   11 1   
    15    9   29 1   
    16    9   30 1   
    17    9   31 1   
    18   10   32 1   
    19   10   33 1   
    20   10   34 1   
    21   11   35 1   
    22   11   36 1   
    23   11   37 1   
    24   12   13 1   
    25   12   14 1   
    26   13   15 1   
    27   13   16 2   
    28   14   23 1   
    29   14   24 1   
    30   15   17 1   
    31   15   21 1   
    32   15   38 1   
    33   17   18 1   
    34   17   39 1   
    35   17   40 1   
    36   18   19 1   
    37   18   41 1   
    38   18   42 1   
    39   19   20 1   
    40   19   22 1   
    41   19   43 1   
    42   20   21 1   
    43   20   44 1   
    44   20   45 1   
    45   21   46 1   
    46   21   47 1   
    47   22   48 1   
    48   22   49 1   
    49   22   50 1   
    50   23   51 1   
    51   23   52 1   
    52   23   53 1   
    53   24   54 1   
    54   24   55 1   
    55   24   56 1   
    56   25   26 2   
    57   25   27 1   
    58   27   57 1   
@<TRIPOS>SUBSTRUCTURE
     1 0S3         1 TEMP              0 ****  ****    0 ROOT
