@<TRIPOS>MOLECULE
0S4
   72    64     1     0     0
SMALL
bcc


@<TRIPOS>ATOM
      1 C1          2.8780    0.4080   -2.7820 c1        1 0S4     -0.141000
      2 C2          4.2480    0.1270   -2.8100 c1        1 0S4      0.063000
      3 C3          4.9370   -0.0990   -1.6180 c1        1 0S4     -0.085000
      4 C4          4.2570   -0.0450   -0.3920 c2        1 0S4     -0.106000
      5 C5          2.8920    0.2350   -0.3640 c1        1 0S4     -0.086000
      6 C6          2.2000    0.4620   -1.5610 c1        1 0S4     -0.141000
      7 C7          2.1700    0.4310    0.9940 c3        1 0S4      0.043000
      8 C8          0.6050    0.3040    0.7790 c1        1 0S4     -0.089000
      9 C9          2.6470   -0.6490    1.9940 c3        1 0S4     -0.148000
     10 C10         2.4970    1.8260    1.5550 c3        1 0S4     -0.148000
     11 C11         2.7760    1.7200    3.0840 c3        1 0S4     -0.214500
     12 C12         1.6450   -0.7280    3.1910 c3        1 0S4     -0.214500
     13 C13        -0.0160   -0.5960   -0.0690 c1        1 0S4     -0.102000
     14 C14        -1.4040   -0.5280   -0.2700 c1        1 0S4     -0.093000
     15 C15        -2.1560    0.4470    0.3890 c1        1 0S4      0.069000
     16 C16        -2.0750   -1.4430   -1.3160 c2        1 0S4     -0.167500
     17 C17        -1.5290    1.3490    1.2410 c2        1 0S4     -0.203000
     18 C18        -0.1510    1.2810    1.4380 c1        1 0S4     -0.103000
     19 O19         4.9500    0.1390   -4.0450 o         1 0S4     -0.225000
     20 O22         6.0360   -1.7640   -8.3690 oh        1 0S4     -0.239000
     21 C20         4.8000   -1.0740   -4.8160 c3        1 0S4     -0.048000
     22 C21         5.3660   -0.8520   -6.2340 c1        1 0S4      0.236000
     23 N23         5.6310   -1.9650   -7.0740 n2        1 0S4     -0.183000
     24 O24         5.5010    0.2730   -6.6620 o         1 0S4     -0.318000
     25 C25        -6.6580    0.1360    2.3240 c3        1 0S4     -0.082000
     26 C26        -8.1250    0.4630    2.0500 c3        1 0S4     -0.209667
     27 C27        -6.2600    0.6930    3.7060 c3        1 0S4     -0.209667
     28 C28        -6.4640   -1.3670    2.3070 c3        1 0S4     -0.209667
     29 C29        -4.3170    0.4710    1.4840 c3        1 0S4     -0.022000
     30 O30        -3.5850    0.4840    0.2310 o         1 0S4     -0.214000
     31 C31        -5.7680    0.7900    1.2230 c3        1 0S4      0.005000
     32 O32        -5.9490    2.1660    1.2400 oh        1 0S4     -0.336000
     33 C33         6.4730   -0.3290   -1.6410 c2        1 0S4     -0.167500
     34 H1          2.3870    0.5680   -3.6300 ha        1 0S4      0.143000
     35 H2          4.7420   -0.2040    0.4450 ha        1 0S4      0.138000
     36 H3          1.2470    0.6570   -1.5420 ha        1 0S4      0.143000
     37 H4          2.6870   -1.5130    1.5450 hc        1 0S4      0.081250
     38 H5          3.5370   -0.4140    2.3290 hc        1 0S4      0.081250
     39 H6          3.2920    2.1830    1.1030 hc        1 0S4      0.081250
     40 H7          1.7380    2.4250    1.4020 hc        1 0S4      0.081250
     41 H8          1.9430    1.4820    3.5550 hc        1 0S4      0.077000
     42 H9          3.1050    2.5860    3.4180 hc        1 0S4      0.077000
     43 H10         3.4570    1.0250    3.2470 hc        1 0S4      0.077000
     44 H11         2.1200   -0.5220    4.0340 hc        1 0S4      0.077000
     45 H12         1.2650   -1.6370    3.2420 hc        1 0S4      0.077000
     46 H13         0.9230   -0.0780    3.0570 hc        1 0S4      0.077000
     47 H14         0.5210   -1.2880   -0.5370 ha        1 0S4      0.139000
     48 H15        -2.7700   -1.9790   -0.8840 ha        1 0S4      0.085167
     49 H16        -1.3990   -2.0390   -1.7110 ha        1 0S4      0.085167
     50 H17        -2.4790   -0.8910   -2.0220 ha        1 0S4      0.085167
     51 H18        -2.0620    2.0420    1.7090 ha        1 0S4      0.158000
     52 H19         0.2900    1.9180    2.0390 ha        1 0S4      0.137000
     53 H20         6.1080   -2.5550   -8.7850 ho        1 0S4      0.233000
     54 H21         3.8380   -1.3120   -4.8750 h1        1 0S4      0.117500
     55 H22         5.2910   -1.8040   -4.3790 h1        1 0S4      0.117500
     56 H23         5.4730   -2.8180   -6.7690 hn        1 0S4      0.229000
     57 H24        -8.6980   -0.1990    2.4970 hc        1 0S4      0.079111
     58 H25        -8.3300    1.3610    2.3960 hc        1 0S4      0.079111
     59 H26        -8.2920    0.4400    1.0800 hc        1 0S4      0.079111
     60 H27        -5.3760    0.3480    3.9560 hc        1 0S4      0.079111
     61 H28        -6.9290    0.4090    4.3830 hc        1 0S4      0.079111
     62 H29        -6.2300    1.6600    3.6690 hc        1 0S4      0.079111
     63 H30        -5.6770   -1.6030    2.8530 hc        1 0S4      0.079111
     64 H31        -6.3250   -1.6670    1.3870 hc        1 0S4      0.079111
     65 H32        -7.2670   -1.8060    2.6790 hc        1 0S4      0.079111
     66 H33        -3.9390    1.1460    2.0910 h1        1 0S4      0.113500
     67 H34        -4.2460   -0.4160    1.8950 h1        1 0S4      0.113500
     68 H35        -6.0230    0.4410    0.3530 h1        1 0S4      0.090000
     69 H36        -6.3660    2.4210    0.4930 ho        1 0S4      0.206000
     70 H37         6.7220   -0.7900   -2.4690 ha        1 0S4      0.085167
     71 H38         6.7370   -0.8840   -0.8630 ha        1 0S4      0.085167
     72 H39         6.9370    0.5420   -1.5950 ha        1 0S4      0.085167
@<TRIPOS>BOND
     1    1    6 1   
     2    1   34 1   
     3    2    3 1   
     4    3    4 1   
     5    4    5 1   
     6    4   35 1   
     7    5    7 1   
     8    6   36 1   
     9    7    8 1   
    10    7    9 1   
    11    7   10 1   
    12    8   13 1   
    13    9   12 1   
    14    9   37 1   
    15    9   38 1   
    16   10   11 1   
    17   10   39 1   
    18   10   40 1   
    19   11   41 1   
    20   11   42 1   
    21   11   43 1   
    22   12   44 1   
    23   12   45 1   
    24   12   46 1   
    25   13   47 1   
    26   14   15 1   
    27   15   17 1   
    28   16   48 1   
    29   16   49 1   
    30   16   50 1   
    31   17   18 1   
    32   17   51 1   
    33   18   52 1   
    34   19   21 1   
    35   20   23 1   
    36   20   53 1   
    37   21   22 1   
    38   21   54 1   
    39   21   55 1   
    40   22   24 1   
    41   23   56 1   
    42   25   26 1   
    43   25   27 1   
    44   25   28 1   
    45   25   31 1   
    46   26   57 1   
    47   26   58 1   
    48   26   59 1   
    49   27   60 1   
    50   27   61 1   
    51   27   62 1   
    52   28   63 1   
    53   28   64 1   
    54   28   65 1   
    55   29   30 1   
    56   29   31 1   
    57   29   66 1   
    58   29   67 1   
    59   31   32 1   
    60   31   68 1   
    61   32   69 1   
    62   33   70 1   
    63   33   71 1   
    64   33   72 1   
@<TRIPOS>SUBSTRUCTURE
     1 0S4         1 TEMP              0 ****  ****    0 ROOT
