@<TRIPOS>MOLECULE
0S4
   73    74     1     0     0
SMALL
bcc


@<TRIPOS>ATOM
      1 C1         -0.1660    1.1560   -0.4540 ca        1 0S4     -0.146000
      2 C2          1.1310    0.6630   -0.6370 ca        1 0S4      0.030100
      3 C3          1.8550    0.0920    0.4200 ca        1 0S4     -0.088300
      4 C4          1.2280   -0.0030    1.6690 ca        1 0S4     -0.105000
      5 C5         -0.0820    0.4450    1.8710 ca        1 0S4     -0.027300
      6 C6         -0.7630    1.0420    0.7960 ca        1 0S4     -0.094000
      7 C7         -0.7340    0.3830    3.2340 c3        1 0S4      0.044600
      8 C8         -2.2270    0.1830    3.1300 ca        1 0S4     -0.117300
      9 C9         -0.1770   -0.7640    4.1030 c3        1 0S4     -0.073400
     10 C10        -0.3570    1.6920    3.9610 c3        1 0S4     -0.073400
     11 C11        -0.9000    2.9450    3.3260 c3        1 0S4     -0.100600
     12 C12        -0.3110   -2.1370    3.5000 c3        1 0S4     -0.100600
     13 C13        -2.7550   -0.6510    2.1320 ca        1 0S4     -0.110000
     14 C14        -4.1210   -0.8980    2.0260 ca        1 0S4     -0.102300
     15 C15        -4.9910   -0.2910    2.9630 ca        1 0S4      0.140100
     16 C16        -4.6670   -1.7830    0.9750 c3        1 0S4     -0.042800
     17 C17        -4.4800    0.5260    3.9760 ca        1 0S4     -0.196000
     18 C18        -3.1060    0.7520    4.0560 ca        1 0S4     -0.089000
     19 O19         1.7940    0.8430   -1.8620 os        1 0S4     -0.346900
     20 O22         3.4330   -2.4470   -3.3300 oh        1 0S4     -0.344300
     21 C20         1.0860    0.3920   -2.9970 c3        1 0S4      0.073400
     22 C21         1.6870   -0.8810   -3.5730 c         1 0S4      0.527100
     23 N23         3.1550   -1.1400   -3.1360 ny        1 0S4     -0.475300
     24 O24         1.1920   -1.6730   -4.3420 o         1 0S4     -0.343100
     25 C25        -9.7620    0.2810    4.0410 c3        1 0S4     -0.046000
     26 C26       -11.0920   -0.1990    3.4730 c3        1 0S4     -0.089767
     27 C27        -9.7260    1.8000    4.0140 c3        1 0S4     -0.089767
     28 C28        -9.6230   -0.2170    5.4710 c3        1 0S4     -0.089767
     29 C29        -7.2400    0.1050    3.6650 c3        1 0S4      0.087400
     30 O30        -6.3270   -0.5830    2.7960 os        1 0S4     -0.340900
     31 C31        -8.6330   -0.3110    3.1730 c3        1 0S4      0.150100
     32 O32        -8.8260    0.1470    1.8420 oh        1 0S4     -0.594800
     33 C33         3.2520   -0.3700    0.2600 c3        1 0S4     -0.057800
     34 H1         -0.7010    1.6470   -1.2800 ha        1 0S4      0.147000
     35 H2          1.7980   -0.4390    2.5060 ha        1 0S4      0.157000
     36 H3         -1.7830    1.4360    0.9500 ha        1 0S4      0.171000
     37 H4          0.9000   -0.5560    4.3400 hc        1 0S4      0.049700
     38 H5         -0.7340   -0.7410    5.0800 hc        1 0S4      0.049700
     39 H6         -0.7070    1.6250    5.0250 hc        1 0S4      0.049700
     40 H7          0.7650    1.7530    3.9920 hc        1 0S4      0.049700
     41 H8         -0.4640    3.0980    2.3090 hc        1 0S4      0.040533
     42 H9         -0.6390    3.8300    3.9560 hc        1 0S4      0.040533
     43 H10        -2.0110    2.8970    3.2260 hc        1 0S4      0.040533
     44 H11         0.1890   -2.1910    2.5030 hc        1 0S4      0.040533
     45 H12         0.1610   -2.8930    4.1740 hc        1 0S4      0.040533
     46 H13        -1.3870   -2.4080    3.3670 hc        1 0S4      0.040533
     47 H14        -2.0720   -1.1360    1.4150 ha        1 0S4      0.128000
     48 H15        -5.5060   -1.2720    0.4380 hc        1 0S4      0.047367
     49 H16        -3.8830   -2.0680    0.2320 hc        1 0S4      0.047367
     50 H17        -5.0790   -2.7160    1.4380 hc        1 0S4      0.047367
     51 H18        -5.1460    0.9910    4.7180 ha        1 0S4      0.147000
     52 H19        -2.7300    1.3890    4.8710 ha        1 0S4      0.140000
     53 H20         4.3700   -2.6180   -3.0830 ho        1 0S4      0.465000
     54 H21        -0.0020    0.1800   -2.7950 h1        1 0S4      0.134200
     55 H22         1.1950    1.1980   -3.7800 h1        1 0S4      0.134200
     56 H23         3.2380   -0.8790   -2.1300 hn        1 0S4      0.472300
     57 H24       -11.1900    0.1220    2.4080 hc        1 0S4      0.040922
     58 H25       -11.1530   -1.3130    3.5190 hc        1 0S4      0.040922
     59 H26       -11.9380    0.2310    4.0600 hc        1 0S4      0.040922
     60 H27        -9.7170    2.1610    2.9570 hc        1 0S4      0.040922
     61 H28       -10.6250    2.2130    4.5300 hc        1 0S4      0.040922
     62 H29        -8.8150    2.1840    4.5340 hc        1 0S4      0.040922
     63 H30        -9.5070   -1.3270    5.4920 hc        1 0S4      0.040922
     64 H31        -8.7410    0.2470    5.9740 hc        1 0S4      0.040922
     65 H32       -10.5370    0.0550    6.0530 hc        1 0S4      0.040922
     66 H33        -7.0690   -0.2250    4.7210 h1        1 0S4      0.057200
     67 H34        -7.0940    1.2110    3.5640 h1        1 0S4      0.057200
     68 H35        -8.7040   -1.4360    3.1940 h1        1 0S4      0.048700
     69 H36        -8.1300   -0.2600    1.3100 ho        1 0S4      0.410000
     70 H37         3.8000   -0.3180    1.2360 hc        1 0S4      0.046033
     71 H38         3.2740   -1.4370   -0.0820 hc        1 0S4      0.046033
     72 H39         3.8030    0.2710   -0.4730 hc        1 0S4      0.046033
     73 H232        3.7760   -0.5360   -3.7000 hn        1 0S4      0.472300
@<TRIPOS>BOND
     1    1    2 ar  
     2    1    6 ar  
     3    1   34 1   
     4    2    3 ar  
     5    2   19 1   
     6    3    4 ar  
     7    3   33 1   
     8    4    5 ar  
     9    4   35 1   
    10    5    6 ar  
    11    5    7 1   
    12    6   36 1   
    13    7    8 1   
    14    7    9 1   
    15    7   10 1   
    16    8   13 ar  
    17    8   18 ar  
    18    9   12 1   
    19    9   37 1   
    20    9   38 1   
    21   10   11 1   
    22   10   39 1   
    23   10   40 1   
    24   11   41 1   
    25   11   42 1   
    26   11   43 1   
    27   12   44 1   
    28   12   45 1   
    29   12   46 1   
    30   13   14 ar  
    31   13   47 1   
    32   14   15 ar  
    33   14   16 1   
    34   15   17 ar  
    35   15   30 1   
    36   16   48 1   
    37   16   49 1   
    38   16   50 1   
    39   17   18 ar  
    40   17   51 1   
    41   18   52 1   
    42   19   21 1   
    43   20   23 1   
    44   20   53 1   
    45   21   22 1   
    46   21   54 1   
    47   21   55 1   
    48   22   23 1   
    49   22   24 2   
    50   23   56 1   
    51   23   73 1   
    52   25   26 1   
    53   25   27 1   
    54   25   28 1   
    55   25   31 1   
    56   26   57 1   
    57   26   58 1   
    58   26   59 1   
    59   27   60 1   
    60   27   61 1   
    61   27   62 1   
    62   28   63 1   
    63   28   64 1   
    64   28   65 1   
    65   29   30 1   
    66   29   31 1   
    67   29   66 1   
    68   29   67 1   
    69   31   32 1   
    70   31   68 1   
    71   32   69 1   
    72   33   70 1   
    73   33   71 1   
    74   33   72 1   
@<TRIPOS>SUBSTRUCTURE
     1 0S4         1 TEMP              0 ****  ****    0 ROOT
