@<TRIPOS>MOLECULE
0S4
   73    74     1     0     0
SMALL
bcc


@<TRIPOS>ATOM
      1 C1         -0.1720    1.1600   -0.4630 ca        1 0S4     -0.146000
      2 C2          1.1210    0.6620   -0.6550 ca        1 0S4      0.030100
      3 C3          1.8470    0.0820    0.3950 ca        1 0S4     -0.088300
      4 C4          1.2260   -0.0170    1.6470 ca        1 0S4     -0.105000
      5 C5         -0.0810    0.4360    1.8580 ca        1 0S4     -0.027300
      6 C6         -0.7640    1.0420    0.7900 ca        1 0S4     -0.094000
      7 C7         -0.7260    0.3690    3.2240 c3        1 0S4      0.044600
      8 C8         -2.2200    0.1770    3.1260 ca        1 0S4     -0.117300
      9 C9         -0.1700   -0.7840    4.0840 c3        1 0S4     -0.073400
     10 C10        -0.3400    1.6730    3.9560 c3        1 0S4     -0.073400
     11 C11        -0.8810    2.9310    3.3300 c3        1 0S4     -0.100600
     12 C12        -0.3120   -2.1530    3.4750 c3        1 0S4     -0.100600
     13 C13        -2.7560   -0.6500    2.1260 ca        1 0S4     -0.110000
     14 C14        -4.1240   -0.8910    2.0260 ca        1 0S4     -0.102300
     15 C15        -4.9870   -0.2850    2.9710 ca        1 0S4      0.140100
     16 C16        -4.6790   -1.7680    0.9720 c3        1 0S4     -0.042800
     17 C17        -4.4670    0.5240    3.9850 ca        1 0S4     -0.196000
     18 C18        -3.0920    0.7440    4.0590 ca        1 0S4     -0.089000
     19 O19         1.7790    0.8450   -1.8830 os        1 0S4     -0.346900
     20 O22         3.3910   -2.4470   -3.3750 oh        1 0S4     -0.344300
     21 C20         1.0620    0.4040   -3.0160 c3        1 0S4      0.073400
     22 C21         1.6540   -0.8690   -3.6020 c         1 0S4      0.527100
     23 N23         3.1220   -1.1400   -3.1730 n4        1 0S4     -0.475300
     24 O24         1.1510   -1.6540   -4.3730 o         1 0S4     -0.343100
     25 C25        -9.7490    0.2920    4.0810 c3        1 0S4     -0.046000
     26 C26       -11.0850   -0.1760    3.5160 c3        1 0S4     -0.089767
     27 C27        -9.7070    1.8120    4.0720 c3        1 0S4     -0.089767
     28 C28        -9.6050   -0.2230    5.5050 c3        1 0S4     -0.089767
     29 C29        -7.2310    0.1140    3.6870 c3        1 0S4      0.087400
     30 O30        -6.3250   -0.5710    2.8080 os        1 0S4     -0.340900
     31 C31        -8.6280   -0.2940    3.2010 c3        1 0S4      0.150100
     32 O32        -8.8280    0.1770    1.8750 oh        1 0S4     -0.594800
     33 C33         3.2420   -0.3850    0.2260 c3        1 0S4     -0.057800
     34 H1         -0.7100    1.6570   -1.2840 ha        1 0S4      0.147000
     35 H2          1.7990   -0.4600    2.4790 ha        1 0S4      0.157000
     36 H3         -1.7820    1.4390    0.9510 ha        1 0S4      0.171000
     37 H4          0.9090   -0.5820    4.3160 hc        1 0S4      0.049700
     38 H5         -0.7210   -0.7640    5.0640 hc        1 0S4      0.049700
     39 H6         -0.6850    1.6010    5.0210 hc        1 0S4      0.049700
     40 H7          0.7820    1.7300    3.9820 hc        1 0S4      0.049700
     41 H8         -0.4500    3.0880    2.3120 hc        1 0S4      0.040533
     42 H9         -0.6140    3.8130    3.9630 hc        1 0S4      0.040533
     43 H10        -1.9930    2.8880    3.2350 hc        1 0S4      0.040533
     44 H11         0.1830   -2.2050    2.4740 hc        1 0S4      0.040533
     45 H12         0.1610   -2.9150    4.1420 hc        1 0S4      0.040533
     46 H13        -1.3900   -2.4200    3.3460 hc        1 0S4      0.040533
     47 H14        -2.0790   -1.1340    1.4030 ha        1 0S4      0.128000
     48 H15        -5.5160   -1.2490    0.4410 hc        1 0S4      0.047367
     49 H16        -3.8990   -2.0550    0.2260 hc        1 0S4      0.047367
     50 H17        -5.0950   -2.7000    1.4320 hc        1 0S4      0.047367
     51 H18        -5.1270    0.9870    4.7330 ha        1 0S4      0.147000
     52 H19        -2.7100    1.3750    4.8760 ha        1 0S4      0.140000
     53 H20         4.3280   -2.6240   -3.1320 ho        1 0S4      0.465000
     54 H21        -0.0250    0.1970   -2.8100 h1        1 0S4      0.134200
     55 H22         1.1730    1.2130   -3.7960 h1        1 0S4      0.134200
     56 H23         3.2110   -0.8850   -2.1660 hn        1 0S4      0.472300
     57 H24       -11.1870    0.1580    2.4550 hc        1 0S4      0.041033
     58 H25       -11.1500   -1.2900    3.5490 hc        1 0S4      0.041033
     59 H26       -11.9260    0.2500    4.1130 hc        1 0S4      0.041033
     60 H27        -9.7020    2.1840    3.0180 hc        1 0S4      0.041033
     61 H28       -10.6030    2.2220    4.5970 hc        1 0S4      0.041033
     62 H29        -8.7930    2.1860    4.5910 hc        1 0S4      0.041033
     63 H30        -9.4940   -1.3330    5.5130 hc        1 0S4      0.041033
     64 H31        -8.7180    0.2320    6.0080 hc        1 0S4      0.041033
     65 H32       -10.5140    0.0470    6.0960 hc        1 0S4      0.041033
     66 H33        -7.0540   -0.2250    4.7400 h1        1 0S4      0.057200
     67 H34        -7.0820    1.2200    3.5940 h1        1 0S4      0.057200
     68 H35        -8.7010   -1.4190    3.2110 h1        1 0S4      0.048700
     69 H36        -8.1370   -0.2270    1.3350 ho        1 0S4      0.410000
     70 H37         3.2580   -1.4500   -0.1200 hc        1 0S4      0.046033
     71 H38         3.7920    0.2570   -0.5070 hc        1 0S4      0.046033
     72 H39         3.7950   -0.3380    1.1990 hc        1 0S4      0.046033
     73 H232        3.7440   -0.5360   -3.7360 hn        1 0S4      0.472300
@<TRIPOS>BOND
     1    1    2 ar  
     2    1    6 ar  
     3    1   34 1   
     4    2    3 ar  
     5    2   19 1   
     6    3    4 ar  
     7    3   33 1   
     8    4    5 ar  
     9    4   35 1   
    10    5    6 ar  
    11    5    7 1   
    12    6   36 1   
    13    7    8 1   
    14    7    9 1   
    15    7   10 1   
    16    8   13 ar  
    17    8   18 ar  
    18    9   12 1   
    19    9   37 1   
    20    9   38 1   
    21   10   11 1   
    22   10   39 1   
    23   10   40 1   
    24   11   41 1   
    25   11   42 1   
    26   11   43 1   
    27   12   44 1   
    28   12   45 1   
    29   12   46 1   
    30   13   14 ar  
    31   13   47 1   
    32   14   15 ar  
    33   14   16 1   
    34   15   17 ar  
    35   15   30 1   
    36   16   48 1   
    37   16   49 1   
    38   16   50 1   
    39   17   18 ar  
    40   17   51 1   
    41   18   52 1   
    42   19   21 1   
    43   20   23 1   
    44   20   53 1   
    45   21   22 1   
    46   21   54 1   
    47   21   55 1   
    48   22   23 1   
    49   22   24 2   
    50   23   56 1   
    51   23   73 1   
    52   25   26 1   
    53   25   27 1   
    54   25   28 1   
    55   25   31 1   
    56   26   57 1   
    57   26   58 1   
    58   26   59 1   
    59   27   60 1   
    60   27   61 1   
    61   27   62 1   
    62   28   63 1   
    63   28   64 1   
    64   28   65 1   
    65   29   30 1   
    66   29   31 1   
    67   29   66 1   
    68   29   67 1   
    69   31   32 1   
    70   31   68 1   
    71   32   69 1   
    72   33   70 1   
    73   33   71 1   
    74   33   72 1   
@<TRIPOS>SUBSTRUCTURE
     1 0S4         1 TEMP              0 ****  ****    0 ROOT
