@<TRIPOS>MOLECULE
0S4
   72    73     1     0     0
SMALL
bcc


@<TRIPOS>ATOM
      1 C1         -2.9760   -0.7880    0.2900 ca        1 0S4     -0.189000
      2 C2         -4.1380   -0.2030   -0.2220 ca        1 0S4      0.109100
      3 C3         -4.1810    1.1730   -0.5240 ca        1 0S4     -0.094300
      4 C4         -3.0310    1.9360   -0.3090 ca        1 0S4     -0.104000
      5 C5         -1.8520    1.3680    0.1890 ca        1 0S4     -0.083300
      6 C6         -1.8480    0.0010    0.4970 ca        1 0S4     -0.099000
      7 C7         -0.6320    2.2130    0.4720 c3        1 0S4      0.053600
      8 C8          0.6510    1.4460    0.2590 ca        1 0S4     -0.099300
      9 C9         -0.5600    3.4670   -0.4260 c3        1 0S4     -0.069900
     10 C10        -0.7770    2.7340    1.9180 c3        1 0S4     -0.069900
     11 C11        -0.7440    1.6640    2.9770 c3        1 0S4     -0.098600
     12 C12        -0.5510    3.1810   -1.9040 c3        1 0S4     -0.098600
     13 C13         0.7440    0.5060   -0.7800 ca        1 0S4     -0.102000
     14 C14         1.9220   -0.1900   -1.0390 ca        1 0S4     -0.097300
     15 C15         3.0540    0.0750   -0.2340 ca        1 0S4      0.122100
     16 C16         2.0060   -1.1820   -2.1340 c3        1 0S4     -0.044800
     17 C17         2.9860    1.0210    0.7920 ca        1 0S4     -0.205000
     18 C18         1.7900    1.7010    1.0270 ca        1 0S4     -0.099000
     19 O19        -5.2950   -0.9150   -0.5050 os        1 0S4     -0.341900
     20 O22        -9.1020   -1.9160   -0.1850 oh        1 0S4     -0.434100
     21 C20        -5.4320   -2.1570    0.1880 c3        1 0S4      0.051400
     22 C21        -6.8920   -2.5830    0.1070 c         1 0S4      0.592100
     23 N23        -7.8900   -1.5770    0.2600 n         1 0S4     -0.342400
     24 O24        -7.1900   -3.7870    0.0720 o         1 0S4     -0.556100
     25 C25         7.8040   -0.9870    0.1490 c3        1 0S4     -0.086000
     26 C26         8.7740   -2.1010   -0.2260 c3        1 0S4     -0.088767
     27 C27         7.9430   -0.6820    1.6310 c3        1 0S4     -0.088767
     28 C28         8.1480    0.2520   -0.6630 c3        1 0S4     -0.088767
     29 C29         5.3090   -0.4730    0.3110 c3        1 0S4      0.097400
     30 O30         4.1850   -0.6500   -0.5580 os        1 0S4     -0.319900
     31 C31         6.3740   -1.4580   -0.1920 c3        1 0S4      0.142100
     32 O32         6.1140   -2.7570    0.3060 oh        1 0S4     -0.582800
     33 C33        -5.4110    1.7870   -1.0720 c3        1 0S4     -0.042800
     34 H1         -2.9410   -1.8610    0.5260 ha        1 0S4      0.139000
     35 H2         -3.0750    3.0130   -0.5390 ha        1 0S4      0.140000
     36 H3         -0.9370   -0.4630    0.9110 ha        1 0S4      0.148000
     37 H4         -1.4180    4.1450   -0.1770 hc        1 0S4      0.041450
     38 H5          0.3800    4.0200   -0.1550 hc        1 0S4      0.041450
     39 H6          0.0300    3.4870    2.1160 hc        1 0S4      0.041450
     40 H7         -1.7570    3.2810    1.9830 hc        1 0S4      0.041450
     41 H8         -1.6050    0.9610    2.8570 hc        1 0S4      0.038867
     42 H9          0.2010    1.0690    2.9180 hc        1 0S4      0.038867
     43 H10        -0.8070    2.1300    3.9900 hc        1 0S4      0.038867
     44 H11        -1.4500    2.5900   -2.2050 hc        1 0S4      0.038867
     45 H12        -0.5500    4.1410   -2.4760 hc        1 0S4      0.038867
     46 H13         0.3600    2.6000   -2.1890 hc        1 0S4      0.038867
     47 H14        -0.1390    0.3130   -1.4130 ha        1 0S4      0.144000
     48 H15         2.7010   -0.8120   -2.9300 hc        1 0S4      0.048033
     49 H16         2.4170   -2.1480   -1.7460 hc        1 0S4      0.048033
     50 H17         1.0050   -1.3710   -2.5910 hc        1 0S4      0.048033
     51 H18         3.8610    1.2440    1.4180 ha        1 0S4      0.134000
     52 H19         1.7670    2.4490    1.8340 ha        1 0S4      0.134000
     53 H20        -9.4550   -2.5580    0.4620 ho        1 0S4      0.434000
     54 H21        -4.7980   -2.9340   -0.3160 h1        1 0S4      0.078700
     55 H22        -5.1400   -2.0530    1.2660 h1        1 0S4      0.078700
     56 H23        -7.6260   -0.7030   -0.1870 hn        1 0S4      0.314500
     57 H24         8.5180   -3.0390    0.3240 hc        1 0S4      0.038922
     58 H25         8.7170   -2.3080   -1.3210 hc        1 0S4      0.038922
     59 H26         9.8190   -1.8050    0.0310 hc        1 0S4      0.038922
     60 H27         7.7170   -1.5890    2.2420 hc        1 0S4      0.038922
     61 H28         8.9880   -0.3590    1.8570 hc        1 0S4      0.038922
     62 H29         7.2480    0.1380    1.9350 hc        1 0S4      0.038922
     63 H30         9.2350    0.4870   -0.5510 hc        1 0S4      0.038922
     64 H31         7.9330    0.0810   -1.7450 hc        1 0S4      0.038922
     65 H32         7.5640    1.1370   -0.3180 hc        1 0S4      0.038922
     66 H33         5.6660    0.5870    0.2390 h1        1 0S4      0.044700
     67 H34         5.0160   -0.7080    1.3670 h1        1 0S4      0.044700
     68 H35         6.2760   -1.5780   -1.3100 h1        1 0S4      0.097700
     69 H36         6.1990   -2.7260    1.2670 ho        1 0S4      0.395000
     70 H37        -6.3160    1.3630   -0.5670 hc        1 0S4      0.046033
     71 H38        -5.4070    2.8950   -0.9320 hc        1 0S4      0.046033
     72 H39        -5.4930    1.5650   -2.1660 hc        1 0S4      0.046033
@<TRIPOS>BOND
     1    1    2 ar  
     2    1    6 ar  
     3    1   34 1   
     4    2    3 ar  
     5    2   19 1   
     6    3    4 ar  
     7    3   33 1   
     8    4    5 ar  
     9    4   35 1   
    10    5    6 ar  
    11    5    7 1   
    12    6   36 1   
    13    7    8 1   
    14    7    9 1   
    15    7   10 1   
    16    8   13 ar  
    17    8   18 ar  
    18    9   12 1   
    19    9   37 1   
    20    9   38 1   
    21   10   11 1   
    22   10   39 1   
    23   10   40 1   
    24   11   41 1   
    25   11   42 1   
    26   11   43 1   
    27   12   44 1   
    28   12   45 1   
    29   12   46 1   
    30   13   14 ar  
    31   13   47 1   
    32   14   15 ar  
    33   14   16 1   
    34   15   17 ar  
    35   15   30 1   
    36   16   48 1   
    37   16   49 1   
    38   16   50 1   
    39   17   18 ar  
    40   17   51 1   
    41   18   52 1   
    42   19   21 1   
    43   20   23 1   
    44   20   53 1   
    45   21   22 1   
    46   21   54 1   
    47   21   55 1   
    48   22   23 1   
    49   22   24 2   
    50   23   56 1   
    51   25   26 1   
    52   25   27 1   
    53   25   28 1   
    54   25   31 1   
    55   26   57 1   
    56   26   58 1   
    57   26   59 1   
    58   27   60 1   
    59   27   61 1   
    60   27   62 1   
    61   28   63 1   
    62   28   64 1   
    63   28   65 1   
    64   29   30 1   
    65   29   31 1   
    66   29   66 1   
    67   29   67 1   
    68   31   32 1   
    69   31   68 1   
    70   32   69 1   
    71   33   70 1   
    72   33   71 1   
    73   33   72 1   
@<TRIPOS>SUBSTRUCTURE
     1 0S4         1 TEMP              0 ****  ****    0 ROOT
