@<TRIPOS>MOLECULE
0S4
   73    74     1     0     0
SMALL
bcc


@<TRIPOS>ATOM
      1 C1         -0.1690    1.1680   -0.4450 ca        1 0S4     -0.146000
      2 C2          1.1270    0.6750   -0.6350 ca        1 0S4      0.030100
      3 C3          1.8520    0.0960    0.4170 ca        1 0S4     -0.088300
      4 C4          1.2270   -0.0080    1.6670 ca        1 0S4     -0.105000
      5 C5         -0.0820    0.4410    1.8750 ca        1 0S4     -0.027300
      6 C6         -0.7640    1.0460    0.8050 ca        1 0S4     -0.094000
      7 C7         -0.7320    0.3690    3.2380 c3        1 0S4      0.044600
      8 C8         -2.2240    0.1720    3.1350 ca        1 0S4     -0.117300
      9 C9         -0.1740   -0.7850    4.0980 c3        1 0S4     -0.073400
     10 C10        -0.3520    1.6720    3.9740 c3        1 0S4     -0.073400
     11 C11        -0.8940    2.9300    3.3490 c3        1 0S4     -0.100600
     12 C12        -0.3100   -2.1530    3.4850 c3        1 0S4     -0.100600
     13 C13        -2.7550   -0.6560    2.1320 ca        1 0S4     -0.110000
     14 C14        -4.1210   -0.9000    2.0260 ca        1 0S4     -0.102300
     15 C15        -4.9890   -0.2980    2.9680 ca        1 0S4      0.139100
     16 C16        -4.6690   -1.7780    0.9690 c3        1 0S4     -0.042800
     17 C17        -4.4760    0.5110    3.9860 ca        1 0S4     -0.196000
     18 C18        -3.1020    0.7350    4.0660 ca        1 0S4     -0.089000
     19 O19         1.7880    0.8630   -1.8600 os        1 0S4     -0.346900
     20 O22         3.4210   -2.4170   -3.3550 oh        1 0S4     -0.344300
     21 C20         1.0770    0.4210   -2.9960 c3        1 0S4      0.073400
     22 C21         1.6760   -0.8480   -3.5830 c         1 0S4      0.527100
     23 N23         3.1450   -1.1110   -3.1510 n4        1 0S4     -0.475300
     24 O24         1.1790   -1.6340   -4.3560 o         1 0S4     -0.343100
     25 C25        -9.7590    0.2880    4.0410 c3        1 0S4     -0.046000
     26 C26       -11.0910   -0.1840    3.4680 c3        1 0S4     -0.089767
     27 C27        -9.7150    1.8060    4.0200 c3        1 0S4     -0.089767
     28 C28        -9.6270   -0.2170    5.4700 c3        1 0S4     -0.089767
     29 C29        -7.2380    0.1000    3.6710 c3        1 0S4      0.087400
     30 O30        -6.3260   -0.5890    2.8000 os        1 0S4     -0.340900
     31 C31        -8.6310   -0.3070    3.1740 c3        1 0S4      0.150100
     32 O32        -8.8190    0.1570    1.8440 oh        1 0S4     -0.594800
     33 C33         3.2480   -0.3660    0.2510 c3        1 0S4     -0.057800
     34 H1         -0.7050    1.6660   -1.2670 ha        1 0S4      0.147000
     35 H2          1.7990   -0.4500    2.4990 ha        1 0S4      0.157000
     36 H3         -1.7840    1.4400    0.9640 ha        1 0S4      0.171000
     37 H4         -0.7280   -0.7690    5.0760 hc        1 0S4      0.049700
     38 H5          0.9030   -0.5790    4.3340 hc        1 0S4      0.049700
     39 H6         -0.7010    1.5970    5.0380 hc        1 0S4      0.049700
     40 H7          0.7700    1.7320    4.0040 hc        1 0S4      0.049700
     41 H8         -2.0060    2.8840    3.2500 hc        1 0S4      0.040533
     42 H9         -0.4590    3.0900    2.3320 hc        1 0S4      0.040533
     43 H10        -0.6320    3.8110    3.9850 hc        1 0S4      0.040533
     44 H11         0.1630   -2.9150    4.1520 hc        1 0S4      0.040533
     45 H12         0.1870   -2.2000    2.4860 hc        1 0S4      0.040533
     46 H13        -1.3870   -2.4230    3.3530 hc        1 0S4      0.040533
     47 H14        -2.0740   -1.1360    1.4110 ha        1 0S4      0.128000
     48 H15        -5.5120   -1.2650    0.4420 hc        1 0S4      0.047367
     49 H16        -3.8880   -2.0540    0.2210 hc        1 0S4      0.047367
     50 H17        -5.0750   -2.7160    1.4270 hc        1 0S4      0.047367
     51 H18        -5.1400    0.9710    4.7320 ha        1 0S4      0.147000
     52 H19        -2.7240    1.3660    4.8850 ha        1 0S4      0.140000
     53 H20         4.3590   -2.5900   -3.1110 ho        1 0S4      0.465000
     54 H21         1.1850    1.2330   -3.7740 h1        1 0S4      0.134200
     55 H22        -0.0110    0.2090   -2.7930 h1        1 0S4      0.134200
     56 H23         3.2300   -0.8580   -2.1430 hn        1 0S4      0.472300
     57 H24       -11.9360    0.2480    4.0540 hc        1 0S4      0.040922
     58 H25       -11.1580   -1.2980    3.5090 hc        1 0S4      0.040922
     59 H26       -11.1840    0.1420    2.4040 hc        1 0S4      0.040922
     60 H27        -9.7010    2.1710    2.9640 hc        1 0S4      0.040922
     61 H28        -8.8050    2.1840    4.5440 hc        1 0S4      0.040922
     62 H29       -10.6150    2.2220    4.5340 hc        1 0S4      0.040922
     63 H30        -8.7430    0.2400    5.9760 hc        1 0S4      0.040922
     64 H31        -9.5180   -1.3270    5.4860 hc        1 0S4      0.040922
     65 H32       -10.5410    0.0580    6.0510 hc        1 0S4      0.040922
     66 H33        -7.0700   -0.2350    4.7250 h1        1 0S4      0.057200
     67 H34        -7.0870    1.2060    3.5750 h1        1 0S4      0.057200
     68 H35        -8.7070   -1.4320    3.1900 h1        1 0S4      0.048700
     69 H36        -8.1240   -0.2520    1.3120 ho        1 0S4      0.410000
     70 H37         3.7990    0.2800   -0.4780 hc        1 0S4      0.046033
     71 H38         3.7980   -0.3220    1.2260 hc        1 0S4      0.046033
     72 H39         3.2690   -1.4300   -0.0990 hc        1 0S4      0.046033
     73 H232        3.7640   -0.5030   -3.7110 hn        1 0S4      0.472300
@<TRIPOS>BOND
     1    1    2 ar  
     2    1    6 ar  
     3    1   34 1   
     4    2    3 ar  
     5    2   19 1   
     6    3    4 ar  
     7    3   33 1   
     8    4    5 ar  
     9    4   35 1   
    10    5    6 ar  
    11    5    7 1   
    12    6   36 1   
    13    7    8 1   
    14    7    9 1   
    15    7   10 1   
    16    8   13 ar  
    17    8   18 ar  
    18    9   12 1   
    19    9   37 1   
    20    9   38 1   
    21   10   11 1   
    22   10   39 1   
    23   10   40 1   
    24   11   41 1   
    25   11   42 1   
    26   11   43 1   
    27   12   44 1   
    28   12   45 1   
    29   12   46 1   
    30   13   14 ar  
    31   13   47 1   
    32   14   15 ar  
    33   14   16 1   
    34   15   17 ar  
    35   15   30 1   
    36   16   48 1   
    37   16   49 1   
    38   16   50 1   
    39   17   18 ar  
    40   17   51 1   
    41   18   52 1   
    42   19   21 1   
    43   20   23 1   
    44   20   53 1   
    45   21   22 1   
    46   21   54 1   
    47   21   55 1   
    48   22   23 1   
    49   22   24 2   
    50   23   56 1   
    51   23   73 1   
    52   25   26 1   
    53   25   27 1   
    54   25   28 1   
    55   25   31 1   
    56   26   57 1   
    57   26   58 1   
    58   26   59 1   
    59   27   60 1   
    60   27   61 1   
    61   27   62 1   
    62   28   63 1   
    63   28   64 1   
    64   28   65 1   
    65   29   30 1   
    66   29   31 1   
    67   29   66 1   
    68   29   67 1   
    69   31   32 1   
    70   31   68 1   
    71   32   69 1   
    72   33   70 1   
    73   33   71 1   
    74   33   72 1   
@<TRIPOS>SUBSTRUCTURE
     1 0S4         1 TEMP              0 ****  ****    0 ROOT
