@<TRIPOS>MOLECULE
0S5
   61    59     1     0     0
SMALL
bcc


@<TRIPOS>ATOM
      1 C26       -67.0630  -72.2960 -193.0130 c3        1 0S5     -0.162000
      2 C25       -67.4530  -70.8530 -195.1250 c1        1 0S5      0.235000
      3 C27       -67.3720  -73.4920 -193.8460 c2        1 0S5     -0.442000
      4 C24       -67.4270  -71.9680 -195.8280 c2        1 0S5     -0.512000
      5 C28       -67.7210  -74.6260 -193.2510 c1        1 0S5      0.248000
      6 C23       -67.3080  -73.3620 -195.3370 c3        1 0S5      0.047000
      7 C29       137.7090  149.4400  390.6350 c2        1 0S5      0.331000
      8 C21       -66.0040  -74.0000 -195.8350 c2        1 0S5      0.324000
      9 C18       -65.7960  -76.5400 -199.4580 cv        1 0S5      0.284000
     10 C11       -64.2030  -77.0410 -196.6030 c2        1 0S5      0.341000
     11 C8        140.4980  148.8040  392.8880 c3        1 0S5     -0.176500
     12 C9        138.9990  148.7240  392.5890 c3        1 0S5      0.021000
     13 C15       -61.8400  -76.4690 -199.2140 c3        1 0S5     -0.229000
     14 C16       -63.2050  -76.2190 -199.6950 c2        1 0S5      0.028000
     15 C7        140.6420  149.4590  394.2540 c3        1 0S5     -0.161000
     16 C10       138.2500  149.4490  393.7050 c3        1 0S5     -0.176500
     17 C14       -66.1270  -77.4090 -198.2410 cy        1 0S5     -0.142000
     18 C17       -64.3380  -76.6650 -199.1490 cv        1 0S5     -0.225000
     19 C6        139.3000  150.0830  394.6090 c3        1 0S5     -0.161000
     20 C5        -64.4220  -77.5690 -194.2300 c2        1 0S5     -0.042000
     21 C3        135.5000  148.3370  391.2190 c2        1 0S5      0.197000
     22 C4        -64.6550  -77.9030 -195.5050 c2        1 0S5     -0.257000
     23 N13       -64.6270  -77.5160 -197.9680 n4        1 0S5     -0.041000
     24 N20       -64.8350  -73.3150 -195.7180 n         1 0S5     -0.396000
     25 O30       138.8510  149.4330  391.3130 os        1 0S5     -0.162000
     26 O22       -66.0130  -75.1570 -196.3290 o         1 0S5     -0.483000
     27 O19       -66.4410  -75.9840 -200.3160 o         1 0S5     -0.171000
     28 O12       -63.4980  -76.0400 -196.5390 o         1 0S5     -0.221000
     29 O1        -65.3120  -80.3250 -197.9070 oh        1 0S5     -0.450000
     30 H1        -66.1040  -71.8270 -193.3490 hc        1 0S5      0.108000
     31 H2        -66.9540  -72.5660 -191.9320 hc        1 0S5      0.108000
     32 H3        -67.8980  -71.5460 -193.0860 hc        1 0S5      0.108000
     33 H4        -67.5420  -71.8790 -196.9310 ha        1 0S5      0.202000
     34 H5        -68.1500  -73.9670 -195.7920 hc        1 0S5      0.138000
     35 H6        137.7830  150.0490  389.6920 h5        1 0S5      0.257000
     36 H7        141.4490  150.2330  394.2380 hc        1 0S5      0.108750
     37 H8        140.9420  147.7770  392.8770 hc        1 0S5      0.110250
     38 H9        141.0180  149.4070  392.0980 hc        1 0S5      0.110250
     39 H10       138.6490  147.6710  392.4330 h1        1 0S5      0.115000
     40 H11       -66.5780  -78.4100 -198.4590 hx        1 0S5      0.191000
     41 H12       -61.2690  -75.5040 -199.1750 hc        1 0S5      0.120000
     42 H13       -63.2970  -75.6000 -200.6130 ha        1 0S5      0.185000
     43 H14       139.0510  149.9110  395.6860 hc        1 0S5      0.108750
     44 H15       140.9300  148.6920  395.0190 hc        1 0S5      0.108750
     45 H16       137.5610  150.2270  393.2930 hc        1 0S5      0.110250
     46 H17       137.6360  148.7100  394.2810 hc        1 0S5      0.110250
     47 H18       -66.6790  -76.8760 -197.4220 hx        1 0S5      0.191000
     48 H19       -64.2920  -78.4800 -198.0940 hn        1 0S5      0.270000
     49 H20       -64.7620  -78.2070 -193.3980 ha        1 0S5      0.153500
     50 H21       139.3300  151.1900  394.4460 hc        1 0S5      0.108750
     51 H22       -63.8890  -76.6500 -193.9420 ha        1 0S5      0.153500
     52 H23       -65.2020  -78.8220 -195.7780 ha        1 0S5      0.161000
     53 H24       134.7910  148.9560  391.8170 h4        1 0S5      0.183500
     54 H25       135.1740  147.3200  390.9000 h4        1 0S5      0.183500
     55 H26       -63.9850  -73.7240 -196.0260 hn        1 0S5      0.240500
     56 H27       -65.3380  -80.9330 -197.1610 ho        1 0S5      0.228000
     57 H28       -61.8180  -76.9260 -198.1940 hc        1 0S5      0.120000
     58 H29       -61.3080  -77.1510 -199.9290 hc        1 0S5      0.120000
     59 H202      -64.8230  -72.3940 -195.3550 hn        1 0S5      0.240500
     60 H211      -65.4450  -80.8930 -198.6740 ho        1 0S5      0.228000
     61 N2        136.6430  148.7560  390.8970 n2        1 0S5     -0.326000
@<TRIPOS>BOND
     1    1    3 1   
     2    1   30 1   
     3    1   31 1   
     4    1   32 1   
     5    2    4 1   
     6    3    5 1   
     7    3    6 1   
     8    4    6 1   
     9    4   33 1   
    10    6    8 1   
    11    6   34 1   
    12    7   25 1   
    13    7   35 1   
    14    7   61 1   
    15    8   24 1   
    16    8   26 1   
    17    9   17 1   
    18    9   18 1   
    19    9   27 1   
    20   10   22 1   
    21   10   23 1   
    22   10   28 1   
    23   11   12 1   
    24   11   15 1   
    25   11   37 1   
    26   11   38 1   
    27   12   16 1   
    28   12   25 1   
    29   12   39 1   
    30   13   14 1   
    31   13   41 1   
    32   13   57 1   
    33   13   58 1   
    34   14   18 1   
    35   14   42 1   
    36   15   19 1   
    37   15   36 1   
    38   15   44 1   
    39   16   19 1   
    40   16   45 1   
    41   16   46 1   
    42   17   23 1   
    43   17   40 1   
    44   17   47 1   
    45   18   23 1   
    46   19   43 1   
    47   19   50 1   
    48   20   22 1   
    49   20   49 1   
    50   20   51 1   
    51   21   53 1   
    52   21   54 1   
    53   21   61 1   
    54   22   52 1   
    55   23   48 1   
    56   24   55 1   
    57   24   59 1   
    58   29   56 1   
    59   29   60 1   
@<TRIPOS>SUBSTRUCTURE
     1 0S5         1 TEMP              0 ****  ****    0 ROOT
