@<TRIPOS>MOLECULE
0S5
   61    58     1     0     0
SMALL
bcc


@<TRIPOS>ATOM
      1 C26       -21.7870 -106.5840 -227.0740 c2        1 0S5      0.162000
      2 C25       -14.9660 -109.0590 -227.1000 c2        1 0S5     -0.153000
      3 C27       -20.7170 -107.3340 -226.9030 c1        1 0S5     -0.519000
      4 C24       -16.1260 -109.5040 -226.7270 c1        1 0S5     -0.088000
      5 C28       -19.6890 -108.0590 -226.7370 c1        1 0S5      0.130000
      6 C23       -17.3250 -109.8710 -226.3600 c2        1 0S5     -0.227000
      7 C29       -15.3630 -107.2630 -217.2230 c2        1 0S5      0.242000
      8 C21       -17.6690 -111.1580 -225.7720 c2        1 0S5      0.327000
      9 C18       -15.7660 -111.6520 -224.1920 c2        1 0S5      0.299000
     10 C11       -13.7230 -109.5330 -223.0290 c2        1 0S5      0.306000
     11 C8         86.6620  457.3080  943.1690 c3        1 0S5     -0.241000
     12 C9         86.4000  456.4680  944.3420 c2        1 0S5      0.246000
     13 C15       -12.0940 -111.8830 -224.9800 c3        1 0S5     -0.162000
     14 C16       -13.5350 -111.9340 -225.4880 c3        1 0S5     -0.068000
     15 C7         87.5150  456.4550  942.2690 c2        1 0S5     -0.148000
     16 C10        87.0550  455.1680  944.1760 c3        1 0S5     -0.241000
     17 C14       -12.1650 -111.4240 -223.5190 c3        1 0S5     -0.099000
     18 C17       -14.3850 -111.5410 -224.3320 c2        1 0S5     -0.492000
     19 C6         87.7370  455.2490  942.8370 c2        1 0S5     -0.148000
     20 C5        -15.0750 -109.5820 -220.9660 c2        1 0S5     -0.119000
     21 C3        -13.1150 -108.0560 -221.1280 c3        1 0S5     -0.191000
     22 C4        -14.0290 -109.1020 -221.6510 c2        1 0S5     -0.189000
     23 N13       -13.5940 -111.0420 -223.2140 nx        1 0S5      0.041000
     24 N20       -16.5290 -112.1020 -225.4270 ny        1 0S5     -0.156000
     25 O30       -14.8540 -107.8270 -218.2050 o         1 0S5     -0.376000
     26 O22       -18.7840 -111.5980 -225.5260 o         1 0S5     -0.194000
     27 O19       -16.4730 -111.4540 -223.1850 o         1 0S5     -0.370000
     28 O12       -13.5270 -108.8230 -224.0060 o         1 0S5     -0.204000
     29 O1        -15.1130 -105.8310 -215.4350 oh        1 0S5     -0.231000
     30 H1        -14.2990 -108.5250 -226.3990 ha        1 0S5      0.169500
     31 H2        -22.0100 -105.7190 -226.4240 ha        1 0S5      0.135000
     32 H3        -22.5200 -106.7800 -227.8780 ha        1 0S5      0.135000
     33 H4        -14.5850 -109.1780 -228.1270 ha        1 0S5      0.169500
     34 H5        -18.2250 -109.1760 -226.4860 ha        1 0S5      0.284000
     35 H6        -16.3200 -107.5780 -216.7500 h5        1 0S5      0.149000
     36 H7         87.8700  456.8280  941.3040 ha        1 0S5      0.202000
     37 H8         85.6990  457.6360  942.6660 hc        1 0S5      0.231000
     38 H9         87.1750  458.2790  943.4570 hc        1 0S5      0.231000
     39 H10        85.8010  456.7700  945.2160 ha        1 0S5      0.204000
     40 H11       -11.8700 -112.2540 -222.8210 hx        1 0S5      0.133000
     41 H12       -13.7860 -112.9680 -225.8410 hc        1 0S5      0.086500
     42 H13       -13.6750 -111.2240 -226.3480 hc        1 0S5      0.086500
     43 H14       -13.2200 -109.6500 -218.2110 ha        1 0S5      0.001000
     44 H15       -13.2420 -109.6030 -218.8870 ha        1 0S5      0.001000
     45 H16        86.3090  454.3140  944.2300 hc        1 0S5      0.231000
     46 H17        87.7850  454.9570  945.0200 hc        1 0S5      0.231000
     47 H18       -11.5020 -110.5350 -223.3370 hx        1 0S5      0.133000
     48 H19       -13.9110 -111.4920 -222.3460 hn        1 0S5      0.243000
     49 H20       -15.3020 -109.2060 -219.9510 ha        1 0S5      0.167000
     50 H21        88.3140  454.4080  942.4430 ha        1 0S5      0.202000
     51 H22       -15.7740 -110.3350 -221.3640 ha        1 0S5      0.167000
     52 H23       -13.0460 -107.2040 -221.8500 hc        1 0S5      0.109333
     53 H24       -13.4930 -107.6700 -220.1450 hc        1 0S5      0.109333
     54 H25       -12.0900 -108.4750 -220.9700 hc        1 0S5      0.109333
     55 H26       -15.8950 -112.1660 -226.2250 hn        1 0S5      0.245000
     56 H27       -15.6940 -105.0430 -215.4590 ho        1 0S5      0.230000
     57 H28       -11.4840 -111.1640 -225.5830 hc        1 0S5      0.118500
     58 H29       -11.6070 -112.8880 -225.0420 hc        1 0S5      0.118500
     59 H202      -16.9220 -113.0280 -225.2240 hn        1 0S5      0.245000
     60 H211      -13.8030 -105.9680 -216.8550 hn        1 0S5      0.222000
     61 N2        -14.7970 -106.0810 -216.7050 ns        1 0S5     -0.234000
@<TRIPOS>BOND
     1    1    3 1   
     2    1   31 1   
     3    1   32 1   
     4    2    4 1   
     5    2   30 1   
     6    2   33 1   
     7    3    5 1   
     8    4    6 1   
     9    6    8 1   
    10    6   34 1   
    11    7   25 1   
    12    7   35 1   
    13    7   61 1   
    14    8   24 1   
    15    8   26 1   
    16    9   18 1   
    17    9   24 1   
    18    9   27 1   
    19   10   22 1   
    20   10   23 1   
    21   10   28 1   
    22   11   12 1   
    23   11   15 1   
    24   11   37 1   
    25   11   38 1   
    26   12   16 1   
    27   12   39 1   
    28   13   14 1   
    29   13   17 1   
    30   13   57 1   
    31   13   58 1   
    32   14   18 1   
    33   14   41 1   
    34   14   42 1   
    35   15   19 1   
    36   15   36 1   
    37   16   19 1   
    38   16   45 1   
    39   16   46 1   
    40   17   23 1   
    41   17   40 1   
    42   17   47 1   
    43   18   23 1   
    44   19   50 1   
    45   20   22 1   
    46   20   49 1   
    47   20   51 1   
    48   21   22 1   
    49   21   52 1   
    50   21   53 1   
    51   21   54 1   
    52   23   48 1   
    53   24   55 1   
    54   24   59 1   
    55   29   56 1   
    56   29   61 1   
    57   43   44 1   
    58   60   61 1   
@<TRIPOS>SUBSTRUCTURE
     1 0S5         1 TEMP              0 ****  ****    0 ROOT
