@<TRIPOS>MOLECULE
0S5
   59    61     1     0     0
SMALL
bcc


@<TRIPOS>ATOM
      1 C26         4.5690    3.6120    0.1530 ca        1 0S5     -0.107000
      2 C25         4.2640    2.6400    1.1050 ca        1 0S5     -0.139500
      3 C27         4.5050    3.3020   -1.2060 ca        1 0S5     -0.139500
      4 C24         3.8870    1.3580    0.7040 ca        1 0S5     -0.087500
      5 C28         4.1350    2.0220   -1.6130 ca        1 0S5     -0.087500
      6 C23         3.8160    1.0490   -0.6570 ca        1 0S5     -0.150600
      7 C29        -1.2500   -0.4980    4.0050 c         1 0S5      0.613900
      8 C21         3.4430   -0.3100   -1.1480 c         1 0S5      0.673700
      9 C18         1.9750   -2.2610   -0.7010 c         1 0S5      0.657100
     10 C11        -0.5950   -0.8670    0.8880 c         1 0S5      0.668100
     11 C8         -4.7270    1.5510   -2.8550 c3        1 0S5     -0.078900
     12 C9         -5.1650    0.1660   -2.3950 c3        1 0S5     -0.078900
     13 C15        -0.9200   -4.1810   -0.7430 c3        1 0S5     -0.091400
     14 C16         0.4730   -4.2320   -0.1260 c3        1 0S5     -0.088400
     15 C7         -3.5060    1.9400   -2.0350 c3        1 0S5     -0.078400
     16 C10        -4.2860   -0.2300   -1.2170 c3        1 0S5     -0.078400
     17 C14        -1.4370   -2.7490   -0.5280 c3        1 0S5      0.084000
     18 C17         0.8450   -2.7760    0.2290 c3        1 0S5      0.024700
     19 C6         -3.4620    0.9990   -0.8290 c3        1 0S5     -0.068700
     20 C5         -2.0320    0.6630   -0.4510 c3        1 0S5     -0.069400
     21 C3         -2.0890    0.7670    2.0570 c3        1 0S5      0.078000
     22 C4         -1.9410   -0.1530    0.8330 c3        1 0S5     -0.154700
     23 N13        -0.3770   -1.9850    0.1080 n         1 0S5     -0.451800
     24 N20         2.4420   -0.9760   -0.4260 n         1 0S5     -0.603500
     25 O30        -1.4210   -1.4250    4.8060 o         1 0S5     -0.563100
     26 O22         3.9730   -0.8060   -2.1530 o         1 0S5     -0.533100
     27 O19         2.4450   -2.9710   -1.5980 o         1 0S5     -0.536100
     28 O12         0.3380   -0.4190    1.5980 o         1 0S5     -0.660100
     29 O1         -3.4680   -0.6090    3.2940 oh        1 0S5     -0.442100
     30 H1          4.8640    4.6230    0.4730 ha        1 0S5      0.135000
     31 H2          4.3230    2.8810    2.1770 ha        1 0S5      0.138000
     32 H3          4.7530    4.0650   -1.9580 ha        1 0S5      0.138000
     33 H4          3.6620    0.5990    1.4700 ha        1 0S5      0.148000
     34 H5          4.1010    1.7600   -2.6830 ha        1 0S5      0.148000
     35 H6         -0.2700   -0.0020    3.8170 h5        1 0S5      0.069200
     36 H7         -4.4850    1.5500   -3.9470 hc        1 0S5      0.043450
     37 H8         -5.5520    2.2900   -2.6980 hc        1 0S5      0.043450
     38 H9         -6.2420    0.1790   -2.0930 hc        1 0S5      0.043450
     39 H10        -5.0640   -0.5760   -3.2250 hc        1 0S5      0.043450
     40 H11        -0.8780   -4.4130   -1.8360 hc        1 0S5      0.061700
     41 H12         0.4720   -4.8490    0.8070 hc        1 0S5      0.077700
     42 H13         1.2150   -4.6750   -0.8370 hc        1 0S5      0.077700
     43 H14        -2.5760    1.8300   -2.6500 hc        1 0S5      0.042700
     44 H15        -3.5640    3.0050   -1.7030 hc        1 0S5      0.042700
     45 H16        -4.9060   -0.5760   -0.3530 hc        1 0S5      0.042700
     46 H17        -3.6120   -1.0790   -1.5030 hc        1 0S5      0.042700
     47 H18        -1.6950   -2.2650   -1.5110 h1        1 0S5      0.053700
     48 H19         1.2330   -2.7160    1.2890 h1        1 0S5      0.089700
     49 H20        -3.9630    1.5050    0.0410 hc        1 0S5      0.052700
     50 H21        -1.5570    0.0930   -1.2940 hc        1 0S5      0.057200
     51 H22        -1.4520    1.6160   -0.3250 hc        1 0S5      0.057200
     52 H23        -1.1540    1.3820    2.1790 h1        1 0S5      0.080700
     53 H24        -2.9630    1.4540    1.8710 h1        1 0S5      0.080700
     54 H25        -2.7770   -0.9090    0.8510 hc        1 0S5      0.094700
     55 H26         2.0320   -0.4890    0.3450 hn        1 0S5      0.344500
     56 H27        -3.8450   -0.5600    4.1940 ho        1 0S5      0.431000
     57 H28        -1.6030   -4.9190   -0.2580 hc        1 0S5      0.061700
     58 H29        -2.3610   -2.7610    0.1130 h1        1 0S5      0.053700
     59 N2         -2.3450    0.1210    3.3400 n         1 0S5     -0.308300
@<TRIPOS>BOND
     1    1    2 ar  
     2    1    3 ar  
     3    1   30 1   
     4    2    4 ar  
     5    2   31 1   
     6    3    5 ar  
     7    3   32 1   
     8    4    6 ar  
     9    4   33 1   
    10    5    6 ar  
    11    5   34 1   
    12    6    8 1   
    13    7   25 2   
    14    7   35 1   
    15    7   59 1   
    16    8   24 1   
    17    8   26 2   
    18    9   18 1   
    19    9   24 1   
    20    9   27 2   
    21   10   22 1   
    22   10   23 1   
    23   10   28 2   
    24   11   12 1   
    25   11   15 1   
    26   11   36 1   
    27   11   37 1   
    28   12   16 1   
    29   12   38 1   
    30   12   39 1   
    31   13   14 1   
    32   13   17 1   
    33   13   40 1   
    34   13   57 1   
    35   14   18 1   
    36   14   41 1   
    37   14   42 1   
    38   15   19 1   
    39   15   43 1   
    40   15   44 1   
    41   16   19 1   
    42   16   45 1   
    43   16   46 1   
    44   17   23 1   
    45   17   47 1   
    46   17   58 1   
    47   18   23 1   
    48   18   48 1   
    49   19   20 1   
    50   19   49 1   
    51   20   22 1   
    52   20   50 1   
    53   20   51 1   
    54   21   22 1   
    55   21   52 1   
    56   21   53 1   
    57   21   59 1   
    58   22   54 1   
    59   24   55 1   
    60   29   56 1   
    61   29   59 1   
@<TRIPOS>SUBSTRUCTURE
     1 0S5         1 TEMP              0 ****  ****    0 ROOT
