@<TRIPOS>MOLECULE
0S5
   59    55     1     0     0
SMALL
bcc


@<TRIPOS>ATOM
      1 C26         5.3270    3.9700   -4.6420 c1        1 0S5     -0.112500
      2 C25         4.9550    4.9540   -3.7040 c1        1 0S5     -0.112500
      3 C27         4.9600    2.6280   -4.4370 c1        1 0S5     -0.112500
      4 C24         4.2220    4.5970   -2.5720 c1        1 0S5     -0.112500
      5 C28         4.2210    2.2670   -3.2970 c1        1 0S5     -0.106000
      6 C23         3.8520    3.2440   -2.3650 c1        1 0S5     -0.131000
      7 C29        -4.2360    2.3940    2.6780 c1        1 0S5      0.228000
      8 C21         2.7430    2.9370   -1.3390 c2        1 0S5      0.349000
      9 C18         1.0870    1.3110   -0.4820 c1        1 0S5      0.296000
     10 C11        -1.9800   -0.5470   -0.5930 c1        1 0S5      0.304000
     11 C8         -2.1510   -3.9890    3.6270 c3        1 0S5     -0.156500
     12 C9         -1.3390   -4.6280    2.3840 c3        1 0S5     -0.156500
     13 C15         1.2720   -1.2300   -2.0830 c3        1 0S5     -0.176000
     14 C16         1.6720   -0.8930   -0.6440 c3        1 0S5     -0.167000
     15 C7         -1.9330   -2.6560    3.5760 c3        1 0S5     -0.159000
     16 C10        -1.4520   -3.7550    1.3790 c3        1 0S5     -0.159000
     17 C14        -0.1660   -0.7540   -2.2490 c3        1 0S5     -0.042000
     18 C17         0.7180   -0.0630   -0.1790 c3        1 0S5     -0.011000
     19 C6         -1.6550   -2.3490    2.0760 c3        1 0S5     -0.110000
     20 C5         -2.7740   -1.6580    1.4920 c3        1 0S5     -0.150000
     21 C3         -3.3840    0.7060    1.0240 c3        1 0S5     -0.048000
     22 C4         -2.2970   -0.3380    0.8840 c3        1 0S5     -0.125000
     23 N13        -0.5840   -0.4850   -1.0630 n2        1 0S5     -0.326000
     24 N20         2.3480    1.5920   -1.1030 n2        1 0S5     -0.374000
     25 N2         -3.2390    1.3910    2.2700 n2        1 0S5     -0.203000
     26 O30        -3.9860    3.1710    3.5950 o         1 0S5     -0.303000
     27 O22         2.1320    3.8600   -0.7990 o         1 0S5     -0.284000
     28 O19         0.3590    2.2180   -0.1570 o         1 0S5     -0.299000
     29 O12        -2.8660   -0.8830   -1.3640 o         1 0S5     -0.355000
     30 O1         -2.2170    1.0800    3.0980 oh        1 0S5     -0.233000
     31 H1          5.8160    4.2090   -5.3970 ha        1 0S5      0.144000
     32 H2          5.2160    5.9040   -3.8500 ha        1 0S5      0.144000
     33 H3          5.2190    1.9430   -5.0930 ha        1 0S5      0.144000
     34 H4          3.9640    5.2760   -1.9230 ha        1 0S5      0.144000
     35 H5          3.9700    1.3470   -3.1560 ha        1 0S5      0.133000
     36 H6         -5.1010    2.4620    2.1910 ha        1 0S5      0.129000
     37 H7         -3.1150   -4.1800    3.5360 hc        1 0S5      0.081250
     38 H8         -1.8120   -4.3520    4.4730 hc        1 0S5      0.081250
     39 H9         -0.3820   -4.7510    2.6270 hc        1 0S5      0.081250
     40 H10        -1.7370   -5.4890    2.1290 hc        1 0S5      0.081250
     41 H11         1.8630   -0.7530   -2.7140 hc        1 0S5      0.097000
     42 H12         2.5340   -0.4530   -0.6310 hc        1 0S5      0.105000
     43 H13         1.7020   -1.7100   -0.1030 hc        1 0S5      0.105000
     44 H14        -1.1360   -2.4110    4.1340 hc        1 0S5      0.082500
     45 H15        -2.7200   -2.1710    3.8810 hc        1 0S5      0.082500
     46 H16        -0.6640   -3.7520    0.8570 hc        1 0S5      0.082500
     47 H17        -2.2540   -3.9820    0.8060 hc        1 0S5      0.082500
     48 H18        -0.1980    0.0520   -2.8150 h1        1 0S5      0.102500
     49 H19         0.6030   -0.0160    0.7670 h1        1 0S5      0.131000
     50 H20        -0.8430   -1.8080    1.9890 hc        1 0S5      0.091000
     51 H21        -3.4620   -1.4690    2.2070 hc        1 0S5      0.098500
     52 H22        -3.1800   -2.2260    0.7820 hc        1 0S5      0.098500
     53 H23        -4.2470    0.2770    0.9930 h1        1 0S5      0.109500
     54 H24        -3.3150    1.3390    0.3010 h1        1 0S5      0.109500
     55 H25        -1.4850   -0.0320    1.3540 hc        1 0S5      0.131000
     56 H26         2.8930    0.8890   -1.3890 hn        1 0S5      0.241000
     57 H27        -2.3740    1.4160    3.8980 ho        1 0S5      0.233000
     58 H28         1.3300   -2.2070   -2.2360 hc        1 0S5      0.097000
     59 H29        -0.6950   -1.4430   -2.6310 h1        1 0S5      0.102500
@<TRIPOS>BOND
     1    1    3 1   
     2    1   31 1   
     3    2    4 1   
     4    2   32 1   
     5    3   33 1   
     6    4   34 1   
     7    5    6 1   
     8    5   35 1   
     9    6    8 1   
    10    7   26 1   
    11    7   36 1   
    12    8   24 1   
    13    8   27 1   
    14    9   18 1   
    15    9   28 1   
    16   10   22 1   
    17   10   29 1   
    18   11   12 1   
    19   11   15 1   
    20   11   37 1   
    21   11   38 1   
    22   12   16 1   
    23   12   39 1   
    24   12   40 1   
    25   13   14 1   
    26   13   17 1   
    27   13   41 1   
    28   13   58 1   
    29   14   18 1   
    30   14   42 1   
    31   14   43 1   
    32   15   19 1   
    33   15   44 1   
    34   15   45 1   
    35   16   19 1   
    36   16   46 1   
    37   16   47 1   
    38   17   23 1   
    39   17   48 1   
    40   17   59 1   
    41   18   23 1   
    42   18   49 1   
    43   19   20 1   
    44   19   50 1   
    45   20   22 1   
    46   20   51 1   
    47   20   52 1   
    48   21   22 1   
    49   21   25 1   
    50   21   53 1   
    51   21   54 1   
    52   22   55 1   
    53   24   56 1   
    54   25   30 1   
    55   30   57 1   
@<TRIPOS>SUBSTRUCTURE
     1 0S5         1 TEMP              0 ****  ****    0 ROOT
