@<TRIPOS>MOLECULE
0S5
   61    57     1     0     0
SMALL
bcc


@<TRIPOS>ATOM
      1 C26       -23.6330  -51.6110  -54.5220 c2        1 0S5      0.189000
      2 C25       -21.0600  -46.4380  -50.5260 c1        1 0S5      0.296000
      3 C27       -22.9770  -51.0180  -53.5400 c1        1 0S5     -0.469000
      4 C24       -21.0780  -47.7260  -50.5160 c1        1 0S5     -0.573000
      5 C28       -22.3650  -50.4380  -52.6040 c1        1 0S5      0.112000
      6 C23       -21.1730  -49.0320  -50.5830 c2        1 0S5      0.022000
      7 C29        48.9300  102.8860  114.0660 c2        1 0S5      0.328000
      8 C21       -20.6310  -49.8970  -49.5060 c2        1 0S5      0.268000
      9 C18       -18.1370  -50.2860  -49.7440 c2        1 0S5      0.246000
     10 C11       -16.9070  -50.9430  -46.8180 c2        1 0S5      0.364000
     11 C8         47.9990  100.7050  113.4580 c3        1 0S5     -0.029000
     12 C9         50.4790   99.9050  111.3340 cx        1 0S5     -0.194000
     13 C15       -14.7440  -49.2000  -50.2820 c2        1 0S5     -0.132000
     14 C16       -15.7420  -50.0800  -50.2440 c2        1 0S5     -0.230000
     15 C7         48.0360  100.5670  111.9520 c3        1 0S5     -0.170000
     16 C10        49.7670  100.2460  110.0620 cx        1 0S5     -0.194000
     17 C14       -15.7460  -52.3240  -48.5130 c3        1 0S5     -0.084000
     18 C17       -16.7280  -50.1170  -49.1100 c3        1 0S5      0.069000
     19 C6         49.3570  100.9130  111.3510 cx        1 0S5     -0.214000
     20 C5        -17.0480  -51.9220  -44.5780 c2        1 0S5     -0.086000
     21 C3         51.3800  102.2680  114.0200 c2        1 0S5      0.192000
     22 C4        -16.4060  -51.8250  -45.7450 c2        1 0S5     -0.236000
     23 N13       -16.5040  -51.1600  -48.1380 n         1 0S5     -0.334000
     24 N20       -19.2360  -49.5630  -49.0260 n4        1 0S5     -0.187000
     25 O30        47.8790  102.1030  113.8400 os        1 0S5     -0.158000
     26 O22       -21.1700  -50.8570  -48.9770 o         1 0S5     -0.175000
     27 O19       -18.4270  -50.9440  -50.7300 o         1 0S5     -0.189000
     28 O12       -17.7040  -49.9970  -46.5930 o         1 0S5     -0.437000
     29 O1        -18.0000  -47.4680  -47.6710 oh        1 0S5     -0.459000
     30 H1        -23.3150  -51.5200  -55.5770 ha        1 0S5      0.149500
     31 H2        -24.5340  -52.2250  -54.3370 ha        1 0S5      0.149500
     32 H3        -20.6300  -51.7130  -51.4500 ha        1 0S5      0.006000
     33 H4        -20.5820  -51.9920  -52.0680 ha        1 0S5      0.006000
     34 H5        -21.7040  -49.6500  -51.4810 ha        1 0S5      0.328000
     35 H6         48.6180  103.9470  114.2710 h5        1 0S5      0.258000
     36 H7         48.8790  100.2290  113.9590 h1        1 0S5      0.135000
     37 H8         47.0390  100.2860  113.8780 h1        1 0S5      0.135000
     38 H9         50.3150   98.9100  111.7880 hc        1 0S5      0.124000
     39 H10        51.5170  100.2560  111.4750 hc        1 0S5      0.124000
     40 H11       -15.9070  -52.5500  -49.6010 h1        1 0S5      0.101333
     41 H12       -14.0320  -49.1710  -51.1210 ha        1 0S5      0.137500
     42 H13       -15.9060  -50.8200  -51.0450 ha        1 0S5      0.157000
     43 H14        47.7700   99.5000  111.7130 hc        1 0S5      0.131500
     44 H15        47.2390  101.2180  111.4970 hc        1 0S5      0.131500
     45 H16        49.0900   99.4990  109.6070 hc        1 0S5      0.124000
     46 H17        50.2870  100.8480  109.2940 hc        1 0S5      0.124000
     47 H18       -16.0900  -53.2100  -47.9130 h1        1 0S5      0.101333
     48 H19       -16.7150  -49.1120  -48.5680 h1        1 0S5      0.161000
     49 H20        49.6170  101.9840  111.4710 hc        1 0S5      0.093000
     50 H21       -16.6730  -52.5600  -43.7630 ha        1 0S5      0.143000
     51 H22       -17.9790  -51.3750  -44.3650 ha        1 0S5      0.143000
     52 H23       -15.4670  -52.3690  -45.9410 ha        1 0S5      0.157000
     53 H24        52.0250  101.9490  114.8720 h4        1 0S5      0.185000
     54 H25        51.8420  102.3630  113.0100 h4        1 0S5      0.185000
     55 H26       -19.1430  -49.7750  -48.0130 hn        1 0S5      0.291000
     56 H27       -17.8420  -47.8030  -46.7800 ho        1 0S5      0.232500
     57 H28       -14.6500  -52.1590  -48.3330 h1        1 0S5      0.101333
     58 H29       -14.5620  -48.4550  -49.4930 ha        1 0S5      0.137500
     59 H202      -19.0800  -48.5440  -49.1280 hn        1 0S5      0.291000
     60 H211      -17.9920  -46.5110  -47.5720 ho        1 0S5      0.232500
     61 N2         50.1610  102.5150  114.2280 n2        1 0S5     -0.312000
@<TRIPOS>BOND
     1    1    3 1   
     2    1   30 1   
     3    1   31 1   
     4    2    4 1   
     5    3    5 1   
     6    4    6 1   
     7    6    8 1   
     8    6   34 1   
     9    7   25 1   
    10    7   35 1   
    11    7   61 1   
    12    8   24 1   
    13    8   26 1   
    14    9   18 1   
    15    9   24 1   
    16    9   27 1   
    17   10   22 1   
    18   10   23 1   
    19   10   28 1   
    20   11   15 1   
    21   11   25 1   
    22   11   36 1   
    23   11   37 1   
    24   12   16 1   
    25   12   19 1   
    26   12   38 1   
    27   12   39 1   
    28   13   14 1   
    29   13   41 1   
    30   13   58 1   
    31   14   18 1   
    32   14   42 1   
    33   15   19 1   
    34   15   43 1   
    35   15   44 1   
    36   16   19 1   
    37   16   45 1   
    38   16   46 1   
    39   17   23 1   
    40   17   40 1   
    41   17   47 1   
    42   17   57 1   
    43   18   23 1   
    44   18   48 1   
    45   19   49 1   
    46   20   22 1   
    47   20   50 1   
    48   20   51 1   
    49   21   53 1   
    50   21   54 1   
    51   21   61 1   
    52   22   52 1   
    53   24   55 1   
    54   24   59 1   
    55   29   56 1   
    56   29   60 1   
    57   32   33 1   
@<TRIPOS>SUBSTRUCTURE
     1 0S5         1 TEMP              0 ****  ****    0 ROOT
