@<TRIPOS>MOLECULE
0S6
   47    50     1     0     0
SMALL
bcc


@<TRIPOS>ATOM
      1 CL1        -0.0470   -0.0920    0.1190 cl        1 0S6     -0.089400
      2 C15         1.6500   -0.0190    0.0820 ca        1 0S6      0.027400
      3 C16         2.3840   -0.3910    1.2140 ca        1 0S6     -0.132000
      4 C17         3.7750   -0.3270    1.1830 ca        1 0S6     -0.090500
      5 C13         2.3020    0.4080   -1.0790 ca        1 0S6     -0.132000
      6 C14         3.6940    0.4650   -1.1060 ca        1 0S6     -0.090500
      7 C12         4.4350    0.1070    0.0260 ca        1 0S6     -0.135900
      8 C8          5.9220    0.1320   -0.0050 ce        1 0S6      0.567500
      9 C5          6.5590    0.8170    1.1300 cc        1 0S6     -0.213900
     10 C4          6.0900    2.0370    1.7250 cc        1 0S6     -0.057300
     11 C7          4.9320    2.8050    1.2420 c3        1 0S6     -0.041800
     12 C2          6.8730    2.4150    2.8030 cd        1 0S6     -0.116400
     13 C6          6.6640    3.5990    3.6430 c3        1 0S6     -0.025800
     14 S1          8.1380    1.3560    3.0710 ss        1 0S6      0.050200
     15 C3          7.7150    0.3520    1.7710 cd        1 0S6     -0.011300
     16 N9          8.4600   -0.7490    1.3800 na        1 0S6     -0.235800
     17 C11         9.2570   -1.6190    2.1660 cc        1 0S6      0.375800
     18 C28         9.3960   -1.5440    3.6370 c3        1 0S6     -0.125400
     19 N27         9.8340   -2.5250    1.3210 nd        1 0S6     -0.337000
     20 N21         9.4580   -2.2910    0.0800 nd        1 0S6     -0.324000
     21 C19         8.6210   -1.2150    0.0530 cc        1 0S6      0.353800
     22 N10         6.5070   -0.4710   -0.9890 n2        1 0S6     -0.581900
     23 C20         7.9340   -0.6090   -1.1430 c3        1 0S6      0.115200
     24 C22         8.6810    0.6830   -1.5220 c3        1 0S6     -0.142400
     25 C23         8.2840    1.1410   -2.8890 c         1 0S6      0.634100
     26 O24         8.2420    0.4990   -3.9390 o         1 0S6     -0.526000
     27 O25         7.9580    2.4710   -2.9280 os        1 0S6     -0.442900
     28 C26         7.5970    3.0050   -4.2020 c3        1 0S6      0.124700
     29 H1          1.8690   -0.7380    2.1220 ha        1 0S6      0.151000
     30 H2          4.3570   -0.6220    2.0690 ha        1 0S6      0.149000
     31 H3          1.7220    0.6910   -1.9710 ha        1 0S6      0.151000
     32 H4          4.2100    0.7840   -2.0260 ha        1 0S6      0.149000
     33 H6          5.0540    3.8910    1.4830 hc        1 0S6      0.055367
     34 H7          4.8120    2.6920    0.1360 hc        1 0S6      0.055367
     35 H8          3.9960    2.4360    1.7350 hc        1 0S6      0.055367
     36 H9          6.7680    4.5330    3.0320 hc        1 0S6      0.053700
     37 H10         7.4060    3.6400    4.4790 hc        1 0S6      0.053700
     38 H11         5.6340    3.5880    4.0840 hc        1 0S6      0.053700
     39 H12         9.5870   -0.4900    3.9640 hc        1 0S6      0.066367
     40 H13        10.2520   -2.1830    3.9710 hc        1 0S6      0.066367
     41 H14         8.4600   -1.9130    4.1270 hc        1 0S6      0.066367
     42 H17         8.0480   -1.3380   -2.0120 h1        1 0S6      0.134700
     43 H18         8.4890    1.4940   -0.7710 hc        1 0S6      0.093200
     44 H19         9.7840    0.4690   -1.5430 hc        1 0S6      0.093200
     45 H20         7.3780    4.0800   -3.9860 h1        1 0S6      0.051700
     46 H21         8.4490    2.8960   -4.9150 h1        1 0S6      0.051700
     47 H22         6.6980    2.4740   -4.5960 h1        1 0S6      0.051700
@<TRIPOS>BOND
     1    1    2 1   
     2    2    3 ar  
     3    2    5 ar  
     4    3    4 ar  
     5    3   29 1   
     6    4    7 ar  
     7    4   30 1   
     8    5    6 ar  
     9    5   31 1   
    10    6    7 ar  
    11    6   32 1   
    12    7    8 1   
    13    8    9 1   
    14    8   22 2   
    15    9   10 1   
    16    9   15 2   
    17   10   11 1   
    18   10   12 2   
    19   11   33 1   
    20   11   34 1   
    21   11   35 1   
    22   12   13 1   
    23   12   14 1   
    24   13   36 1   
    25   13   37 1   
    26   13   38 1   
    27   14   15 1   
    28   15   16 1   
    29   16   17 1   
    30   16   21 1   
    31   17   18 1   
    32   17   19 2   
    33   18   39 1   
    34   18   40 1   
    35   18   41 1   
    36   19   20 1   
    37   20   21 2   
    38   21   23 1   
    39   22   23 1   
    40   23   24 1   
    41   23   42 1   
    42   24   25 1   
    43   24   43 1   
    44   24   44 1   
    45   25   26 2   
    46   25   27 1   
    47   27   28 1   
    48   28   45 1   
    49   28   46 1   
    50   28   47 1   
@<TRIPOS>SUBSTRUCTURE
     1 0S6         1 TEMP              0 ****  ****    0 ROOT
