@<TRIPOS>MOLECULE
0S6
   47    41     1     0     0
SMALL
bcc


@<TRIPOS>ATOM
      1 CL1        -6.9050   -0.6720    0.9110 cl        1 0S6     -0.010000
      2 C15        -5.1060   -0.5800    0.8580 c2        1 0S6     -0.051000
      3 C16        -4.3780   -0.5540    2.0320 c2        1 0S6     -0.131000
      4 C17        -2.9860   -0.4340    1.9880 c1        1 0S6     -0.086000
      5 C13        -4.4510   -0.4870   -0.3660 c1        1 0S6     -0.131000
      6 C14        -3.0590   -0.3670   -0.4120 c1        1 0S6     -0.096000
      7 C12        -2.3310   -0.3410    0.7480 c1        1 0S6     -0.052000
      8 C8         -0.8420   -0.1120    0.6940 c2        1 0S6      0.110000
      9 C5          0.0930   -1.2670    0.3090 c2        1 0S6     -0.135000
     10 C4         -0.0670   -2.8410    0.6570 c1        1 0S6     -0.052000
     11 C7         -0.1980   -3.6450    1.9480 c2        1 0S6     -0.155000
     12 C2          0.2810   -3.6120   -0.5250 c1        1 0S6     -0.382000
     13 C6          0.4800   -5.0200   -1.0070 c2        1 0S6     -0.155000
     14 S1          0.6680   -2.6050   -1.6540 ss        1 0S6      0.598000
     15 C3          0.5270   -1.1440   -1.0560 c1        1 0S6     -0.233000
     16 N9          1.5090   -0.1550   -1.1720 n2        1 0S6     -0.104000
     17 C11         2.7020   -0.2950   -1.8440 c1        1 0S6     -0.080500
     18 C28         3.2790   -0.3750   -3.2500 c2        1 0S6     -0.155000
     19 N27         3.6930    0.1790   -1.0470 n2        1 0S6     -0.065500
     20 N21         3.1260    0.6120    0.1160 n2        1 0S6     -0.065500
     21 C19         1.7710    0.4020    0.0300 c1        1 0S6     -0.080500
     22 N10        -0.3090    1.1820    0.9730 n1        1 0S6     -0.169000
     23 C20         0.8530    1.6520    0.2730 c1        1 0S6      0.045000
     24 C22         1.5600    2.7900    1.0030 c3        1 0S6     -0.170000
     25 C23         1.0370    4.1830    0.4460 c1        1 0S6      0.304000
     26 O24         0.3900    4.2230   -0.5980 o         1 0S6     -0.337000
     27 O25         1.3100    5.3620    1.1450 o         1 0S6     -0.277000
     28 C26         1.6210    6.5090    0.2920 c3        1 0S6     -0.065000
     29 H1         -4.8160   -0.6160    2.8540 ha        1 0S6      0.152000
     30 H2         -2.4570   -0.4160    2.8400 ha        1 0S6      0.151000
     31 H3         -4.9610   -0.5050   -1.1910 ha        1 0S6      0.151000
     32 H4         -2.5980   -0.3020   -1.2900 ha        1 0S6      0.145000
     33 H6          0.6390   -4.2160    2.0800 ha        1 0S6      0.097222
     34 H7         -0.3050   -2.9950    2.7490 ha        1 0S6      0.097222
     35 H8         -1.0160   -4.2480    1.8870 ha        1 0S6      0.097222
     36 H9          1.3730   -5.3620   -0.6870 ha        1 0S6      0.097222
     37 H10        -0.2480   -5.6030   -0.6470 ha        1 0S6      0.097222
     38 H11         0.4570   -5.0360   -2.0010 ha        1 0S6      0.097222
     39 H12         2.5630   -0.6910   -3.8870 ha        1 0S6      0.097222
     40 H13         3.5950    0.5110   -3.5280 ha        1 0S6      0.097222
     41 H14         4.0090   -0.9920   -3.2590 ha        1 0S6      0.097222
     42 H17         0.6100    2.0910   -0.5890 ha        1 0S6      0.173000
     43 H18         2.4860    2.7250    0.8590 hc        1 0S6      0.128000
     44 H19         1.3680    2.7280    1.9990 hc        1 0S6      0.128000
     45 H20         2.3860    6.3090   -0.2490 h1        1 0S6      0.092333
     46 H21         1.8210    7.3160    0.8730 h1        1 0S6      0.092333
     47 H22         0.8260    6.7130   -0.3080 h1        1 0S6      0.092333
@<TRIPOS>BOND
     1    1    2 1   
     2    2    3 1   
     3    2    5 1   
     4    3    4 1   
     5    3   29 1   
     6    4   30 1   
     7    5   31 1   
     8    6    7 1   
     9    6   32 1   
    10    7    8 1   
    11    8    9 1   
    12    8   22 1   
    13    9   10 1   
    14    9   15 1   
    15   10   12 1   
    16   11   33 1   
    17   11   34 1   
    18   11   35 1   
    19   12   14 1   
    20   13   36 1   
    21   13   37 1   
    22   13   38 1   
    23   14   15 1   
    24   16   17 1   
    25   16   21 1   
    26   17   19 1   
    27   18   39 1   
    28   18   40 1   
    29   18   41 1   
    30   19   20 1   
    31   20   21 1   
    32   23   24 1   
    33   23   42 1   
    34   24   25 1   
    35   24   43 1   
    36   24   44 1   
    37   25   26 1   
    38   27   28 1   
    39   28   45 1   
    40   28   46 1   
    41   28   47 1   
@<TRIPOS>SUBSTRUCTURE
     1 0S6         1 TEMP              0 ****  ****    0 ROOT
