@<TRIPOS>MOLECULE
0S6
   47    50     1     0     0
SMALL
bcc


@<TRIPOS>ATOM
      1 Cl1        -0.0450   -0.1020    0.1080 cl        1 0S6     -0.089400
      2 C15         1.6520   -0.0280    0.0740 ca        1 0S6      0.027400
      3 C16         2.3850   -0.3980    1.2070 ca        1 0S6     -0.132000
      4 C17         3.7760   -0.3320    1.1790 ca        1 0S6     -0.090500
      5 C13         2.3050    0.4010   -1.0860 ca        1 0S6     -0.132000
      6 C14         3.6970    0.4600   -1.1110 ca        1 0S6     -0.090500
      7 C12         4.4360    0.1030    0.0230 ca        1 0S6     -0.135900
      8 C8          5.9240    0.1310   -0.0050 ce        1 0S6      0.567500
      9 C5          6.5570    0.8170    1.1310 cc        1 0S6     -0.213900
     10 C4          6.0860    2.0370    1.7230 cc        1 0S6     -0.057300
     11 C7          4.9270    2.8030    1.2380 c3        1 0S6     -0.041800
     12 C2          6.8660    2.4180    2.8020 cd        1 0S6     -0.116400
     13 C6          6.6530    3.6020    3.6410 c3        1 0S6     -0.025800
     14 S1          8.1330    1.3610    3.0740 ss        1 0S6      0.050200
     15 C3          7.7130    0.3550    1.7740 cd        1 0S6     -0.011300
     16 N9          8.4610   -0.7440    1.3850 na        1 0S6     -0.235800
     17 C11         9.2580   -1.6120    2.1730 cc        1 0S6      0.375800
     18 C28         9.3950   -1.5360    3.6440 c3        1 0S6     -0.125400
     19 N27         9.8390   -2.5190    1.3300 nd        1 0S6     -0.337000
     20 N21         9.4640   -2.2860    0.0880 nd        1 0S6     -0.324000
     21 C19         8.6250   -1.2120    0.0580 cc        1 0S6      0.353800
     22 N10         6.5120   -0.4720   -0.9870 n2        1 0S6     -0.581900
     23 C20         7.9390   -0.6070   -1.1390 c3        1 0S6      0.115200
     24 C22         8.6850    0.6860   -1.5180 c3        1 0S6     -0.142400
     25 C23         8.2890    1.1410   -2.8870 c         1 0S6      0.634100
     26 O24         8.2510    0.4980   -3.9360 o         1 0S6     -0.526000
     27 O25         7.9600    2.4700   -2.9270 os        1 0S6     -0.442900
     28 C26         7.6000    3.0030   -4.2020 c3        1 0S6      0.124700
     29 H1          1.8690   -0.7460    2.1150 ha        1 0S6      0.151000
     30 H2          4.3560   -0.6260    2.0660 ha        1 0S6      0.148500
     31 H3          1.7270    0.6820   -1.9790 ha        1 0S6      0.151000
     32 H4          4.2140    0.7800   -2.0290 ha        1 0S6      0.148500
     33 H6          5.0470    3.8890    1.4780 hc        1 0S6      0.055367
     34 H7          3.9910    2.4330    1.7300 hc        1 0S6      0.055367
     35 H8          4.8080    2.6880    0.1320 hc        1 0S6      0.055367
     36 H9          6.7570    4.5360    3.0300 hc        1 0S6      0.053700
     37 H10         5.6230    3.5890    4.0800 hc        1 0S6      0.053700
     38 H11         7.3940    3.6450    4.4780 hc        1 0S6      0.053700
     39 H12        10.2500   -2.1740    3.9800 hc        1 0S6      0.066367
     40 H13         9.5840   -0.4810    3.9700 hc        1 0S6      0.066367
     41 H14         8.4580   -1.9050    4.1330 hc        1 0S6      0.066367
     42 H17         8.0560   -1.3370   -2.0070 h1        1 0S6      0.134700
     43 H18         8.4900    1.4960   -0.7680 hc        1 0S6      0.093200
     44 H19         9.7880    0.4730   -1.5370 hc        1 0S6      0.093200
     45 H20         8.4530    2.8950   -4.9140 h1        1 0S6      0.051700
     46 H21         6.7030    2.4690   -4.5980 h1        1 0S6      0.051700
     47 H22         7.3780    4.0770   -3.9870 h1        1 0S6      0.051700
@<TRIPOS>BOND
     1    1    2 1   
     2    2    3 ar  
     3    2    5 ar  
     4    3    4 ar  
     5    3   29 1   
     6    4    7 ar  
     7    4   30 1   
     8    5    6 ar  
     9    5   31 1   
    10    6    7 ar  
    11    6   32 1   
    12    7    8 1   
    13    8    9 1   
    14    8   22 2   
    15    9   10 1   
    16    9   15 2   
    17   10   11 1   
    18   10   12 2   
    19   11   33 1   
    20   11   34 1   
    21   11   35 1   
    22   12   13 1   
    23   12   14 1   
    24   13   36 1   
    25   13   37 1   
    26   13   38 1   
    27   14   15 1   
    28   15   16 1   
    29   16   17 1   
    30   16   21 1   
    31   17   18 1   
    32   17   19 2   
    33   18   39 1   
    34   18   40 1   
    35   18   41 1   
    36   19   20 1   
    37   20   21 2   
    38   21   23 1   
    39   22   23 1   
    40   23   24 1   
    41   23   42 1   
    42   24   25 1   
    43   24   43 1   
    44   24   44 1   
    45   25   26 2   
    46   25   27 1   
    47   27   28 1   
    48   28   45 1   
    49   28   46 1   
    50   28   47 1   
@<TRIPOS>SUBSTRUCTURE
     1 0S6         1 TEMP              0 ****  ****    0 ROOT
