@<TRIPOS>MOLECULE
0S6
   47    50     1     0     0
SMALL
bcc


@<TRIPOS>ATOM
      1 CL1        -6.2000    0.9120    0.8830 cl        1 0S6     -0.089400
      2 C15        -4.5380    0.5900    0.7320 ca        1 0S6      0.027400
      3 C16        -3.6190    1.6400    0.8250 ca        1 0S6     -0.132000
      4 C17        -2.2570    1.3750    0.6960 ca        1 0S6     -0.090500
      5 C13        -4.1020   -0.7210    0.5180 ca        1 0S6     -0.132000
      6 C14        -2.7380   -0.9810    0.3960 ca        1 0S6     -0.090500
      7 C12        -1.8120    0.0660    0.4740 ca        1 0S6     -0.135900
      8 C8         -0.3530   -0.2070    0.3790 ce        1 0S6      0.567500
      9 C5          0.3830    0.6560   -0.5580 cc        1 0S6     -0.213900
     10 C4         -0.0930    1.0680   -1.8480 cc        1 0S6     -0.057300
     11 C7         -1.3700    0.6360   -2.4380 c3        1 0S6     -0.041800
     12 C2          0.8040    1.9120   -2.4810 cd        1 0S6     -0.116400
     13 C6          0.6210    2.5270   -3.7990 c3        1 0S6     -0.025800
     14 S1          2.1790    2.1760   -1.5670 ss        1 0S6      0.050200
     15 C3          1.6560    1.1820   -0.2960 cd        1 0S6     -0.011300
     16 N9          2.4250    0.8990    0.8210 na        1 0S6     -0.235800
     17 C11         3.3980    1.7020    1.4670 cc        1 0S6      0.375800
     18 C28         3.7440    3.0880    1.0840 c3        1 0S6     -0.125400
     19 N27         3.9200    0.9700    2.4970 nd        1 0S6     -0.337000
     20 N21         3.3480   -0.2170    2.5440 nd        1 0S6     -0.324000
     21 C19         2.4280   -0.3200    1.5420 cc        1 0S6      0.353800
     22 N10         0.1310   -1.1340    1.1400 n2        1 0S6     -0.581900
     23 C20         1.5260   -1.4850    1.2310 c3        1 0S6      0.115200
     24 C22         2.0990   -2.2240    0.0080 c3        1 0S6     -0.142400
     25 C23         1.4690   -3.5730   -0.1370 c         1 0S6      0.634100
     26 O24         1.3300   -4.4570    0.7090 o         1 0S6     -0.526000
     27 O25         1.0280   -3.8170   -1.4100 os        1 0S6     -0.442900
     28 C26         0.4410   -5.0960   -1.6510 c3        1 0S6      0.124700
     29 H1         -3.9650    2.6700    1.0040 ha        1 0S6      0.151000
     30 H2         -1.5300    2.1980    0.7720 ha        1 0S6      0.148500
     31 H3         -4.8270   -1.5460    0.4550 ha        1 0S6      0.151000
     32 H4         -2.3900   -2.0150    0.2450 ha        1 0S6      0.148500
     33 H6         -2.1900    1.3350   -2.1300 hc        1 0S6      0.055367
     34 H7         -1.3050    0.6380   -3.5550 hc        1 0S6      0.055367
     35 H8         -1.6410   -0.3930   -2.0940 hc        1 0S6      0.055367
     36 H9         -0.3280    3.1210   -3.8260 hc        1 0S6      0.053700
     37 H10         1.4720    3.2090   -4.0510 hc        1 0S6      0.053700
     38 H11         0.5560    1.7370   -4.5920 hc        1 0S6      0.053700
     39 H12         2.9230    3.7840    1.3910 hc        1 0S6      0.066367
     40 H13         4.6890    3.4000    1.5950 hc        1 0S6      0.066367
     41 H14         3.8930    3.1680   -0.0240 hc        1 0S6      0.066367
     42 H17         1.5720   -2.2010    2.1170 h1        1 0S6      0.134700
     43 H18         1.9520   -1.6250   -0.9280 hc        1 0S6      0.093200
     44 H19         3.2010   -2.3790    0.1640 hc        1 0S6      0.093200
     45 H20         0.1650   -5.0610   -2.7330 h1        1 0S6      0.051700
     46 H21         1.1860   -5.9010   -1.4440 h1        1 0S6      0.051700
     47 H22        -0.4570   -5.2300   -1.0020 h1        1 0S6      0.051700
@<TRIPOS>BOND
     1    1    2 1   
     2    2    3 ar  
     3    2    5 ar  
     4    3    4 ar  
     5    3   29 1   
     6    4    7 ar  
     7    4   30 1   
     8    5    6 ar  
     9    5   31 1   
    10    6    7 ar  
    11    6   32 1   
    12    7    8 1   
    13    8    9 1   
    14    8   22 2   
    15    9   10 1   
    16    9   15 2   
    17   10   11 1   
    18   10   12 2   
    19   11   33 1   
    20   11   34 1   
    21   11   35 1   
    22   12   13 1   
    23   12   14 1   
    24   13   36 1   
    25   13   37 1   
    26   13   38 1   
    27   14   15 1   
    28   15   16 1   
    29   16   17 1   
    30   16   21 1   
    31   17   18 1   
    32   17   19 2   
    33   18   39 1   
    34   18   40 1   
    35   18   41 1   
    36   19   20 1   
    37   20   21 2   
    38   21   23 1   
    39   22   23 1   
    40   23   24 1   
    41   23   42 1   
    42   24   25 1   
    43   24   43 1   
    44   24   44 1   
    45   25   26 2   
    46   25   27 1   
    47   27   28 1   
    48   28   45 1   
    49   28   46 1   
    50   28   47 1   
@<TRIPOS>SUBSTRUCTURE
     1 0S6         1 TEMP              0 ****  ****    0 ROOT
