@<TRIPOS>MOLECULE
0S6
   47    50     1     0     0
SMALL
bcc


@<TRIPOS>ATOM
      1 CL1        -0.0420   -0.1110    0.0940 cl        1 0S6     -0.089400
      2 C15         1.6550   -0.0330    0.0630 ca        1 0S6      0.027400
      3 C16         2.3870   -0.4050    1.1960 ca        1 0S6     -0.132000
      4 C17         3.7770   -0.3360    1.1700 ca        1 0S6     -0.090500
      5 C13         2.3100    0.3990   -1.0950 ca        1 0S6     -0.132000
      6 C14         3.7020    0.4610   -1.1170 ca        1 0S6     -0.090500
      7 C12         4.4400    0.1030    0.0170 ca        1 0S6     -0.135900
      8 C8          5.9270    0.1330   -0.0090 ce        1 0S6      0.567500
      9 C5          6.5570    0.8180    1.1300 cc        1 0S6     -0.213900
     10 C4          6.0830    2.0360    1.7240 cc        1 0S6     -0.057300
     11 C7          4.9240    2.8010    1.2390 c3        1 0S6     -0.041800
     12 C2          6.8610    2.4160    2.8050 cd        1 0S6     -0.116400
     13 C6          6.6440    3.5980    3.6460 c3        1 0S6     -0.025800
     14 S1          8.1280    1.3610    3.0770 ss        1 0S6      0.050200
     15 C3          7.7130    0.3570    1.7740 cd        1 0S6     -0.011300
     16 N9          8.4630   -0.7400    1.3840 na        1 0S6     -0.235800
     17 C11         9.2610   -1.6090    2.1720 cc        1 0S6      0.375800
     18 C28         9.3940   -1.5350    3.6430 c3        1 0S6     -0.125400
     19 N27         9.8440   -2.5120    1.3280 nd        1 0S6     -0.337000
     20 N21         9.4710   -2.2780    0.0860 nd        1 0S6     -0.324000
     21 C19         8.6300   -1.2050    0.0570 cc        1 0S6      0.353800
     22 N10         6.5180   -0.4670   -0.9910 n2        1 0S6     -0.581900
     23 C20         7.9460   -0.5990   -1.1400 c3        1 0S6      0.115200
     24 C22         8.6900    0.6960   -1.5150 c3        1 0S6     -0.142400
     25 C23         8.2950    1.1530   -2.8840 c         1 0S6      0.634100
     26 O24         8.2610    0.5130   -3.9340 o         1 0S6     -0.526000
     27 O25         7.9620    2.4810   -2.9210 os        1 0S6     -0.442900
     28 C26         7.6030    3.0160   -4.1960 c3        1 0S6      0.124700
     29 H1          1.8690   -0.7550    2.1020 ha        1 0S6      0.151000
     30 H2          4.3570   -0.6310    2.0580 ha        1 0S6      0.148500
     31 H3          1.7320    0.6810   -1.9880 ha        1 0S6      0.151000
     32 H4          4.2200    0.7830   -2.0340 ha        1 0S6      0.148500
     33 H6          5.0410    3.8870    1.4810 hc        1 0S6      0.055367
     34 H7          3.9870    2.4280    1.7280 hc        1 0S6      0.055367
     35 H8          4.8070    2.6880    0.1320 hc        1 0S6      0.055367
     36 H9          7.3830    3.6410    4.4850 hc        1 0S6      0.053700
     37 H10         6.7470    4.5330    3.0370 hc        1 0S6      0.053700
     38 H11         5.6130    3.5830    4.0840 hc        1 0S6      0.053700
     39 H12        10.2500   -2.1720    3.9800 hc        1 0S6      0.066367
     40 H13         9.5810   -0.4810    3.9730 hc        1 0S6      0.066367
     41 H14         8.4570   -1.9070    4.1300 hc        1 0S6      0.066367
     42 H17         8.0650   -1.3270   -2.0090 h1        1 0S6      0.134700
     43 H18         9.7930    0.4850   -1.5330 hc        1 0S6      0.093200
     44 H19         8.4920    1.5040   -0.7640 hc        1 0S6      0.093200
     45 H20         8.4590    2.9130   -4.9060 h1        1 0S6      0.051700
     46 H21         7.3780    4.0890   -3.9790 h1        1 0S6      0.051700
     47 H22         6.7080    2.4810   -4.5950 h1        1 0S6      0.051700
@<TRIPOS>BOND
     1    1    2 1   
     2    2    3 ar  
     3    2    5 ar  
     4    3    4 ar  
     5    3   29 1   
     6    4    7 ar  
     7    4   30 1   
     8    5    6 ar  
     9    5   31 1   
    10    6    7 ar  
    11    6   32 1   
    12    7    8 1   
    13    8    9 1   
    14    8   22 2   
    15    9   10 1   
    16    9   15 2   
    17   10   11 1   
    18   10   12 2   
    19   11   33 1   
    20   11   34 1   
    21   11   35 1   
    22   12   13 1   
    23   12   14 1   
    24   13   36 1   
    25   13   37 1   
    26   13   38 1   
    27   14   15 1   
    28   15   16 1   
    29   16   17 1   
    30   16   21 1   
    31   17   18 1   
    32   17   19 2   
    33   18   39 1   
    34   18   40 1   
    35   18   41 1   
    36   19   20 1   
    37   20   21 2   
    38   21   23 1   
    39   22   23 1   
    40   23   24 1   
    41   23   42 1   
    42   24   25 1   
    43   24   43 1   
    44   24   44 1   
    45   25   26 2   
    46   25   27 1   
    47   27   28 1   
    48   28   45 1   
    49   28   46 1   
    50   28   47 1   
@<TRIPOS>SUBSTRUCTURE
     1 0S6         1 TEMP              0 ****  ****    0 ROOT
