@<TRIPOS>MOLECULE
0S7
   39    41     1     0     0
SMALL
bcc


@<TRIPOS>ATOM
      1 C1          0.9610    0.8660   -2.1510 c3        1 0S7     -0.121400
      2 C2          1.5930    0.4270   -0.8940 cc        1 0S7      0.323600
      3 C3          2.9010    0.8320   -0.4380 cc        1 0S7     -0.328300
      4 C4          3.0770    0.1540    0.7950 cd        1 0S7      0.106300
      5 N5          4.2150    0.1420    1.6030 nu        1 0S7     -0.713300
      6 C6          4.1990    0.1450    2.9960 ca        1 0S7      0.754200
      7 N7          3.0310   -0.1060    3.6590 nb        1 0S7     -0.833000
      8 C8          3.0840   -0.1570    5.0430 ca        1 0S7      0.925900
      9 N9          1.9030   -0.5100    5.6950 nu        1 0S7     -0.839900
     10 C10         1.7650   -0.3180    7.1200 c3        1 0S7      0.211800
     11 C11         0.3600   -0.6760    7.6200 c3        1 0S7     -0.046100
     12 C12         0.2890   -0.5230    9.0950 ca        1 0S7     -0.201600
     13 C13         0.9320   -1.4270    9.9510 ca        1 0S7     -0.087000
     14 C14         0.8240   -1.2500   11.3300 ca        1 0S7     -0.242300
     15 C15         0.0680   -0.1650   11.8110 ca        1 0S7      0.396200
     16 N16        -0.5600    0.7150   11.0070 nb        1 0S7     -0.661000
     17 C17        -0.4460    0.5310    9.6780 ca        1 0S7      0.400200
     18 N18         4.2340    0.0670    5.8030 nb        1 0S7     -0.768000
     19 C19         5.3510    0.3170    5.1150 ca        1 0S7      0.523200
     20 C20         5.4250    0.3740    3.7110 ca        1 0S7     -0.395500
     21 Br1         7.0410    0.7340    2.8760 br        1 0S7     -0.061100
     22 N22         1.9130   -0.6230    0.9840 na        1 0S7      0.004400
     23 N24         1.0260   -0.4260    0.0130 nd        1 0S7     -0.519800
     24 H1         -0.0730    1.2530   -1.9670 hc        1 0S7      0.049700
     25 H2          1.5710    1.6780   -2.6160 hc        1 0S7      0.049700
     26 H3          0.8920    0.0120   -2.8710 hc        1 0S7      0.049700
     27 H4          3.5900    1.5010   -0.9350 ha        1 0S7      0.166000
     28 H5          5.0400    0.4990    1.1640 hn        1 0S7      0.467800
     29 H6          1.0660   -0.4700    5.1560 hn        1 0S7      0.437800
     30 H7          1.9910    0.7520    7.4020 h1        1 0S7      0.061700
     31 H8          2.5180   -0.9750    7.6430 h1        1 0S7      0.061700
     32 H9         -0.4030   -0.0150    7.1280 hc        1 0S7      0.058200
     33 H10         0.1140   -1.7370    7.3440 hc        1 0S7      0.058200
     34 H11         1.5140   -2.2640    9.5360 ha        1 0S7      0.142000
     35 H12         1.3150   -1.9390   12.0290 ha        1 0S7      0.146000
     36 H13        -0.0440    0.0110   12.8960 h4        1 0S7      0.024100
     37 H14        -0.9730    1.2690    9.0460 h4        1 0S7      0.023100
     38 H15         6.2540    0.4880    5.7340 h4        1 0S7      0.040100
     39 H16         1.6440   -1.0970    1.8170 hn        1 0S7      0.336700
@<TRIPOS>BOND
     1    1    2 1   
     2    1   24 1   
     3    1   25 1   
     4    1   26 1   
     5    2    3 1   
     6    2   23 2   
     7    3    4 2   
     8    3   27 1   
     9    4    5 1   
    10    4   22 1   
    11    5    6 1   
    12    5   28 1   
    13    6    7 ar  
    14    6   20 ar  
    15    7    8 ar  
    16    8    9 1   
    17    8   18 ar  
    18    9   10 1   
    19    9   29 1   
    20   10   11 1   
    21   10   30 1   
    22   10   31 1   
    23   11   12 1   
    24   11   32 1   
    25   11   33 1   
    26   12   13 ar  
    27   12   17 ar  
    28   13   14 ar  
    29   13   34 1   
    30   14   15 ar  
    31   14   35 1   
    32   15   16 ar  
    33   15   36 1   
    34   16   17 ar  
    35   17   37 1   
    36   18   19 ar  
    37   19   20 ar  
    38   19   38 1   
    39   20   21 1   
    40   22   23 1   
    41   22   39 1   
@<TRIPOS>SUBSTRUCTURE
     1 0S7         1 TEMP              0 ****  ****    0 ROOT
