@<TRIPOS>MOLECULE
0S7
   39    32     1     0     0
SMALL
bcc


@<TRIPOS>ATOM
      1 C1         -7.4890   -1.9740   -1.5820 c3        1 0S7     -0.145000
      2 C2         -6.1490   -1.4060   -1.1080 c2        1 0S7     -0.098000
      3 C3         -5.2600   -2.0290   -0.2670 c1        1 0S7     -0.264000
      4 C4         -4.1780   -1.2170   -0.1270 c1        1 0S7      0.051000
      5 N5         -3.0260   -1.4800    0.6800 n2        1 0S7     -0.235000
      6 C6         -1.6930   -1.4420    0.0840 c1        1 0S7      0.235000
      7 N7         -0.9410   -0.3170    0.1780 n1        1 0S7     -0.311000
      8 C8          0.3200   -0.2960   -0.3290 c1        1 0S7      0.213000
      9 N9          1.1120    0.9300   -0.2550 n3        1 0S7     -0.293000
     10 C10         2.4080    0.9030    0.3200 c3        1 0S7     -0.018000
     11 C11         3.2850    1.9540   -0.3450 c3        1 0S7     -0.132000
     12 C12         4.4850    2.2690    0.5690 c2        1 0S7     -0.129000
     13 C13         5.5840    1.4410    0.5750 c2        1 0S7     -0.087000
     14 C14         6.6160    1.6820    1.4440 c1        1 0S7     -0.177000
     15 C15         6.5510    2.7680    2.3210 c1        1 0S7     -0.069000
     16 N16         5.4490    3.5980    2.3130 n1        1 0S7     -0.135000
     17 C17         4.4250    3.3620    1.4550 c1        1 0S7     -0.064000
     18 N18         0.8380   -1.4170   -0.9400 n1        1 0S7     -0.244000
     19 C19         0.0950   -2.5330   -1.0360 c1        1 0S7      0.060000
     20 C20        -1.1860   -2.5530   -0.5200 c1        1 0S7     -0.408000
     21 BR1        -2.2020   -4.1560   -0.5610 br        1 0S7      0.078000
     22 N22        -4.3930   -0.1030   -0.8730 n2        1 0S7     -0.140000
     23 N24        -5.6150   -0.2250   -1.4780 n2        1 0S7     -0.089000
     24 H1         -8.0780   -2.1600   -0.7820 hc        1 0S7      0.089000
     25 H2         -7.9390   -1.3120   -2.1810 hc        1 0S7      0.089000
     26 H3         -7.3310   -2.8210   -2.0840 hc        1 0S7      0.089000
     27 H4         -5.4290   -2.8630    0.2410 DU        1 0S7      0.226000
     28 H5         -3.1320   -1.7300    1.5890 hn        1 0S7      0.264000
     29 H6          0.7480    1.7170   -0.5020 hn        1 0S7      0.238000
     30 H7          2.3410    1.1000    1.3140 h1        1 0S7      0.101000
     31 H8          2.8100    0.0040    0.1860 h1        1 0S7      0.101000
     32 H9          2.7740    2.7530   -0.4890 hc        1 0S7      0.097500
     33 H10         3.6030    1.6200   -1.1900 hc        1 0S7      0.097500
     34 H11         5.6270    0.6750   -0.0430 ha        1 0S7      0.142000
     35 H12         7.4010    1.0920    1.4500 ha        1 0S7      0.146000
     36 H13         7.2990    2.9430    2.9500 ha        1 0S7      0.161000
     37 H14         3.6360    3.9570    1.4520 ha        1 0S7      0.160000
     38 H15         0.4630   -3.3340   -1.4720 ha        1 0S7      0.177000
     39 H16        -3.8270    0.6000   -0.9550 DU        1 0S7      0.226000
@<TRIPOS>BOND
     1    1    2 1   
     2    1   24 1   
     3    1   25 1   
     4    1   26 1   
     5    2    3 1   
     6    2   23 1   
     7    3    4 1   
     8    4   22 1   
     9    5    6 1   
    10    5   28 1   
    11    6    7 1   
    12    8    9 1   
    13    8   18 1   
    14    9   10 1   
    15    9   29 1   
    16   10   11 1   
    17   10   30 1   
    18   10   31 1   
    19   11   12 1   
    20   11   32 1   
    21   11   33 1   
    22   12   13 1   
    23   12   17 1   
    24   13   14 1   
    25   13   34 1   
    26   14   35 1   
    27   15   16 1   
    28   15   36 1   
    29   17   37 1   
    30   19   20 1   
    31   19   38 1   
    32   22   23 1   
@<TRIPOS>SUBSTRUCTURE
     1 0S7         1 TEMP              0 ****  ****    0 ROOT
