@<TRIPOS>MOLECULE
0S7
   39    41     1     0     0
SMALL
bcc


@<TRIPOS>ATOM
      1 C1          0.9960    0.7410   -2.1720 c3        1 0S7     -0.121400
      2 C2          1.6300    0.3390   -0.9030 cc        1 0S7      0.323600
      3 C3          2.9210    0.7910   -0.4410 cc        1 0S7     -0.328300
      4 C4          3.1070    0.1350    0.8020 cd        1 0S7      0.106300
      5 N5          4.2380    0.1700    1.6200 nh        1 0S7     -0.713300
      6 C6          4.2090    0.1900    3.0130 ca        1 0S7      0.754200
      7 N7          3.0430   -0.0900    3.6680 nb        1 0S7     -0.833000
      8 C8          3.0860   -0.1210    5.0530 ca        1 0S7      0.925900
      9 N9          1.9110   -0.5040    5.7000 nh        1 0S7     -0.839900
     10 C10         1.7540   -0.2980    7.1210 c3        1 0S7      0.211800
     11 C11         0.3560   -0.6940    7.6140 c3        1 0S7     -0.046100
     12 C12         0.2670   -0.5250    9.0850 ca        1 0S7     -0.201600
     13 C13         0.9300   -1.3970    9.9590 ca        1 0S7     -0.087000
     14 C14         0.8030   -1.2060   11.3340 ca        1 0S7     -0.242300
     15 C15         0.0090   -0.1390   11.7950 ca        1 0S7      0.396200
     16 N16        -0.6380    0.7100   10.9730 nb        1 0S7     -0.661000
     17 C17        -0.5060    0.5130    9.6490 ca        1 0S7      0.400200
     18 N18         4.2210    0.1490    5.8200 nb        1 0S7     -0.768000
     19 C19         5.3350    0.4250    5.1390 ca        1 0S7      0.523200
     20 C20         5.4200    0.4670    3.7350 ca        1 0S7     -0.395500
     21 BR1         7.0320    0.8680    2.9090 br        1 0S7     -0.061100
     22 N22         1.9660   -0.6760    0.9910 na        1 0S7      0.004400
     23 N24         1.0830   -0.5210    0.0100 nd        1 0S7     -0.519800
     24 H1         -0.0550    1.0850   -2.0040 hc        1 0S7      0.049700
     25 H2          1.5780    1.5740   -2.6360 hc        1 0S7      0.049700
     26 H3          0.9730   -0.1220   -2.8850 hc        1 0S7      0.049700
     27 H4          3.5920    1.4760   -0.9410 ha        1 0S7      0.166000
     28 H5          5.0540    0.5480    1.1830 hn        1 0S7      0.467800
     29 H6          1.0780   -0.4970    5.1530 hn        1 0S7      0.437800
     30 H7          2.5230   -0.9240    7.6590 h1        1 0S7      0.061700
     31 H8          1.9440    0.7820    7.3900 h1        1 0S7      0.061700
     32 H9          0.1470   -1.7660    7.3500 hc        1 0S7      0.058200
     33 H10        -0.4230   -0.0640    7.1060 hc        1 0S7      0.058200
     34 H11         1.5420   -2.2200    9.5610 ha        1 0S7      0.142000
     35 H12         1.3100   -1.8700   12.0470 ha        1 0S7      0.146000
     36 H13        -0.1180    0.0480   12.8760 h4        1 0S7      0.024100
     37 H14        -1.0500    1.2260    9.0020 h4        1 0S7      0.023100
     38 H15         6.2280    0.6330    5.7640 h4        1 0S7      0.040100
     39 H16         1.7050   -1.1480    1.8280 hn        1 0S7      0.336700
@<TRIPOS>BOND
     1    1    2 1   
     2    1   24 1   
     3    1   25 1   
     4    1   26 1   
     5    2    3 1   
     6    2   23 2   
     7    3    4 2   
     8    3   27 1   
     9    4    5 1   
    10    4   22 1   
    11    5    6 1   
    12    5   28 1   
    13    6    7 ar  
    14    6   20 ar  
    15    7    8 ar  
    16    8    9 1   
    17    8   18 ar  
    18    9   10 1   
    19    9   29 1   
    20   10   11 1   
    21   10   30 1   
    22   10   31 1   
    23   11   12 1   
    24   11   32 1   
    25   11   33 1   
    26   12   13 ar  
    27   12   17 ar  
    28   13   14 ar  
    29   13   34 1   
    30   14   15 ar  
    31   14   35 1   
    32   15   16 ar  
    33   15   36 1   
    34   16   17 ar  
    35   17   37 1   
    36   18   19 ar  
    37   19   20 ar  
    38   19   38 1   
    39   20   21 1   
    40   22   23 1   
    41   22   39 1   
@<TRIPOS>SUBSTRUCTURE
     1 0S7         1 TEMP              0 ****  ****    0 ROOT
