@<TRIPOS>MOLECULE
0S7
   39    41     1     0     0
SMALL
bcc


@<TRIPOS>ATOM
      1 C1         -4.3220    5.4920    0.6190 c3        1 0S7     -0.120400
      2 C2         -3.5940    4.2600    0.2640 cc        1 0S7      0.323600
      3 C3         -3.8800    2.9470    0.7880 cc        1 0S7     -0.328300
      4 C4         -2.9400    2.0940    0.1550 cd        1 0S7      0.107300
      5 N5         -2.8470    0.7060    0.2590 nh        1 0S7     -0.714300
      6 C6         -1.6530   -0.0100    0.2920 ca        1 0S7      0.754200
      7 N7         -0.4830    0.6120   -0.0440 nb        1 0S7     -0.835000
      8 C8          0.6660   -0.1620   -0.0570 ca        1 0S7      0.927900
      9 N9          1.8310    0.4680   -0.4900 nh        1 0S7     -0.842900
     10 C10         3.1210   -0.1520   -0.3030 c3        1 0S7      0.214800
     11 C11         4.2740    0.7580   -0.7430 c3        1 0S7     -0.046100
     12 C12         5.5740    0.0810   -0.5150 ca        1 0S7     -0.201600
     13 C13         6.1010   -0.0710    0.7740 ca        1 0S7     -0.088000
     14 C14         7.3340   -0.7020    0.9340 ca        1 0S7     -0.243300
     15 C15         8.0060   -1.1640   -0.2130 ca        1 0S7      0.396200
     16 N16         7.5190   -1.0280   -1.4620 nb        1 0S7     -0.661000
     17 C17         6.3280   -0.4180   -1.6000 ca        1 0S7      0.403200
     18 N18         0.7170   -1.5160    0.2830 nb        1 0S7     -0.768000
     19 C19        -0.4470   -2.0810    0.6100 ca        1 0S7      0.524200
     20 C20        -1.6800   -1.4030    0.6410 ca        1 0S7     -0.396500
     21 BR1        -3.2290   -2.3060    1.1170 br        1 0S7     -0.062100
     22 N22        -2.1890    2.9170   -0.7130 na        1 0S7      0.004400
     23 N24        -2.5470    4.1940   -0.6150 nd        1 0S7     -0.520800
     24 H1         -3.6150    6.3040    0.9190 hc        1 0S7      0.049367
     25 H2         -4.9220    5.8550   -0.2540 hc        1 0S7      0.049367
     26 H3         -5.0160    5.2870    1.4700 hc        1 0S7      0.049367
     27 H4         -4.6470    2.6790    1.5020 ha        1 0S7      0.166000
     28 H5         -3.6450    0.2660    0.6710 hn        1 0S7      0.467800
     29 H6          1.8120    1.4620   -0.5460 hn        1 0S7      0.439800
     30 H7          3.2740   -0.4330    0.7800 h1        1 0S7      0.061700
     31 H8          3.1490   -1.1030   -0.9090 h1        1 0S7      0.061700
     32 H9          4.1600    1.0200   -1.8290 hc        1 0S7      0.058200
     33 H10         4.2490    1.7190   -0.1600 hc        1 0S7      0.058200
     34 H11         5.5460    0.3040    1.6470 ha        1 0S7      0.139000
     35 H12         7.7750   -0.8380    1.9300 ha        1 0S7      0.146000
     36 H13         8.9850   -1.6690   -0.1310 h4        1 0S7      0.024100
     37 H14         5.9560   -0.3210   -2.6360 h4        1 0S7      0.024100
     38 H15        -0.3890   -3.1570    0.8720 h4        1 0S7      0.040100
     39 H16        -1.3520    2.6690   -1.1920 hn        1 0S7      0.336700
@<TRIPOS>BOND
     1    1    2 1   
     2    1   24 1   
     3    1   25 1   
     4    1   26 1   
     5    2    3 1   
     6    2   23 2   
     7    3    4 2   
     8    3   27 1   
     9    4    5 1   
    10    4   22 1   
    11    5    6 1   
    12    5   28 1   
    13    6    7 ar  
    14    6   20 ar  
    15    7    8 ar  
    16    8    9 1   
    17    8   18 ar  
    18    9   10 1   
    19    9   29 1   
    20   10   11 1   
    21   10   30 1   
    22   10   31 1   
    23   11   12 1   
    24   11   32 1   
    25   11   33 1   
    26   12   13 ar  
    27   12   17 ar  
    28   13   14 ar  
    29   13   34 1   
    30   14   15 ar  
    31   14   35 1   
    32   15   16 ar  
    33   15   36 1   
    34   16   17 ar  
    35   17   37 1   
    36   18   19 ar  
    37   19   20 ar  
    38   19   38 1   
    39   20   21 1   
    40   22   23 1   
    41   22   39 1   
@<TRIPOS>SUBSTRUCTURE
     1 0S7         1 TEMP              0 ****  ****    0 ROOT
