@<TRIPOS>MOLECULE
0S7
   41    43     1     0     0
SMALL
bcc


@<TRIPOS>ATOM
      1 C1          0.8290    0.5660   -1.6680 c3        1 0S7     -0.149400
      2 C2          1.9780    0.5150   -0.7460 cc        1 0S7      0.353600
      3 C3          2.0610    1.1740    0.5340 cc        1 0S7     -0.172300
      4 C4          3.3560    0.8500    1.0130 cd        1 0S7     -0.180700
      5 N5          3.9600    1.2610    2.2600 n4        1 0S7     -0.578100
      6 C6          3.9810    0.1690    3.2720 ca        1 0S7      0.543200
      7 N7          2.8120   -0.0670    3.9420 nb        1 0S7     -0.653000
      8 C8          2.8440   -1.0850    4.8510 ca        1 0S7      0.763900
      9 N9          1.5880   -1.3690    5.6030 n4        1 0S7     -0.748700
     10 C10         1.6210   -0.7330    6.9700 c3        1 0S7      0.107800
     11 C11         0.3110   -0.9630    7.7310 c3        1 0S7     -0.037100
     12 C12         0.3790   -0.2090    9.0060 ca        1 0S7     -0.268600
     13 C13         0.5240   -0.8650   10.2380 ca        1 0S7     -0.065000
     14 C14         0.5430   -0.1050   11.4070 ca        1 0S7     -0.225300
     15 C15         0.4200    1.2950   11.3060 ca        1 0S7      0.437200
     16 N16         0.2780    1.9410   10.1310 nb        1 0S7     -0.640000
     17 C17         0.2510    1.1970    9.0120 ca        1 0S7      0.406200
     18 N18         3.9360   -1.8770    5.1500 nb        1 0S7     -0.614000
     19 C19         5.0610   -1.6110    4.4810 ca        1 0S7      0.523200
     20 C20         5.1620   -0.5760    3.5000 ca        1 0S7     -0.224500
     21 BR1         6.7660   -0.2770    2.6290 br        1 0S7      0.101900
     22 N22         3.9500   -0.0000    0.0450 na        1 0S7      0.024400
     23 N24         3.1510   -0.1620   -0.9900 nd        1 0S7     -0.396800
     24 H1          0.5340   -0.4630   -2.0000 hc        1 0S7      0.086033
     25 H2         -0.0440    1.0490   -1.1630 hc        1 0S7      0.086033
     26 H3          1.0910    1.1620   -2.5810 hc        1 0S7      0.086033
     27 H4          1.2970    1.7890    1.0030 ha        1 0S7      0.200000
     28 H5          4.9350    1.5790    2.1020 hn        1 0S7      0.497800
     29 H6          0.7760   -1.0120    5.0770 hn        1 0S7      0.487300
     30 H7          2.4840   -1.1810    7.5410 hx        1 0S7      0.119700
     31 H8          1.7960    0.3720    6.8320 hx        1 0S7      0.119700
     32 H9          0.1640   -2.0580    7.9320 hc        1 0S7      0.079200
     33 H10        -0.5650   -0.6000    7.1270 hc        1 0S7      0.079200
     34 H11         0.6080   -1.9610   10.2860 ha        1 0S7      0.148000
     35 H12         0.6430   -0.5840   12.3920 ha        1 0S7      0.175000
     36 H13         0.4280    1.9360   12.2090 h4        1 0S7      0.056100
     37 H14         0.1030    1.7580    8.0720 h4        1 0S7      0.011100
     38 H15         5.9390   -2.2560    4.7330 h4        1 0S7      0.121100
     39 H16         4.9030   -0.2990   -0.0050 hn        1 0S7      0.352700
     40 H52         3.4010    2.0600    2.6150 hn        1 0S7      0.497800
     41 H92         1.4870   -2.3930    5.7060 hn        1 0S7      0.487300
@<TRIPOS>BOND
     1    1    2 1   
     2    1   24 1   
     3    1   25 1   
     4    1   26 1   
     5    2    3 1   
     6    2   23 2   
     7    3    4 2   
     8    3   27 1   
     9    4    5 1   
    10    4   22 1   
    11    5    6 1   
    12    5   28 1   
    13    5   40 1   
    14    6    7 ar  
    15    6   20 ar  
    16    7    8 ar  
    17    8    9 1   
    18    8   18 ar  
    19    9   10 1   
    20    9   29 1   
    21    9   41 1   
    22   10   11 1   
    23   10   30 1   
    24   10   31 1   
    25   11   12 1   
    26   11   32 1   
    27   11   33 1   
    28   12   13 ar  
    29   12   17 ar  
    30   13   14 ar  
    31   13   34 1   
    32   14   15 ar  
    33   14   35 1   
    34   15   16 ar  
    35   15   36 1   
    36   16   17 ar  
    37   17   37 1   
    38   18   19 ar  
    39   19   20 ar  
    40   19   38 1   
    41   20   21 1   
    42   22   23 1   
    43   22   39 1   
@<TRIPOS>SUBSTRUCTURE
     1 0S7         1 TEMP              0 ****  ****    0 ROOT
