@<TRIPOS>MOLECULE
0S8
   48    50     1     0     0
SMALL
bcc


@<TRIPOS>ATOM
      1 C1          0.0770   -0.0430    0.9320 c3        1 0S8      0.112700
      2 O2          1.3840    0.2780    1.3890 os        1 0S8     -0.436600
      3 C3          2.3820   -0.5720    0.8320 c3        1 0S8      0.129400
      4 C4          3.7120   -0.0320    1.3350 c3        1 0S8     -0.082400
      5 C5          4.8470   -0.9560    0.9440 c3        1 0S8     -0.127700
      6 C6          6.1280   -0.4790    1.5190 cc        1 0S8      0.351600
      7 C7          6.3800   -0.2540    2.9220 cc        1 0S8     -0.168300
      8 C8          7.7240    0.1930    2.9700 cd        1 0S8     -0.179700
      9 N9          8.4730    0.5950    4.1390 n4        1 0S8     -0.578100
     10 C10         8.4560    2.0710    4.3370 ca        1 0S8      0.542200
     11 N11         7.2780    2.6150    4.7700 nb        1 0S8     -0.653000
     12 C12         7.2670    3.9740    4.9090 ca        1 0S8      0.763900
     13 N13         5.9860    4.6000    5.3380 n4        1 0S8     -0.754700
     14 C14         6.1120    5.3110    6.6740 c3        1 0S8      0.126500
     15 C15         4.8260    5.9230    7.0230 cc        1 0S8      0.087000
     16 C16         4.0040    5.9600    8.1270 cd        1 0S8     -0.215600
     17 C17         2.9380    6.9070    7.7540 cd        1 0S8      0.346600
     18 C18         1.8220    7.2980    8.6350 c3        1 0S8     -0.155400
     19 N19         3.1720    7.3430    6.4980 nc        1 0S8     -0.280300
     20 O20         4.2770    6.8000    6.0400 os        1 0S8     -0.145100
     21 N21         8.3290    4.8250    4.6730 nb        1 0S8     -0.612000
     22 C22         9.4660    4.2540    4.2650 ca        1 0S8      0.522200
     23 C23         9.6080    2.8450    4.0660 ca        1 0S8     -0.222500
     24 BR1        11.2210    2.1440    3.4950 br        1 0S8      0.101900
     25 N25         8.1850    0.2530    1.6280 na        1 0S8      0.023400
     26 N27         7.2580   -0.1760    0.7960 nd        1 0S8     -0.394800
     27 H1         -0.1930   -1.0880    1.2220 h1        1 0S8      0.046033
     28 H2          0.0090    0.0790   -0.1770 h1        1 0S8      0.046033
     29 H3         -0.5850    0.6940    1.4510 h1        1 0S8      0.046033
     30 H4          2.2150   -1.6260    1.1800 h1        1 0S8      0.042200
     31 H5          2.3340   -0.5420   -0.2880 h1        1 0S8      0.042200
     32 H6          3.8760    0.9910    0.9050 hc        1 0S8      0.048700
     33 H7          3.6630    0.0740    2.4500 hc        1 0S8      0.048700
     34 H8          4.9120   -1.0250   -0.1770 hc        1 0S8      0.093200
     35 H9          4.6520   -1.9950    1.3310 hc        1 0S8      0.093200
     36 H10         5.6830   -0.4090    3.7430 ha        1 0S8      0.201000
     37 H11         9.4600    0.2850    4.0660 hn        1 0S8      0.496800
     38 H12         5.2410    3.8880    5.3990 hn        1 0S8      0.495800
     39 H13         6.4250    4.5600    7.4540 hx        1 0S8      0.134700
     40 H14         6.9080    6.1110    6.5630 hx        1 0S8      0.134700
     41 H15         4.0810    5.4410    9.0810 ha        1 0S8      0.203000
     42 H16         1.4610    6.4080    9.2080 hc        1 0S8      0.086367
     43 H17         2.1750    8.0760    9.3610 hc        1 0S8      0.086367
     44 H18         0.9650    7.7250    8.0540 hc        1 0S8      0.086367
     45 H19        10.3200    4.9530    4.0790 h4        1 0S8      0.121100
     46 H20         9.1270    0.3710    1.3120 hn        1 0S8      0.353700
     47 H92         8.0340    0.1260    4.9540 hn        1 0S8      0.496800
     48 H132        5.7050    5.3000    4.6250 hn        1 0S8      0.495800
@<TRIPOS>BOND
     1    1    2 1   
     2    1   27 1   
     3    1   28 1   
     4    1   29 1   
     5    2    3 1   
     6    3    4 1   
     7    3   30 1   
     8    3   31 1   
     9    4    5 1   
    10    4   32 1   
    11    4   33 1   
    12    5    6 1   
    13    5   34 1   
    14    5   35 1   
    15    6    7 1   
    16    6   26 2   
    17    7    8 2   
    18    7   36 1   
    19    8    9 1   
    20    8   25 1   
    21    9   10 1   
    22    9   37 1   
    23    9   47 1   
    24   10   11 ar  
    25   10   23 ar  
    26   11   12 ar  
    27   12   13 1   
    28   12   21 ar  
    29   13   14 1   
    30   13   38 1   
    31   13   48 1   
    32   14   15 1   
    33   14   39 1   
    34   14   40 1   
    35   15   16 2   
    36   15   20 1   
    37   16   17 1   
    38   16   41 1   
    39   17   18 1   
    40   17   19 2   
    41   18   42 1   
    42   18   43 1   
    43   18   44 1   
    44   19   20 1   
    45   21   22 ar  
    46   22   23 ar  
    47   22   45 1   
    48   23   24 1   
    49   25   26 1   
    50   25   46 1   
@<TRIPOS>SUBSTRUCTURE
     1 0S8         1 TEMP              0 ****  ****    0 ROOT
