@<TRIPOS>MOLECULE
0S8
   46    40     1     0     0
SMALL
bcc


@<TRIPOS>ATOM
      1 C1         -3.3610    0.8270    7.9130 c3        1 0S8     -0.073000
      2 O2         -3.3480    1.0720    6.4930 os        1 0S8     -0.277000
      3 C3         -3.8380   -0.0600    5.6830 c3        1 0S8     -0.023000
      4 C4         -3.5820    0.2130    4.2170 c3        1 0S8     -0.160000
      5 C5         -4.1250   -0.9390    3.3930 c3        1 0S8     -0.085000
      6 C6         -3.4870   -0.9170    1.9960 c2        1 0S8     -0.106000
      7 C7         -2.6190   -1.8500    1.4860 c1        1 0S8     -0.209000
      8 C8         -2.2350   -1.4290    0.2430 c1        1 0S8      0.006000
      9 N9         -1.3570   -2.1090   -0.6360 n2        1 0S8     -0.190000
     10 C10        -0.0120   -1.6080   -0.8380 c2        1 0S8      0.178000
     11 N11         0.2670   -0.8510   -1.9110 n2        1 0S8     -0.268000
     12 C12         1.5600   -0.4570   -2.1560 c1        1 0S8      0.178000
     13 N13         1.8680    0.2920   -3.3270 n3        1 0S8     -0.251000
     14 C14         2.9640   -0.1470   -4.2090 c3        1 0S8      0.024000
     15 C15         3.8250    1.0620   -4.5860 c2        1 0S8     -0.081000
     16 C16         4.5100    1.2350   -5.7790 c1        1 0S8     -0.200000
     17 C17         5.1380    2.4560   -5.7320 c1        1 0S8     -0.105000
     18 C18         6.0420    3.0530   -6.8160 c2        1 0S8     -0.158000
     19 N19         4.8510    3.0260   -4.5420 n2        1 0S8     -0.016000
     20 O20         4.0320    2.1540   -3.8290 os        1 0S8     -0.071000
     21 N21         2.5540   -0.8320   -1.3160 n1        1 0S8     -0.224000
     22 C22         2.2780   -1.5880   -0.2430 c1        1 0S8      0.037000
     23 C23         0.9870   -1.9840    0.0050 c1        1 0S8     -0.358000
     24 BR1         0.6230   -3.1250    1.4360 br        1 0S8      0.109000
     25 N25        -2.8700   -0.2330   -0.0150 n2        1 0S8     -0.167000
     26 N27        -3.6360    0.0780    1.0630 n2        1 0S8     -0.071000
     27 H1         -2.9150    1.5370    8.3600 h1        1 0S8      0.071000
     28 H2         -4.3490    0.7710    8.2490 h1        1 0S8      0.071000
     29 H3         -2.8790   -0.0600    8.1120 h1        1 0S8      0.071000
     30 H4         -3.3860   -0.8490    5.9380 h1        1 0S8      0.063500
     31 H5         -4.8080   -0.1740    5.8310 h1        1 0S8      0.063500
     32 H6         -4.0470    1.0700    3.9470 hc        1 0S8      0.104500
     33 H7         -2.5800    0.3030    4.0570 hc        1 0S8      0.104500
     34 H8         -3.9240   -1.7460    3.8170 hc        1 0S8      0.092000
     35 H9         -5.0780   -0.8500    3.3080 hc        1 0S8      0.092000
     36 H10        -2.3320   -2.6930    1.9370 DU        1 0S8      0.206667
     37 H11        -1.6460   -2.8040   -1.1000 hn        1 0S8      0.231000
     38 H12         1.3460    1.0530   -3.5580 hn        1 0S8      0.235000
     39 H13         2.5600   -0.5830   -5.0850 h1        1 0S8      0.133500
     40 H14         3.5230   -0.8160   -3.7370 h1        1 0S8      0.133500
     41 H15         4.4840    0.6160   -6.5640 DU        1 0S8      0.206667
     42 H16         6.3430    3.9540   -6.5340 ha        1 0S8      0.099000
     43 H17         5.5460    3.1240   -7.6480 ha        1 0S8      0.099000
     44 H18         6.8840    2.4290   -6.9570 ha        1 0S8      0.099000
     45 H19         3.0200   -1.8670    0.3810 ha        1 0S8      0.180000
     46 H20        -2.7920    0.2470   -0.7490 DU        1 0S8      0.206667
@<TRIPOS>BOND
     1    1    2 1   
     2    1   27 1   
     3    1   28 1   
     4    1   29 1   
     5    2    3 1   
     6    3    4 1   
     7    3   30 1   
     8    3   31 1   
     9    4    5 1   
    10    4   32 1   
    11    4   33 1   
    12    5    6 1   
    13    5   34 1   
    14    5   35 1   
    15    6    7 1   
    16    6   26 1   
    17    7    8 1   
    18    8   25 1   
    19    9   10 1   
    20    9   37 1   
    21   10   11 1   
    22   10   23 1   
    23   11   12 1   
    24   12   13 1   
    25   13   14 1   
    26   13   38 1   
    27   14   15 1   
    28   14   39 1   
    29   14   40 1   
    30   15   16 1   
    31   15   20 1   
    32   16   17 1   
    33   17   19 1   
    34   18   42 1   
    35   18   43 1   
    36   18   44 1   
    37   19   20 1   
    38   21   22 1   
    39   22   45 1   
    40   25   26 1   
@<TRIPOS>SUBSTRUCTURE
     1 0S8         1 TEMP              0 ****  ****    0 ROOT
