@<TRIPOS>MOLECULE
0S8
   46    48     1     0     0
SMALL
bcc


@<TRIPOS>ATOM
      1 C1          6.4020    6.4890   -0.9640 c3        1 0S8      0.116700
      2 O2          5.0290    6.2000   -0.7720 os        1 0S8     -0.421600
      3 C3          4.8070    4.8540   -0.3560 c3        1 0S8      0.127400
      4 C4          3.3070    4.6950   -0.1750 c3        1 0S8     -0.081400
      5 C5          2.9820    3.2730    0.2370 c3        1 0S8     -0.100700
      6 C6          1.5250    3.0560    0.3850 cc        1 0S8      0.311600
      7 C7          0.7540    2.0880   -0.3660 cc        1 0S8     -0.246300
      8 C8         -0.5640    2.2220    0.1160 cd        1 0S8      0.085300
      9 N9         -1.7300    1.5570   -0.2690 nh        1 0S8     -0.713300
     10 C10        -1.8660    0.1690   -0.1760 ca        1 0S8      0.751200
     11 N11        -0.7620   -0.5990    0.0630 nb        1 0S8     -0.788000
     12 C12        -0.9450   -1.9720    0.0830 ca        1 0S8      0.916900
     13 N13         0.1700   -2.7390    0.4340 nh        1 0S8     -0.834900
     14 C14         0.1690   -4.1620    0.1900 c3        1 0S8      0.183500
     15 C15         1.4730   -4.7980    0.4860 cc        1 0S8      0.234000
     16 C16         1.8650   -5.9150    1.1900 cd        1 0S8     -0.338600
     17 C17         3.3200   -5.9680    1.0060 cd        1 0S8      0.321600
     18 C18         4.1960   -7.0060    1.5790 c3        1 0S8     -0.134400
     19 N19         3.6970   -4.9210    0.2420 nc        1 0S8     -0.351300
     20 O20         2.6340   -4.2150   -0.0830 os        1 0S8     -0.126100
     21 N21        -2.1570   -2.6220   -0.1590 nb        1 0S8     -0.775000
     22 C22        -3.2080   -1.8300   -0.3830 ca        1 0S8      0.521200
     23 C23        -3.1550   -0.4240   -0.3980 ca        1 0S8     -0.393500
     24 BR1        -4.6960    0.5650   -0.7040 br        1 0S8     -0.064100
     25 N25        -0.5030    3.2060    1.1470 na        1 0S8     -0.033600
     26 N27         0.7140    3.7280    1.2550 nd        1 0S8     -0.503800
     27 H1          6.8350    5.8350   -1.7610 h1        1 0S8      0.031700
     28 H2          6.4200    7.5610   -1.2830 h1        1 0S8      0.031700
     29 H3          6.9720    6.3540   -0.0120 h1        1 0S8      0.031700
     30 H4          5.1960    4.1510   -1.1410 h1        1 0S8      0.024700
     31 H5          5.3520    4.6620    0.6060 h1        1 0S8      0.024700
     32 H6          2.9480    5.4190    0.6030 hc        1 0S8      0.064200
     33 H7          2.7880    4.9520   -1.1340 hc        1 0S8      0.064200
     34 H8          3.3710    2.5560   -0.5350 hc        1 0S8      0.054200
     35 H9          3.4970    3.0360    1.2080 hc        1 0S8      0.054200
     36 H10         1.1160    1.4010   -1.1210 ha        1 0S8      0.177000
     37 H11        -2.5790    2.0820   -0.2580 hn        1 0S8      0.451800
     38 H12         1.0580   -2.2810    0.4110 hn        1 0S8      0.455800
     39 H13        -0.6170   -4.6420    0.8460 h1        1 0S8      0.079700
     40 H14        -0.0930   -4.3890   -0.8890 h1        1 0S8      0.079700
     41 H15         1.2680   -6.6170    1.7620 ha        1 0S8      0.179000
     42 H16         3.8800   -8.0100    1.2010 hc        1 0S8      0.060367
     43 H17         5.2690   -6.8430    1.3110 hc        1 0S8      0.060367
     44 H18         4.1010   -6.9980    2.6940 hc        1 0S8      0.060367
     45 H19        -4.1650   -2.3600   -0.5660 h4        1 0S8      0.039100
     46 H20        -1.2750    3.6770    1.5590 hn        1 0S8      0.311700
@<TRIPOS>BOND
     1    1    2 1   
     2    1   27 1   
     3    1   28 1   
     4    1   29 1   
     5    2    3 1   
     6    3    4 1   
     7    3   30 1   
     8    3   31 1   
     9    4    5 1   
    10    4   32 1   
    11    4   33 1   
    12    5    6 1   
    13    5   34 1   
    14    5   35 1   
    15    6    7 1   
    16    6   26 2   
    17    7    8 2   
    18    7   36 1   
    19    8    9 1   
    20    8   25 1   
    21    9   10 1   
    22    9   37 1   
    23   10   11 ar  
    24   10   23 ar  
    25   11   12 ar  
    26   12   13 1   
    27   12   21 ar  
    28   13   14 1   
    29   13   38 1   
    30   14   15 1   
    31   14   39 1   
    32   14   40 1   
    33   15   16 2   
    34   15   20 1   
    35   16   17 1   
    36   16   41 1   
    37   17   18 1   
    38   17   19 2   
    39   18   42 1   
    40   18   43 1   
    41   18   44 1   
    42   19   20 1   
    43   21   22 ar  
    44   22   23 ar  
    45   22   45 1   
    46   23   24 1   
    47   25   26 1   
    48   25   46 1   
@<TRIPOS>SUBSTRUCTURE
     1 0S8         1 TEMP              0 ****  ****    0 ROOT
