@<TRIPOS>MOLECULE
0S8
   46    48     1     0     0
SMALL
bcc


@<TRIPOS>ATOM
      1 C1          0.4250   -1.4250   -1.3230 c3        1 0S8      0.116700
      2 O2          1.7880   -1.3450   -0.9470 os        1 0S8     -0.421600
      3 C3          1.9750   -0.6390    0.2790 c3        1 0S8      0.127400
      4 C4          3.4670   -0.6470    0.5630 c3        1 0S8     -0.081400
      5 C5          3.7550    0.1160    1.8400 c3        1 0S8     -0.100700
      6 C6          5.2040    0.1750    2.1390 cc        1 0S8      0.310600
      7 C7          5.9710    1.3950    2.2690 cc        1 0S8     -0.246300
      8 C8          7.2810    0.9690    2.5690 cd        1 0S8      0.085300
      9 N9          8.4410    1.7190    2.7730 nh        1 0S8     -0.713300
     10 C10         8.5500    2.6680    3.7930 ca        1 0S8      0.751200
     11 N11         7.4280    3.0640    4.4640 nb        1 0S8     -0.788000
     12 C12         7.5840    4.0530    5.4210 ca        1 0S8      0.916900
     13 N13         6.4490    4.3710    6.1720 nh        1 0S8     -0.834900
     14 C14         6.4280    5.5770    6.9660 c3        1 0S8      0.183500
     15 C15         5.1070    5.8370    7.5830 cc        1 0S8      0.234000
     16 C16         4.6810    6.1710    8.8500 cd        1 0S8     -0.338600
     17 C17         3.2290    6.3330    8.7140 cd        1 0S8      0.321600
     18 C18         2.3240    6.6970    9.8190 c3        1 0S8     -0.134400
     19 N19         2.8850    6.0900    7.4320 nc        1 0S8     -0.351300
     20 O20         3.9680    5.7990    6.7390 os        1 0S8     -0.126100
     21 N21         8.7880    4.6940    5.7200 nb        1 0S8     -0.775000
     22 C22         9.8580    4.2710    5.0420 ca        1 0S8      0.521200
     23 C23         9.8320    3.2550    4.0690 ca        1 0S8     -0.393500
     24 BR1        11.3960    2.7450    3.2110 br        1 0S8     -0.064100
     25 N25         7.2190   -0.4530    2.6510 na        1 0S8     -0.033600
     26 N27         6.0100   -0.9100    2.3410 nd        1 0S8     -0.503800
     27 H1         -0.0040   -0.4040   -1.4770 h1        1 0S8      0.031700
     28 H2         -0.1680   -1.9720   -0.5490 h1        1 0S8      0.031700
     29 H3          0.4340   -1.9950   -2.2860 h1        1 0S8      0.031700
     30 H4          1.4060   -1.1520    1.1000 h1        1 0S8      0.024700
     31 H5          1.5890    0.4100    0.1700 h1        1 0S8      0.024700
     32 H6          3.8230   -1.7060    0.6510 hc        1 0S8      0.064200
     33 H7          4.0110   -0.1820   -0.2990 hc        1 0S8      0.064200
     34 H8          3.2160   -0.3710    2.6990 hc        1 0S8      0.054200
     35 H9          3.3680    1.1670    1.7510 hc        1 0S8      0.054200
     36 H10         5.6110    2.4130    2.1750 ha        1 0S8      0.177000
     37 H11         9.3000    1.3290    2.4450 hn        1 0S8      0.451800
     38 H12         5.5710    4.0510    5.8190 hn        1 0S8      0.455800
     39 H13         7.1930    5.4800    7.7930 h1        1 0S8      0.079700
     40 H14         6.7050    6.4800    6.3410 h1        1 0S8      0.079700
     41 H15         5.2550    6.2930    9.7620 ha        1 0S8      0.179000
     42 H16         2.6220    7.6940   10.2310 hc        1 0S8      0.060367
     43 H17         2.4050    5.9350   10.6330 hc        1 0S8      0.060367
     44 H18         1.2580    6.7530    9.4860 hc        1 0S8      0.060367
     45 H19        10.8080    4.7840    5.2960 h4        1 0S8      0.039100
     46 H20         7.9910   -1.0790    2.6560 hn        1 0S8      0.312700
@<TRIPOS>BOND
     1    1    2 1   
     2    1   27 1   
     3    1   28 1   
     4    1   29 1   
     5    2    3 1   
     6    3    4 1   
     7    3   30 1   
     8    3   31 1   
     9    4    5 1   
    10    4   32 1   
    11    4   33 1   
    12    5    6 1   
    13    5   34 1   
    14    5   35 1   
    15    6    7 1   
    16    6   26 2   
    17    7    8 2   
    18    7   36 1   
    19    8    9 1   
    20    8   25 1   
    21    9   10 1   
    22    9   37 1   
    23   10   11 ar  
    24   10   23 ar  
    25   11   12 ar  
    26   12   13 1   
    27   12   21 ar  
    28   13   14 1   
    29   13   38 1   
    30   14   15 1   
    31   14   39 1   
    32   14   40 1   
    33   15   16 2   
    34   15   20 1   
    35   16   17 1   
    36   16   41 1   
    37   17   18 1   
    38   17   19 2   
    39   18   42 1   
    40   18   43 1   
    41   18   44 1   
    42   19   20 1   
    43   21   22 ar  
    44   22   23 ar  
    45   22   45 1   
    46   23   24 1   
    47   25   26 1   
    48   25   46 1   
@<TRIPOS>SUBSTRUCTURE
     1 0S8         1 TEMP              0 ****  ****    0 ROOT
