@<TRIPOS>MOLECULE
0S8
   46    48     1     0     0
SMALL
bcc


@<TRIPOS>ATOM
      1 C1         -0.1190   -0.1760    0.2350 c3        1 0S8      0.116700
      2 O2          1.2360    0.2360    0.2200 os        1 0S8     -0.419600
      3 C3          2.0490   -0.5260    1.1110 c3        1 0S8      0.127400
      4 C4          3.4580    0.0290    0.9980 c3        1 0S8     -0.081400
      5 C5          4.3930   -0.7450    1.9050 c3        1 0S8     -0.100700
      6 C6          5.7710   -0.2030    1.8820 cc        1 0S8      0.312600
      7 C7          6.5080    0.2250    3.0530 cc        1 0S8     -0.248300
      8 C8          7.7590    0.6470    2.5590 cd        1 0S8      0.086300
      9 N9          8.8770    1.1300    3.2410 nu        1 0S8     -0.710300
     10 C10         8.8190    2.2390    4.0890 ca        1 0S8      0.751200
     11 N11         7.6040    2.7320    4.4710 nb        1 0S8     -0.787000
     12 C12         7.6060    3.7760    5.3820 ca        1 0S8      0.916900
     13 N13         6.3560    4.1900    5.8510 nu        1 0S8     -0.833900
     14 C14         6.2340    5.4470    6.5530 c3        1 0S8      0.182500
     15 C15         4.8320    5.7830    6.8920 cc        1 0S8      0.234000
     16 C16         4.1920    6.2150    8.0330 cd        1 0S8     -0.338600
     17 C17         2.7980    6.4070    7.6170 cd        1 0S8      0.320600
     18 C18         1.7190    6.8710    8.5060 c3        1 0S8     -0.134400
     19 N19         2.6900    6.0870    6.3100 nc        1 0S8     -0.349300
     20 O20         3.8690    5.7190    5.8530 os        1 0S8     -0.125100
     21 N21         8.7520    4.3880    5.8920 nb        1 0S8     -0.774000
     22 C22         9.9170    3.8830    5.4810 ca        1 0S8      0.521200
     23 C23        10.0430    2.8080    4.5820 ca        1 0S8     -0.393500
     24 Br1        11.7240    2.1990    4.0870 br        1 0S8     -0.065100
     25 N25         7.6870    0.5030    1.1410 na        1 0S8     -0.034600
     26 N27         6.5400   -0.0530    0.7630 nd        1 0S8     -0.504800
     27 H1         -0.5600   -0.0460    1.2550 h1        1 0S8      0.031367
     28 H2         -0.2120   -1.2430   -0.0840 h1        1 0S8      0.031367
     29 H3         -0.6250    0.4990   -0.4990 h1        1 0S8      0.031367
     30 H4          2.0160   -1.6090    0.8160 h1        1 0S8      0.023700
     31 H5          1.6570   -0.4230    2.1580 h1        1 0S8      0.023700
     32 H6          3.4540    1.1140    1.2760 hc        1 0S8      0.066200
     33 H7          3.8000   -0.0400   -0.0670 hc        1 0S8      0.066200
     34 H8          4.0150   -0.7060    2.9620 hc        1 0S8      0.052200
     35 H9          4.4130   -1.8250    1.5920 hc        1 0S8      0.052200
     36 H10         6.1630    0.2360    4.0800 ha        1 0S8      0.179000
     37 H11         9.7730    0.9320    2.8450 hn        1 0S8      0.450800
     38 H12         5.5580    3.8950    5.3250 hn        1 0S8      0.455800
     39 H13         6.6590    6.2980    5.9380 h1        1 0S8      0.079700
     40 H14         6.8250    5.3840    7.5140 h1        1 0S8      0.079700
     41 H15         4.5910    6.3830    9.0270 ha        1 0S8      0.179000
     42 H16         1.9700    7.8910    8.8950 hc        1 0S8      0.060367
     43 H17         0.7350    6.9220    7.9790 hc        1 0S8      0.060367
     44 H18         1.6250    6.1710    9.3740 hc        1 0S8      0.060367
     45 H19        10.8170    4.3780    5.8970 h4        1 0S8      0.039100
     46 H20         8.4530    0.5170    0.5080 hn        1 0S8      0.311700
@<TRIPOS>BOND
     1    1    2 1   
     2    1   27 1   
     3    1   28 1   
     4    1   29 1   
     5    2    3 1   
     6    3    4 1   
     7    3   30 1   
     8    3   31 1   
     9    4    5 1   
    10    4   32 1   
    11    4   33 1   
    12    5    6 1   
    13    5   34 1   
    14    5   35 1   
    15    6    7 1   
    16    6   26 2   
    17    7    8 2   
    18    7   36 1   
    19    8    9 1   
    20    8   25 1   
    21    9   10 1   
    22    9   37 1   
    23   10   11 ar  
    24   10   23 ar  
    25   11   12 ar  
    26   12   13 1   
    27   12   21 ar  
    28   13   14 1   
    29   13   38 1   
    30   14   15 1   
    31   14   39 1   
    32   14   40 1   
    33   15   16 2   
    34   15   20 1   
    35   16   17 1   
    36   16   41 1   
    37   17   18 1   
    38   17   19 2   
    39   18   42 1   
    40   18   43 1   
    41   18   44 1   
    42   19   20 1   
    43   21   22 ar  
    44   22   23 ar  
    45   22   45 1   
    46   23   24 1   
    47   25   26 1   
    48   25   46 1   
@<TRIPOS>SUBSTRUCTURE
     1 0S8         1 TEMP              0 ****  ****    0 ROOT
