@<TRIPOS>MOLECULE
0S9
   49    38     1     0     0
SMALL
bcc


@<TRIPOS>ATOM
      1 C26         5.7550    7.2680    0.8990 c1        1 0S9     -0.130000
      2 C25         5.2640    7.2110   -0.4010 c1        1 0S9     -0.130000
      3 C27         4.9840    6.7940    1.9540 c1        1 0S9     -0.130000
      4 C24         4.0020    6.6810   -0.6450 c1        1 0S9     -0.130000
      5 C28         3.7220    6.2630    1.7100 c1        1 0S9     -0.126000
      6 C3         -4.0270   -6.9770   -1.9310 c1        1 0S9     -0.205000
      7 C17         0.0440    2.4670   -0.5890 c1        1 0S9     -0.217000
      8 C11        -1.1970   -2.2850    2.0430 c1        1 0S9      0.041000
      9 C23         3.2310    6.2070    0.4110 c1        1 0S9     -0.073000
     10 C12        -0.7010   -1.1440    1.4740 c1        1 0S9     -0.368000
     11 C2         -4.5480   -8.1020   -1.3200 c1        1 0S9     -0.100000
     12 C18         0.7980    3.4270    0.0320 c1        1 0S9     -0.046500
     13 C4         -3.0240   -6.4860   -1.1290 c1        1 0S9     -0.058000
     14 C16        -0.0040    1.3710    0.2310 c1        1 0S9     -0.046500
     15 C13        -0.6580   -1.0230    0.1120 c2        1 0S9      0.181000
     16 C9         -1.5990   -3.1640   -0.0960 c1        1 0S9      0.193000
     17 C1         -5.6270   -9.1420   -1.5870 c2        1 0S9     -0.159000
     18 C22         1.7870    5.7000    0.3600 c2        1 0S9     -0.102500
     19 C21         1.7010    4.4960   -0.5850 c2        1 0S9     -0.102500
     20 C7         -2.0280   -5.3360   -1.2180 c2        1 0S9      0.042000
     21 N10        -1.6420   -3.2860    1.2640 n1        1 0S9     -0.222000
     22 N6         -3.8770   -8.2980   -0.1640 n2        1 0S9     -0.013000
     23 N14        -1.1040   -2.0270   -0.6660 n1        1 0S9     -0.283000
     24 N20         0.7130    1.6520    1.3460 n2        1 0S9     -0.122000
     25 N19         1.2110    2.9300    1.2220 n2        1 0S9     -0.122000
     26 N15        -0.0490    0.1310   -0.4860 n2        1 0S9     -0.190000
     27 N8         -2.2040   -4.4630   -0.0960 n3        1 0S9     -0.279000
     28 O5         -2.9250   -7.2900   -0.0420 os        1 0S9     -0.069000
     29 BR1        -0.9250   -0.2860    3.1710 br        1 0S9      0.105000
     30 H1          6.6460    7.6420    1.0710 ha        1 0S9      0.130250
     31 H2          5.8080    7.5460   -1.1460 ha        1 0S9      0.130250
     32 H3          5.3300    6.8340    2.8710 ha        1 0S9      0.130250
     33 H4          3.6560    6.6410   -1.5620 ha        1 0S9      0.130250
     34 H5          3.1780    5.9290    2.4550 ha        1 0S9      0.133000
     35 H6         -4.3050   -6.6110   -2.7980 DU        1 0S9      0.205667
     36 H7         -0.3870    2.5490   -1.4680 DU        1 0S9      0.205667
     37 H8         -1.2280   -2.3720    3.0200 ha        1 0S9      0.182000
     38 H9         -5.2090  -10.0210   -1.7170 ha        1 0S9      0.100333
     39 H10        -6.2400   -9.1820   -0.8210 ha        1 0S9      0.100333
     40 H11        -6.1280   -8.8950   -2.3940 ha        1 0S9      0.100333
     41 H12         1.5030    5.4300    1.2600 ha        1 0S9      0.097750
     42 H13         1.2000    6.4160    0.0310 ha        1 0S9      0.097750
     43 H14         1.3280    4.7820   -1.4480 ha        1 0S9      0.097750
     44 H15         2.6000    4.1240   -0.7240 ha        1 0S9      0.097750
     45 H16        -2.1790   -4.8350   -2.0490 h4        1 0S9      0.118000
     46 H17        -1.1120   -5.6940   -1.2140 h4        1 0S9      0.118000
     47 H18         0.8430    1.0910    2.0580 DU        1 0S9      0.205667
     48 H19         0.3200    0.0720   -1.3250 hn        1 0S9      0.228000
     49 H20        -2.6990   -4.7380    0.6260 hn        1 0S9      0.254000
@<TRIPOS>BOND
     1    1    3 1   
     2    1   30 1   
     3    2    4 1   
     4    2   31 1   
     5    3   32 1   
     6    4   33 1   
     7    5    9 1   
     8    5   34 1   
     9    6   11 1   
    10    6   13 1   
    11    7   12 1   
    12    7   14 1   
    13    8   10 1   
    14    8   37 1   
    15   10   15 1   
    16   11   22 1   
    17   12   25 1   
    18   13   28 1   
    19   14   24 1   
    20   15   23 1   
    21   15   26 1   
    22   16   21 1   
    23   16   27 1   
    24   17   38 1   
    25   17   39 1   
    26   17   40 1   
    27   18   19 1   
    28   18   41 1   
    29   18   42 1   
    30   19   43 1   
    31   19   44 1   
    32   20   27 1   
    33   20   45 1   
    34   20   46 1   
    35   22   28 1   
    36   24   25 1   
    37   26   48 1   
    38   27   49 1   
@<TRIPOS>SUBSTRUCTURE
     1 0S9         1 TEMP              0 ****  ****    0 ROOT
