@<TRIPOS>MOLECULE
0S9
   49    52     1     0     0
SMALL
bcc


@<TRIPOS>ATOM
      1 C26         7.7980   -2.6140   -0.2480 ca        1 0S9     -0.134000
      2 C25         7.1150   -3.8250   -0.1370 ca        1 0S9     -0.129000
      3 C27         7.1190   -1.4130   -0.0450 ca        1 0S9     -0.129000
      4 C24         5.7570   -3.8360    0.1760 ca        1 0S9     -0.127000
      5 C28         5.7600   -1.4220    0.2670 ca        1 0S9     -0.127000
      6 C3          0.4700    5.9620   -0.5990 cc        1 0S9     -0.338600
      7 C17         0.3410   -2.1650   -0.8250 cc        1 0S9     -0.247300
      8 C11        -4.1390    1.1080   -0.4560 ca        1 0S9      0.521200
      9 C23         5.0690   -2.6340    0.3790 ca        1 0S9     -0.079300
     10 C12        -3.8800   -0.2750   -0.4680 ca        1 0S9     -0.393500
     11 C2          1.8180    6.2090   -0.0750 cc        1 0S9      0.321600
     12 C18         1.3240   -3.0000   -0.1680 cc        1 0S9      0.310600
     13 C4          0.1050    4.7540   -0.0470 cd        1 0S9      0.234000
     14 C16        -0.8840   -2.4990   -0.2140 cd        1 0S9      0.085300
     15 C13        -2.4990   -0.6670   -0.4000 ca        1 0S9      0.751200
     16 C9         -1.8780    1.5950   -0.3400 ca        1 0S9      0.916900
     17 C22         3.6200   -2.6510    0.7240 c3        1 0S9     -0.036100
     18 C21         2.7710   -3.0090   -0.4850 c3        1 0S9     -0.098700
     19 N10        -3.1960    2.0510   -0.3900 nb        1 0S9     -0.774000
     20 N6          2.1690    5.1750    0.7180 nd        1 0S9     -0.350300
     21 N14        -1.5010    0.2620   -0.3170 nb        1 0S9     -0.788000
     22 N20        -0.5690   -3.4560    0.7960 na        1 0S9     -0.034600
     23 N19         0.7190   -3.7870    0.7700 nd        1 0S9     -0.508800
     24 N15        -2.1730   -2.0240   -0.4680 nh        1 0S9     -0.711300
     25 N8         -0.8400    2.5300   -0.3720 nh        1 0S9     -0.833900
     26 O5          1.1820    4.3030    0.7590 os        1 0S9     -0.126100
     27 H1          8.8700   -2.6060   -0.4940 ha        1 0S9      0.129000
     28 H2          7.6490   -4.7740   -0.2950 ha        1 0S9      0.129500
     29 H3          7.6540   -0.4570   -0.1310 ha        1 0S9      0.129500
     30 H4          5.2190   -4.7920    0.2660 ha        1 0S9      0.132500
     31 H5          5.2280   -0.4720    0.4280 ha        1 0S9      0.132500
     32 H6         -0.0830    6.6100   -1.2710 ha        1 0S9      0.179000
     33 H7          0.5150   -1.4310   -1.6030 ha        1 0S9      0.180000
     34 H8         -5.1800    1.4870   -0.4980 h4        1 0S9      0.039100
     35 H9          2.0860    8.3180   -0.0580 hc        1 0S9      0.060367
     36 H10         3.6260    7.3700    0.1160 hc        1 0S9      0.060367
     37 H11         2.7910    7.4570   -1.4950 hc        1 0S9      0.060367
     38 H12         3.4420   -3.4000    1.5420 hc        1 0S9      0.058700
     39 H13         3.3040   -1.6470    1.1170 hc        1 0S9      0.058700
     40 H14         3.0700   -4.0240   -0.8620 hc        1 0S9      0.057200
     41 H15         2.9590   -2.2720   -1.3110 hc        1 0S9      0.057200
     42 H16        -1.6530    4.0330    0.9020 h1        1 0S9      0.080200
     43 H17        -1.7950    4.3250   -0.8980 h1        1 0S9      0.080200
     44 H18        -1.2130   -4.0490    1.2660 hn        1 0S9      0.310700
     45 H19        -2.9290   -2.6620   -0.3330 hn        1 0S9      0.450800
     46 H20         0.0710    2.1990   -0.1270 hn        1 0S9      0.454800
     47 BR1        -5.2820   -1.4860   -0.5620 br        1 0S9     -0.064100
     48 C7         -1.1180    3.9200   -0.0900 c3        1 0S9      0.182500
     49 C1          2.6290    7.3980   -0.3900 c3        1 0S9     -0.134400
@<TRIPOS>BOND
     1    1    2 ar  
     2    1    3 ar  
     3    1   27 1   
     4    2    4 ar  
     5    2   28 1   
     6    3    5 ar  
     7    3   29 1   
     8    4    9 ar  
     9    4   30 1   
    10    5    9 ar  
    11    5   31 1   
    12    6   11 1   
    13    6   13 2   
    14    6   32 1   
    15    7   12 1   
    16    7   14 2   
    17    7   33 1   
    18    8   10 ar  
    19    8   19 ar  
    20    8   34 1   
    21    9   17 1   
    22   10   15 ar  
    23   10   47 1   
    24   11   20 2   
    25   11   49 1   
    26   12   18 1   
    27   12   23 2   
    28   13   26 1   
    29   13   48 1   
    30   14   22 1   
    31   14   24 1   
    32   15   21 ar  
    33   15   24 1   
    34   16   19 ar  
    35   16   21 ar  
    36   16   25 1   
    37   17   18 1   
    38   17   38 1   
    39   17   39 1   
    40   18   40 1   
    41   18   41 1   
    42   20   26 1   
    43   22   23 1   
    44   22   44 1   
    45   24   45 1   
    46   25   46 1   
    47   25   48 1   
    48   35   49 1   
    49   36   49 1   
    50   37   49 1   
    51   42   48 1   
    52   43   48 1   
@<TRIPOS>SUBSTRUCTURE
     1 0S9         1 TEMP              0 ****  ****    0 ROOT
