@<TRIPOS>MOLECULE
0S9
   51    51     1     0     0
SMALL
bcc


@<TRIPOS>ATOM
      1 C26       208.7580  628.1780 -601.3460 c1        1 0S9     -0.255000
      2 C25       209.0600  628.9650 -600.4860 c1        1 0S9     -0.002000
      3 C27       208.3590  627.2770 -602.3850 c3        1 0S9     -0.091000
      4 C24       207.9460  626.9620 -599.5500 c1        1 0S9      0.005000
      5 C28       207.6740  626.0960 -601.8450 c2        1 0S9      0.192000
      6 C3        -79.0480 -239.7800  239.4220 c2        1 0S9     -0.145000
      7 C17       -76.9320 -242.4000  232.7880 c2        1 0S9     -0.140000
      8 C11       -77.0050 -241.8420  234.0250 c2        1 0S9      0.084000
      9 C23       207.5580  625.9100 -600.4530 c2        1 0S9     -0.236000
     10 C12       -77.1810 -242.6450  235.2450 c2        1 0S9     -0.225000
     11 C2        -80.0110 -238.6680  239.3410 c2        1 0S9     -0.078000
     12 C18       -78.1730 -244.2150  230.7470 c1        1 0S9     -0.145000
     13 C4        -78.1250 -239.5040  238.4400 c2        1 0S9     -0.128000
     14 C16       -76.7290 -241.6860  231.5010 c2        1 0S9      0.146000
     15 C13       -77.1360 -242.0430  236.4640 c2        1 0S9      0.010000
     16 C9        -76.8530 -239.8590  235.4770 cz        1 0S9      0.374000
     17 C22       206.8940  624.7930 -599.9770 c2        1 0S9      0.073000
     18 C21       -79.0150 -245.0340  231.3150 c2        1 0S9     -0.158000
     19 N10       -76.9220 -240.4410  234.2310 na        1 0S9     -0.243000
     20 N6        -79.6250 -237.8350  238.3540 n2        1 0S9      0.016000
     21 N14       -76.9110 -240.6670  236.6250 na        1 0S9     -0.217000
     22 N20       -76.6180 -242.5290  230.3400 n3        1 0S9     -0.254000
     23 N19       -77.4110 -243.5510  229.9940 n2        1 0S9      0.019000
     24 N15       -76.5640 -240.3960  231.4970 n2        1 0S9     -0.361000
     25 N8        -76.6810 -238.5000  235.5720 nh        1 0S9     -0.334000
     26 O5        -78.5170 -238.2940  237.8050 os        1 0S9     -0.110000
     27 H1        209.2530  626.9420 -603.0060 hc        1 0S9      0.199000
     28 H2        208.8340  626.8680 -598.9160 ha        1 0S9      0.124000
     29 H3        207.6690  627.8030 -603.1240 hc        1 0S9      0.199000
     30 H4        209.3250  629.6680 -599.7260 ha        1 0S9      0.265000
     31 H5        207.2610  625.3560 -602.5570 ha        1 0S9      0.180000
     32 H6        -79.0960 -240.6070  240.1250 ha        1 0S9      0.192000
     33 H7        -77.0030 -243.5030  232.7210 ha        1 0S9      0.193000
     34 H8        -76.8070 -239.8760  233.3890 hn        1 0S9      0.326000
     35 H9        -81.7740 -239.4740  240.2190 hc        1 0S9      0.115333
     36 H10       -81.8560 -237.6890  239.8840 hc        1 0S9      0.115333
     37 H11       -80.8480 -238.3080  241.2630 hc        1 0S9      0.115333
     38 H12       206.4170  624.0640 -600.6530 ha        1 0S9      0.173500
     39 H13       -80.0970 -244.8360  231.3260 ha        1 0S9      0.156000
     40 H14       -78.6820 -245.9730  231.7800 ha        1 0S9      0.156000
     41 H15       206.7950  624.5970 -598.8950 ha        1 0S9      0.173500
     42 H16       -76.0290 -239.3530  238.0290 h1        1 0S9      0.147500
     43 H17       -76.5950 -240.9580  238.6790 h1        1 0S9      0.147500
     44 H18       -76.3630 -242.0370  229.4930 hn        1 0S9      0.245000
     45 H19       -77.2600 -242.6020  237.4140 h4        1 0S9      0.202000
     46 H20       -76.6590 -237.9420  234.7450 hn        1 0S9      0.281500
     47 C7        -76.8640 -240.1150  237.9730 c3        1 0S9      0.040000
     48 H152      -76.4130 -239.9350  230.6280 hn        1 0S9      0.182000
     49 H82       -76.8390 -238.0260  236.4380 hn        1 0S9      0.281500
     50 BR1       -77.4640 -244.4800  235.1530 br        1 0S9      0.163000
     51 C1        -81.1870 -238.5220  240.2170 c3        1 0S9     -0.172000
@<TRIPOS>BOND
     1    1    2 1   
     2    1    3 1   
     3    2   30 1   
     4    3    5 1   
     5    3   27 1   
     6    3   29 1   
     7    4    9 1   
     8    4   28 1   
     9    5    9 1   
    10    5   31 1   
    11    6   11 1   
    12    6   13 1   
    13    6   32 1   
    14    7    8 1   
    15    7   14 1   
    16    7   33 1   
    17    8   10 1   
    18    8   19 1   
    19    9   17 1   
    20   10   15 1   
    21   10   50 1   
    22   11   20 1   
    23   11   51 1   
    24   12   18 1   
    25   12   23 1   
    26   13   26 1   
    27   13   47 1   
    28   14   22 1   
    29   14   24 1   
    30   15   21 1   
    31   15   45 1   
    32   16   19 1   
    33   16   21 1   
    34   16   25 1   
    35   17   38 1   
    36   17   41 1   
    37   18   39 1   
    38   18   40 1   
    39   19   34 1   
    40   20   26 1   
    41   21   47 1   
    42   22   23 1   
    43   22   44 1   
    44   24   48 1   
    45   25   46 1   
    46   25   49 1   
    47   35   51 1   
    48   36   51 1   
    49   37   51 1   
    50   42   47 1   
    51   43   47 1   
@<TRIPOS>SUBSTRUCTURE
     1 0S9         1 TEMP              0 ****  ****    0 ROOT
