@<TRIPOS>MOLECULE
0SB
   49    52     1     0     0
SMALL
bcc


@<TRIPOS>ATOM
      1 C1         -3.2720   -0.4310   -0.5940 ca        1 0SB      0.133600
      2 C2         -2.3220    0.4430   -0.0090 ca        1 0SB     -0.118000
      3 C3         -4.0930    0.0740   -1.6250 ca        1 0SB     -0.172000
      4 C4         -2.2090    1.7630   -0.4450 cp        1 0SB     -0.131500
      5 C5         -3.9710    1.3960   -2.0460 ca        1 0SB     -0.109000
      6 C6         -3.0340    2.2450   -1.4690 ca        1 0SB     -0.143000
      7 C7         -1.2260    2.6750    0.1770 cp        1 0SB      0.499800
      8 C11        -0.7040    4.8570    1.0670 ca        1 0SB     -0.066000
      9 C12         0.5850    4.4100    1.3310 ca        1 0SB     -0.278300
     10 C15         2.4840    0.6880   -0.2590 ca        1 0SB     -0.172300
     11 C17         2.9510   -0.6130   -0.4300 ca        1 0SB     -0.120300
     12 C18         3.6950   -0.6000    1.8470 ca        1 0SB      0.417200
     13 C19         3.5720   -1.2840    0.6250 ca        1 0SB     -0.224300
     14 C27        -2.3950   -3.8730    0.7240 c3        1 0SB      0.148300
     15 F23         3.7920   -2.1850   -2.0920 f         1 0SB     -0.233967
     16 C20         2.7780   -1.3130   -1.7750 c3        1 0SB      0.687200
     17 F21         1.6410   -2.0790   -1.8630 f         1 0SB     -0.233967
     18 F22         2.7050   -0.4720   -2.8570 f         1 0SB     -0.233967
     19 N16         3.2480    0.6450    2.0620 nb        1 0SB     -0.691000
     20 C14         2.6470    1.3010    1.0180 ca        1 0SB      0.621200
     21 C10         0.9230    3.0650    0.9890 ca        1 0SB      0.623200
     22 N8          0.0190    2.2080    0.4300 nb        1 0SB     -0.706000
     23 C9         -1.6290    3.9940    0.4830 ca        1 0SB     -0.264300
     24 N24        -3.4190   -1.7420   -0.0740 nh        1 0SB     -0.634000
     25 C26        -4.5630   -2.4980   -0.5540 c3        1 0SB      0.147800
     26 C28        -4.7290   -3.8440    0.1880 c3        1 0SB      0.148300
     27 N29        -3.5280   -4.6500    0.2660 n3        1 0SB     -0.796200
     28 C25        -2.1920   -2.5250   -0.0030 c3        1 0SB      0.147800
     29 H1         -1.6710    0.0900    0.8060 ha        1 0SB      0.151000
     30 H2         -4.8430   -0.5640   -2.1160 ha        1 0SB      0.134000
     31 H3         -4.6210    1.7670   -2.8530 ha        1 0SB      0.132000
     32 H4         -2.9340    3.2830   -1.8190 ha        1 0SB      0.136000
     33 H5         -0.9910    5.8890    1.3200 ha        1 0SB      0.142000
     34 H6          1.3270    5.0800    1.7850 ha        1 0SB      0.148000
     35 H7          2.6550    3.0810    2.0260 hn        1 0SB      0.429800
     36 H8          2.0030    1.2250   -1.0910 ha        1 0SB      0.181000
     37 H9          4.1780   -1.0840    2.7160 h4        1 0SB      0.032100
     38 H10         3.9560   -2.3060    0.5050 ha        1 0SB      0.162000
     39 H11        -2.5420   -3.6760    1.8230 h1        1 0SB      0.061200
     40 H12        -1.4560   -4.4790    0.5960 h1        1 0SB      0.061200
     41 H13        -2.6560    4.3200    0.2710 ha        1 0SB      0.152000
     42 H14        -5.4880   -1.8830   -0.3750 h1        1 0SB      0.042450
     43 H15        -4.4890   -2.7060   -1.6620 h1        1 0SB      0.042450
     44 H16        -5.0690   -3.6400    1.2420 h1        1 0SB      0.061200
     45 H17        -5.5330   -4.4310   -0.3350 h1        1 0SB      0.061200
     46 H18        -3.3260   -5.0510   -0.6330 hn        1 0SB      0.349800
     47 H20        -1.4200   -1.9360    0.5650 h1        1 0SB      0.042450
     48 H21        -1.7800   -2.7250   -1.0350 h1        1 0SB      0.042450
     49 N13         2.2680    2.6590    1.2010 nh        1 0SB     -0.809600
@<TRIPOS>BOND
     1    1    2 ar  
     2    1    3 ar  
     3    1   24 1   
     4    2    4 ar  
     5    2   29 1   
     6    3    5 ar  
     7    3   30 1   
     8    4    6 ar  
     9    4    7 1   
    10    5    6 ar  
    11    5   31 1   
    12    6   32 1   
    13    7   22 ar  
    14    7   23 ar  
    15    8    9 ar  
    16    8   23 ar  
    17    8   33 1   
    18    9   21 ar  
    19    9   34 1   
    20   10   11 ar  
    21   10   20 ar  
    22   10   36 1   
    23   11   13 ar  
    24   11   16 1   
    25   12   13 ar  
    26   12   19 ar  
    27   12   37 1   
    28   13   38 1   
    29   14   27 1   
    30   14   28 1   
    31   14   39 1   
    32   14   40 1   
    33   15   16 1   
    34   16   17 1   
    35   16   18 1   
    36   19   20 ar  
    37   20   49 1   
    38   21   22 ar  
    39   21   49 1   
    40   23   41 1   
    41   24   25 1   
    42   24   28 1   
    43   25   26 1   
    44   25   42 1   
    45   25   43 1   
    46   26   27 1   
    47   26   44 1   
    48   26   45 1   
    49   27   46 1   
    50   28   47 1   
    51   28   48 1   
    52   35   49 1   
@<TRIPOS>SUBSTRUCTURE
     1 0SB         1 TEMP              0 ****  ****    0 ROOT
