@<TRIPOS>MOLECULE
0SB
   50    51     1     0     0
SMALL
bcc


@<TRIPOS>ATOM
      1 C1         -0.0830    0.6410    0.4180 c2        1 0SB      0.192000
      2 C2          1.3510    0.7030    0.2970 c2        1 0SB     -0.246000
      3 C3         -0.6730   -0.2180    1.5040 c3        1 0SB     -0.170000
      4 C4          2.1780    0.0410    1.1650 c2        1 0SB      0.161000
      5 C5          0.3040   -0.8810    2.3880 c2        1 0SB     -0.088000
      6 C6          1.6370   -0.7600    2.2370 c2        1 0SB     -0.163000
      7 C7          3.6460    0.1290    1.0360 c2        1 0SB     -0.011000
      8 C11         5.8110    0.3660    2.0640 c2        1 0SB     -0.060000
      9 C12         6.3810    0.3220    0.8030 c2        1 0SB     -0.177000
     10 C15         5.3740    0.4260   -3.9080 c2        1 0SB     -0.128000
     11 C17         4.7510   -0.0300   -5.1350 c2        1 0SB     -0.422000
     12 C18         3.6930   -1.9280   -2.9130 c2        1 0SB     -0.072000
     13 C19         3.6620   -0.8000   -5.1450 c1        1 0SB      0.262000
     14 C27        -0.0930    1.3880   -2.7750 c3        1 0SB     -0.121000
     15 F23         6.6560   -0.0770   -6.6460 f         1 0SB     -0.150333
     16 C20         5.4200    0.4670   -6.4200 c3        1 0SB      0.501000
     17 F21         4.7050    0.2040   -7.5610 f         1 0SB     -0.150333
     18 F22         5.6210    1.8240   -6.4430 f         1 0SB     -0.150333
     19 N16         4.8960   -1.6140   -2.6110 n2        1 0SB     -0.156000
     20 C14         5.4040   -0.2940   -2.7450 c2        1 0SB      0.056000
     21 C10         5.5250    0.1850   -0.3410 c2        1 0SB      0.123000
     22 N8          4.1700    0.0820   -0.2170 n2        1 0SB     -0.181000
     23 C9          4.4210    0.2640    2.2010 c2        1 0SB     -0.173000
     24 N24        -0.9070    1.3300   -0.3860 n3        1 0SB     -0.121000
     25 C26        -2.3420    1.1590   -0.2760 c3        1 0SB     -0.120000
     26 C28        -1.4170    0.3180   -4.4230 c2        1 0SB     -0.075000
     27 N29        -1.1820    0.5440   -3.1890 n2        1 0SB     -0.232000
     28 C25        -0.4230    2.1640   -1.4810 c3        1 0SB     -0.057000
     29 H1          1.7980    1.2880   -0.5260 ha        1 0SB      0.180000
     30 H2         -1.3660    0.4090    2.1440 hc        1 0SB      0.165500
     31 H3         -1.3180   -1.0170    1.0230 hc        1 0SB      0.165500
     32 H4         -0.1320   -1.5000    3.1920 ha        1 0SB      0.171000
     33 H5          3.9530    0.3030    3.1940 ha        1 0SB      0.155000
     34 H6          6.4460    0.4760    2.9580 ha        1 0SB      0.162000
     35 H7          7.4720    0.3960    0.6780 ha        1 0SB      0.165000
     36 H8          5.8840    1.4040   -3.9810 ha        1 0SB      0.177000
     37 H9          2.8640   -1.2370   -3.1820 h4        1 0SB      0.136500
     38 H10         3.4200   -2.9990   -2.8530 h4        1 0SB      0.136500
     39 H11         0.8090    0.7360   -2.5890 h1        1 0SB      0.107500
     40 H12         0.2010    2.1660   -3.5390 h1        1 0SB      0.107500
     41 H13         2.3440   -1.2790    2.9080 ha        1 0SB      0.177000
     42 H14        -2.6890    1.5120    0.7330 h1        1 0SB      0.124667
     43 H15        -2.8650    1.7520   -1.0740 h1        1 0SB      0.124667
     44 H16        -2.6130    0.0750   -0.4110 h1        1 0SB      0.124667
     45 H17        -2.2570   -0.3610   -4.6670 h4        1 0SB      0.133500
     46 H18        -0.8630    0.7280   -5.2910 h4        1 0SB      0.133500
     47 H20        -1.2180    2.9360   -1.6980 h1        1 0SB      0.130000
     48 H21         0.5030    2.7150   -1.1510 h1        1 0SB      0.130000
     49 N13         6.1040    0.2660   -1.6260 nh        1 0SB     -0.212000
     50 H132        7.0820    0.0380   -1.6340 hn        1 0SB      0.232000
@<TRIPOS>BOND
     1    1    2 1   
     2    1    3 1   
     3    1   24 1   
     4    2    4 1   
     5    2   29 1   
     6    3    5 1   
     7    3   30 1   
     8    3   31 1   
     9    4    6 1   
    10    4    7 1   
    11    5    6 1   
    12    5   32 1   
    13    6   41 1   
    14    7   22 1   
    15    7   23 1   
    16    8    9 1   
    17    8   23 1   
    18    8   34 1   
    19    9   21 1   
    20    9   35 1   
    21   10   11 1   
    22   10   20 1   
    23   10   36 1   
    24   11   13 1   
    25   11   16 1   
    26   12   19 1   
    27   12   37 1   
    28   12   38 1   
    29   14   27 1   
    30   14   28 1   
    31   14   39 1   
    32   14   40 1   
    33   15   16 1   
    34   16   17 1   
    35   16   18 1   
    36   19   20 1   
    37   20   49 1   
    38   21   22 1   
    39   21   49 1   
    40   23   33 1   
    41   24   25 1   
    42   24   28 1   
    43   25   42 1   
    44   25   43 1   
    45   25   44 1   
    46   26   27 1   
    47   26   45 1   
    48   26   46 1   
    49   28   47 1   
    50   28   48 1   
    51   49   50 1   
@<TRIPOS>SUBSTRUCTURE
     1 0SB         1 TEMP              0 ****  ****    0 ROOT
