@<TRIPOS>MOLECULE
0SB
   49    49     1     0     0
SMALL
bcc


@<TRIPOS>ATOM
      1 C1          0.7850    0.5170    0.7760 c2        1 0SB     -0.054000
      2 C2          2.0980    0.1560    0.6000 c2        1 0SB     -0.093000
      3 C3          0.2590    1.0320    2.1200 c3        1 0SB     -0.135000
      4 C4          3.0290    0.4750    1.6870 c2        1 0SB     -0.008000
      5 C5          1.1340    0.5200    3.2250 c2        1 0SB     -0.086000
      6 C6          2.4080    0.4800    2.8690 c1        1 0SB     -0.207000
      7 C7          4.4420    0.9150    1.4470 c3        1 0SB      0.004000
      8 C11         6.4660   -0.0900    2.4930 c2        1 0SB     -0.253000
      9 C12         6.9370   -0.5140    1.2220 c1        1 0SB     -0.026000
     10 C15         6.5990   -0.1330   -3.5690 c2        1 0SB     -0.196000
     11 C17         5.9530   -0.2540   -4.8620 c2        1 0SB     -0.405000
     12 C18         3.6530   -0.3580   -2.7620 c2        1 0SB     -0.069000
     13 C19         4.6500   -0.0170   -5.0190 c1        1 0SB      0.255000
     14 C27        -4.6320    2.1460   -3.6320 c2        1 0SB     -0.118000
     15 F23         7.3160   -1.9360   -5.9730 f         1 0SB     -0.159667
     16 C20         6.8770   -0.6370   -6.0150 c3        1 0SB      0.500000
     17 F21         6.3110   -0.5110   -7.2610 f         1 0SB     -0.159667
     18 F22         8.0250    0.1110   -6.0880 f         1 0SB     -0.159667
     19 N16         4.6750   -0.9860   -2.3130 n2        1 0SB     -0.155000
     20 C14         5.9870   -0.4390   -2.3780 c2        1 0SB      0.099000
     21 C10         6.1110   -0.0620    0.0660 c2        1 0SB      0.038000
     22 N8          4.9450    0.5480    0.1450 n2        1 0SB     -0.212000
     23 C9          5.2790    0.5460    2.6410 c2        1 0SB     -0.033000
     24 N24        -0.1110    0.3900   -0.3060 n2        1 0SB     -0.155000
     25 C26        -2.5170   -0.5730   -3.9370 c3        1 0SB     -0.209000
     26 C28        -3.9020   -0.1070   -3.5140 c3        1 0SB     -0.108000
     27 N29        -3.9300    1.2570   -3.0470 n2        1 0SB     -0.194000
     28 C25        -1.1350    1.1430   -0.4460 c2        1 0SB     -0.101000
     29 H1          2.4820   -0.2550   -0.3440 ha        1 0SB      0.169000
     30 H2          0.2050    2.1520    2.0760 hc        1 0SB      0.115000
     31 H3         -0.7790    0.6450    2.3030 hc        1 0SB      0.115000
     32 H4          0.6920    0.1310    4.1460 ha        1 0SB      0.156000
     33 H5          4.8540    0.8190    3.6210 ha        1 0SB      0.158000
     34 H6          7.0910   -0.3410    3.3670 ha        1 0SB      0.160000
     35 H7          7.5400   -0.8820   -1.1140 hn        1 0SB      0.252000
     36 H8          7.6510    0.1950   -3.6010 ha        1 0SB      0.167000
     37 H9          3.6170    0.6890   -3.1300 h4        1 0SB      0.140500
     38 H10         2.6820   -0.8900   -2.7350 h4        1 0SB      0.140500
     39 H11        -5.2640    2.0060   -4.5300 h4        1 0SB      0.110500
     40 H12        -4.6250    3.1690   -3.2110 h4        1 0SB      0.110500
     41 H13         4.4230    2.0620    1.4280 h1        1 0SB      0.160000
     42 H14        -2.1530    0.0020   -4.8220 hc        1 0SB      0.083000
     43 H15        -2.5710   -1.6540   -4.2120 hc        1 0SB      0.083000
     44 H16        -1.7790   -0.4530   -3.1070 hc        1 0SB      0.083000
     45 H17        -4.6170   -0.2970   -4.3690 h1        1 0SB      0.080500
     46 H18        -4.2450   -0.7400   -2.6440 h1        1 0SB      0.080500
     47 H20        -1.7850    0.9600   -1.3250 h4        1 0SB      0.128500
     48 H21        -1.4460    1.9720    0.2190 h4        1 0SB      0.128500
     49 N13         6.7320   -0.2920   -1.1790 n7        1 0SB     -0.223000
@<TRIPOS>BOND
     1    1    2 1   
     2    1    3 1   
     3    1   24 1   
     4    2    4 1   
     5    2   29 1   
     6    3    5 1   
     7    3   30 1   
     8    3   31 1   
     9    4    6 1   
    10    4    7 1   
    11    5    6 1   
    12    5   32 1   
    13    7   22 1   
    14    7   23 1   
    15    7   41 1   
    16    8    9 1   
    17    8   23 1   
    18    8   34 1   
    19    9   21 1   
    20   10   11 1   
    21   10   20 1   
    22   10   36 1   
    23   11   13 1   
    24   11   16 1   
    25   12   19 1   
    26   12   37 1   
    27   12   38 1   
    28   14   27 1   
    29   14   39 1   
    30   14   40 1   
    31   15   16 1   
    32   16   17 1   
    33   16   18 1   
    34   19   20 1   
    35   20   49 1   
    36   21   22 1   
    37   21   49 1   
    38   23   33 1   
    39   24   28 1   
    40   25   26 1   
    41   25   42 1   
    42   25   43 1   
    43   25   44 1   
    44   26   27 1   
    45   26   45 1   
    46   26   46 1   
    47   28   47 1   
    48   28   48 1   
    49   35   49 1   
@<TRIPOS>SUBSTRUCTURE
     1 0SB         1 TEMP              0 ****  ****    0 ROOT
