@<TRIPOS>MOLECULE
0SB
   49    43     1     0     0
SMALL
bcc


@<TRIPOS>ATOM
      1 C1         -3.2270   -0.8120   -0.8510 c1        1 0SB     -0.001000
      2 C2         -1.8380   -0.8220   -0.9040 c2        1 0SB     -0.092000
      3 C3         -3.8680   -0.6080    0.3540 c1        1 0SB     -0.143000
      4 C4         -1.0750   -0.6190    0.2890 c1        1 0SB     -0.043000
      5 C5         -3.1160   -0.4090    1.5280 c1        1 0SB     -0.112500
      6 C6         -1.7090   -0.4180    1.4740 c1        1 0SB     -0.112500
      7 C7          0.4530   -0.5770    0.2240 c2        1 0SB      0.046000
      8 C11         2.5250   -1.6900   -0.1950 c1        1 0SB     -0.088000
      9 C12         3.1980   -0.5570    0.2050 c1        1 0SB     -0.162500
     10 N13         3.1880    1.8030    0.9350 n3        1 0SB     -0.216000
     11 C15         5.4870    2.3930    1.5000 c1        1 0SB     -0.162500
     12 C17         6.4910    2.5000    2.4430 c1        1 0SB     -0.088000
     13 C18         5.0900    1.3760    4.0340 c1        1 0SB     -0.032000
     14 C19         6.3000    1.9970    3.7040 c1        1 0SB     -0.179000
     15 C27        -5.8160   -0.2960   -3.5010 c3        1 0SB     -0.076000
     16 F23         7.8050    4.3620    2.6660 f         1 0SB     -0.161333
     17 C20         7.7550    3.1550    2.0960 c2        1 0SB      0.464000
     18 F21         8.7630    2.4220    2.5290 f         1 0SB     -0.161333
     19 F22         7.8400    3.2880    0.7370 f         1 0SB     -0.161333
     20 N16         4.0920    1.2700    3.0960 n1        1 0SB     -0.162000
     21 C14         4.2800    1.7740    1.8320 c1        1 0SB      0.100000
     22 C10         2.4820    0.5750    0.6180 c1        1 0SB      0.100000
     23 N8          1.1250    0.5530    0.6230 n1        1 0SB     -0.174000
     24 C9          1.1710   -1.7110   -0.1890 c2        1 0SB     -0.179000
     25 N24        -3.9920   -1.0980   -2.0290 n2        1 0SB     -0.224000
     26 C26        -4.6900   -2.3260   -1.8660 c3        1 0SB     -0.066000
     27 C28        -5.6400   -2.6220   -3.0510 c3        1 0SB     -0.076000
     28 N29        -6.5130   -1.5210   -3.3410 n3        1 0SB     -0.300000
     29 C25        -4.8690    0.0030   -2.3170 c3        1 0SB     -0.066000
     30 H1         -1.4030   -0.9600   -1.7180 ha        1 0SB      0.149000
     31 H2         -4.8620   -0.6000    0.3920 ha        1 0SB      0.137000
     32 H3         -3.5700   -0.2650    2.3800 ha        1 0SB      0.141500
     33 H4         -1.1770   -0.2760    2.3080 ha        1 0SB      0.141500
     34 H5          3.0070   -2.4530   -0.4730 ha        1 0SB      0.142000
     35 H6          4.1730   -0.5420    0.2020 ha        1 0SB      0.162000
     36 H7          2.9590    2.6290    0.4740 hn        1 0SB      0.225000
     37 H8          5.6280    2.7660    0.5630 ha        1 0SB      0.162000
     38 H9          4.9530    1.0130    4.9490 ha        1 0SB      0.170000
     39 H10         6.9920    2.0690    4.3570 ha        1 0SB      0.164000
     40 H11        -5.2840   -0.3350   -4.3310 h1        1 0SB      0.074750
     41 H12        -6.4700    0.4310   -3.5750 h1        1 0SB      0.074750
     42 H13         0.6780   -2.5410   -0.4840 ha        1 0SB      0.151000
     43 H14        -5.2170   -2.2890   -1.0350 h1        1 0SB      0.081500
     44 H15        -4.0390   -3.0540   -1.7950 h1        1 0SB      0.081500
     45 H16        -6.2110   -3.4420   -2.8200 h1        1 0SB      0.074750
     46 H17        -5.0900   -2.8260   -3.8650 h1        1 0SB      0.074750
     47 H18        -7.0160   -1.7100   -4.1340 hn        1 0SB      0.159000
     48 H20        -5.4230    0.2040   -1.5020 h1        1 0SB      0.081500
     49 H21        -4.3240    0.7950   -2.5370 h1        1 0SB      0.081500
@<TRIPOS>BOND
     1    1    2 1   
     2    1    3 1   
     3    2    4 1   
     4    2   30 1   
     5    3   31 1   
     6    4    7 1   
     7    5    6 1   
     8    5   32 1   
     9    6   33 1   
    10    7   23 1   
    11    7   24 1   
    12    8   24 1   
    13    8   34 1   
    14    9   22 1   
    15    9   35 1   
    16   10   21 1   
    17   10   22 1   
    18   10   36 1   
    19   11   21 1   
    20   11   37 1   
    21   12   14 1   
    22   13   20 1   
    23   13   38 1   
    24   14   39 1   
    25   15   28 1   
    26   15   29 1   
    27   15   40 1   
    28   15   41 1   
    29   16   17 1   
    30   17   18 1   
    31   17   19 1   
    32   24   42 1   
    33   25   26 1   
    34   25   29 1   
    35   26   27 1   
    36   26   43 1   
    37   26   44 1   
    38   27   28 1   
    39   27   45 1   
    40   27   46 1   
    41   28   47 1   
    42   29   48 1   
    43   29   49 1   
@<TRIPOS>SUBSTRUCTURE
     1 0SB         1 TEMP              0 ****  ****    0 ROOT
