@<TRIPOS>MOLECULE
0SB
   49    50     1     0     0
SMALL
bcc


@<TRIPOS>ATOM
      1 C1          0.3360    0.3850   -1.0240 c1        1 0SB     -0.138000
      2 C2          1.6050    0.2730   -0.6710 c2        1 0SB      0.107000
      3 C3         -0.8310   -0.1660    2.5370 c2        1 0SB     -0.430000
      4 C4          2.0580    0.6110    0.6550 c2        1 0SB     -0.122000
      5 C5         -0.0230    0.8620    2.1960 c2        1 0SB     -0.007000
      6 C6          1.2430    0.7790    1.6780 c1        1 0SB     -0.350000
      7 C7          3.5610    0.7330    0.8890 c3        1 0SB      0.001000
      8 C11         4.9640   -1.0610    1.9010 c2        1 0SB     -0.278000
      9 C12         5.7310   -1.1590    0.7210 c1        1 0SB     -0.064000
     10 C15         7.0650    0.2440   -3.6350 c2        1 0SB     -0.259000
     11 C17         6.9540    0.7140   -5.0010 c2        1 0SB     -0.383000
     12 C18         4.4530    1.8040   -3.5340 c2        1 0SB     -0.070000
     13 C19         6.1700    1.7440   -5.3210 c1        1 0SB      0.230000
     14 C27        -2.6850    1.0250   -2.8770 c3        1 0SB     -0.092500
     15 F23         7.3610   -1.2920   -6.3150 f         1 0SB     -0.160667
     16 C20         7.8140   -0.0320   -6.0170 c3        1 0SB      0.498000
     17 F21         7.9130    0.5880   -7.2390 f         1 0SB     -0.160667
     18 F22         9.1160   -0.2180   -5.6260 f         1 0SB     -0.160667
     19 N16         4.7010    0.6140   -3.1310 n2        1 0SB     -0.147000
     20 C14         6.0170    0.2300   -2.7370 c2        1 0SB      0.136000
     21 C10         5.3610   -0.1890   -0.3510 c2        1 0SB      0.045000
     22 N8          4.3700    0.6760   -0.3010 n2        1 0SB     -0.227000
     23 C9          3.9190   -0.1950    2.0110 c2        1 0SB      0.006000
     24 N24        -0.9210    0.3620   -1.2100 n3        1 0SB      0.012000
     25 C26        -1.7540   -0.7470   -0.7210 c3        1 0SB     -0.112500
     26 C28        -3.2100   -0.6520   -1.2200 c3        1 0SB     -0.092500
     27 N29        -3.3680   -0.2200   -2.5890 n3        1 0SB     -0.282000
     28 C25        -1.6380    1.4760   -1.8350 c3        1 0SB     -0.112500
     29 H1          2.3230   -0.0920   -1.4350 ha        1 0SB      0.200000
     30 H2         -0.5400   -1.2120    2.4090 ha        1 0SB      0.098000
     31 H3         -1.7790    0.0020    3.0550 ha        1 0SB      0.098000
     32 H4         -0.3540    1.9030    2.4000 ha        1 0SB      0.123000
     33 H5          3.2690   -0.1240    2.9010 ha        1 0SB      0.175000
     34 H6          5.2280   -1.7360    2.7320 ha        1 0SB      0.155000
     35 H7          6.9620   -0.9450   -1.3470 hn        1 0SB      0.266000
     36 H8          8.0570   -0.1480   -3.3580 ha        1 0SB      0.163000
     37 H9          5.1380    2.6790   -3.5130 h4        1 0SB      0.135500
     38 H10         3.4310    2.0100   -3.9030 h4        1 0SB      0.135500
     39 H11        -2.1970    0.9730   -3.8900 h1        1 0SB      0.111750
     40 H12        -3.4680    1.8370   -2.9160 h1        1 0SB      0.111750
     41 H13         3.7250    1.7910    1.2910 h1        1 0SB      0.159000
     42 H14        -1.7350   -0.7160    0.4150 h1        1 0SB      0.134750
     43 H15        -1.2870   -1.7130   -1.0590 h1        1 0SB      0.134750
     44 H16        -3.7730    0.0710   -0.5640 h1        1 0SB      0.111750
     45 H17        -3.6780   -1.6690   -1.0990 h1        1 0SB      0.111750
     46 H18        -3.0720   -0.9400   -3.2230 hn        1 0SB      0.164000
     47 H20        -2.1560    2.0370   -1.0040 h1        1 0SB      0.134750
     48 H21        -0.8980    2.1670   -2.3260 h1        1 0SB      0.134750
     49 N13         6.2480   -0.2500   -1.4430 n3        1 0SB     -0.242000
@<TRIPOS>BOND
     1    1    2 1   
     2    1   24 1   
     3    2    4 1   
     4    2   29 1   
     5    3    5 1   
     6    3   30 1   
     7    3   31 1   
     8    4    6 1   
     9    4    7 1   
    10    5    6 1   
    11    5   32 1   
    12    7   22 1   
    13    7   23 1   
    14    7   41 1   
    15    8    9 1   
    16    8   23 1   
    17    8   34 1   
    18    9   21 1   
    19   10   11 1   
    20   10   20 1   
    21   10   36 1   
    22   11   13 1   
    23   11   16 1   
    24   12   19 1   
    25   12   37 1   
    26   12   38 1   
    27   14   27 1   
    28   14   28 1   
    29   14   39 1   
    30   14   40 1   
    31   15   16 1   
    32   16   17 1   
    33   16   18 1   
    34   19   20 1   
    35   20   49 1   
    36   21   22 1   
    37   21   49 1   
    38   23   33 1   
    39   24   25 1   
    40   24   28 1   
    41   25   26 1   
    42   25   42 1   
    43   25   43 1   
    44   26   27 1   
    45   26   44 1   
    46   26   45 1   
    47   27   46 1   
    48   28   47 1   
    49   28   48 1   
    50   35   49 1   
@<TRIPOS>SUBSTRUCTURE
     1 0SB         1 TEMP              0 ****  ****    0 ROOT
