@<TRIPOS>MOLECULE
0SC
   70    64     1     0     0
SMALL
bcc


@<TRIPOS>ATOM
      1 F           1.3340   -4.0680    5.0950 f         1 0SC     -0.100000
      2 C24         1.5980   -2.8850    5.6800 c2        1 0SC      0.102000
      3 C23         2.1950   -3.0870    6.9240 c1        1 0SC     -0.158000
      4 C22         2.5170   -1.9820    7.7390 c1        1 0SC     -0.107000
      5 C21         2.2350   -0.6660    7.2930 c1        1 0SC     -0.023000
      6 N5          2.4380    0.5560    7.8650 n1        1 0SC     -0.215000
      7 C20         1.9750    1.5160    6.9940 c1        1 0SC     -0.075000
      8 C19         1.4850    0.8780    5.8780 c1        1 0SC     -0.188000
      9 C18         1.6430   -0.4670    6.0580 c1        1 0SC     -0.032000
     10 C17         1.3190   -1.5780    5.2380 c2        1 0SC     -0.016000
     11 C16         0.7870   -1.5810    3.7840 c1        1 0SC      0.104000
     12 N4          1.7750   -1.6550    2.8360 n1        1 0SC     -0.157000
     13 C13         1.4520   -1.6350    1.5090 c1        1 0SC     -0.012000
     14 C12         2.4400   -1.6550    0.5700 c1        1 0SC     -0.111500
     15 C11         2.1210   -1.5780   -0.7700 c1        1 0SC     -0.111500
     16 N3         -0.5330   -1.4860    3.4010 n1        1 0SC     -0.216000
     17 C15        -0.8570   -1.4650    2.0930 c1        1 0SC      0.171000
     18 N6         -2.3080   -1.5420    1.6770 n3        1 0SC     -0.210000
     19 C28        -2.9810   -2.4610    2.4980 c3        1 0SC     -0.087500
     20 C27        -4.4950   -2.4870    2.2360 c3        1 0SC     -0.026000
     21 O1         -5.0730   -1.1950    2.2850 os        1 0SC     -0.274000
     22 C26        -4.3860   -0.2540    1.4530 c3        1 0SC     -0.026000
     23 C25        -2.8920   -0.2310    1.7220 c3        1 0SC     -0.087500
     24 C14         0.1470   -1.5400    1.1270 c1        1 0SC     -0.089000
     25 N2         -0.1790   -1.4640   -0.2260 n1        1 0SC     -0.108000
     26 C10         0.8000   -1.4830   -1.1600 c1        1 0SC     -0.014000
     27 C9          0.5090   -1.4470   -2.6570 c3        1 0SC     -0.027000
     28 N1          0.6520   -0.0760   -3.1530 n3        1 0SC     -0.256000
     29 C6         -0.6940    0.5420   -3.2690 c3        1 0SC     -0.067500
     30 C5         -0.6510    1.9250   -3.9310 c3        1 0SC     -0.153500
     31 C7          1.3980   -0.0920   -4.4580 c3        1 0SC     -0.067500
     32 C8          1.4470    1.2870   -5.1200 c3        1 0SC     -0.153500
     33 C4          0.0920    1.9110   -5.2420 c3        1 0SC     -0.085000
     34 C2          0.2610    3.3870   -5.7420 c3        1 0SC      0.080000
     35 O2          1.1680    4.0320   -4.9500 oh        1 0SC     -0.323000
     36 C3          0.7650    3.3810   -7.2120 c3        1 0SC     -0.243000
     37 C1         -1.0750    4.1040   -5.6680 c3        1 0SC     -0.243000
     38 H1          2.4170   -3.9790    7.2110 ha        1 0SC      0.148000
     39 H2          2.9370   -2.1240    8.6150 ha        1 0SC      0.138000
     40 H3          2.8140    0.7090    8.6810 DU        1 0SC      0.194667
     41 H4          2.0110    2.5020    7.1360 DU        1 0SC      0.194667
     42 H5          1.0920    1.3100    5.0950 DU        1 0SC      0.194667
     43 H6          3.3810   -1.7210    0.8480 ha        1 0SC      0.161000
     44 H7          2.8280   -1.5930   -1.4410 ha        1 0SC      0.161000
     45 H8         -2.6040   -3.3810    2.3360 h1        1 0SC      0.100000
     46 H9         -2.8280   -2.2180    3.4240 h1        1 0SC      0.100000
     47 H10        -4.6590   -2.8720    1.3550 h1        1 0SC      0.095750
     48 H11        -4.9230   -3.0530    2.9150 h1        1 0SC      0.095750
     49 H12        -4.7640    0.6680    1.6200 h1        1 0SC      0.095750
     50 H13        -4.5370   -0.4950    0.5040 h1        1 0SC      0.095750
     51 H14        -2.4460    0.3470    1.0350 h1        1 0SC      0.100000
     52 H15        -2.7370    0.1510    2.6040 h1        1 0SC      0.100000
     53 H16         1.1370   -2.0290   -3.1250 h1        1 0SC      0.093000
     54 H17        -0.4190   -1.7620   -2.8210 h1        1 0SC      0.093000
     55 H19        -1.2700   -0.0520   -3.8110 h1        1 0SC      0.070000
     56 H20        -1.0920    0.6320   -2.3510 h1        1 0SC      0.070000
     57 H21        -1.5900    2.2380   -4.0910 hc        1 0SC      0.096500
     58 H22        -0.2020    2.5600   -3.3160 hc        1 0SC      0.096500
     59 H23         2.3370   -0.4020   -4.2920 h1        1 0SC      0.070000
     60 H24         0.9520   -0.7310   -5.0750 h1        1 0SC      0.070000
     61 H25         1.8390    1.1930   -6.0310 hc        1 0SC      0.096500
     62 H26         2.0330    1.8890   -4.5730 hc        1 0SC      0.096500
     63 H27        -0.4300    1.4130   -5.8970 hc        1 0SC      0.084000
     64 H28         1.7490    4.4270   -5.4440 ho        1 0SC      0.197000
     65 H29         1.1620    4.2550   -7.4280 hc        1 0SC      0.082500
     66 H30         1.4480    2.6700   -7.3240 hc        1 0SC      0.082500
     67 H31         0.0140    3.2090   -7.8120 hc        1 0SC      0.082500
     68 H32        -1.2820    4.3150   -4.7280 hc        1 0SC      0.082500
     69 H33        -1.0320    4.9330   -6.1860 hc        1 0SC      0.082500
     70 H34        -1.7690    3.5320   -6.0310 hc        1 0SC      0.082500
@<TRIPOS>BOND
     1    1    2 1   
     2    2    3 1   
     3    2   10 1   
     4    3   38 1   
     5    4    5 1   
     6    4   39 1   
     7    6    7 1   
     8    7    8 1   
     9    8    9 1   
    10    9   10 1   
    11   10   11 1   
    12   11   16 1   
    13   12   13 1   
    14   13   24 1   
    15   14   15 1   
    16   14   43 1   
    17   15   44 1   
    18   17   18 1   
    19   17   24 1   
    20   18   19 1   
    21   18   23 1   
    22   19   20 1   
    23   19   45 1   
    24   19   46 1   
    25   20   21 1   
    26   20   47 1   
    27   20   48 1   
    28   21   22 1   
    29   22   23 1   
    30   22   49 1   
    31   22   50 1   
    32   23   51 1   
    33   23   52 1   
    34   25   26 1   
    35   26   27 1   
    36   27   28 1   
    37   27   53 1   
    38   27   54 1   
    39   28   29 1   
    40   28   31 1   
    41   29   30 1   
    42   29   55 1   
    43   29   56 1   
    44   30   33 1   
    45   30   57 1   
    46   30   58 1   
    47   31   32 1   
    48   31   59 1   
    49   31   60 1   
    50   32   33 1   
    51   32   61 1   
    52   32   62 1   
    53   33   34 1   
    54   33   63 1   
    55   34   35 1   
    56   34   36 1   
    57   34   37 1   
    58   35   64 1   
    59   36   65 1   
    60   36   66 1   
    61   36   67 1   
    62   37   68 1   
    63   37   69 1   
    64   37   70 1   
@<TRIPOS>SUBSTRUCTURE
     1 0SC         1 TEMP              0 ****  ****    0 ROOT
