@<TRIPOS>MOLECULE
0SC
   70    75     1     0     0
SMALL
bcc


@<TRIPOS>ATOM
      1 F           1.2520    2.5460   -0.6320 f         1 0SC     -0.134900
      2 C24         2.2100    1.6080   -0.4340 ca        1 0SC      0.136900
      3 C23         3.0890    1.7800    0.6690 ca        1 0SC     -0.158000
      4 C22         4.1000    0.8760    0.9320 ca        1 0SC     -0.107000
      5 C21         4.2440   -0.2230    0.0720 ca        1 0SC     -0.068200
      6 N5          5.1570   -1.2790    0.0870 na        1 0SC     -0.192400
      7 C20         4.8780   -2.1170   -0.9960 cc        1 0SC     -0.102100
      8 C19         3.7920   -1.6250   -1.7150 cd        1 0SC     -0.176200
      9 C18         3.3600   -0.4120   -1.0600 ca        1 0SC     -0.043800
     10 C17         2.3370    0.5100   -1.3000 cp        1 0SC     -0.123500
     11 C16         1.4050    0.3190   -2.4430 cp        1 0SC      0.738500
     12 N4          1.9270    0.2200   -3.6760 nb        1 0SC     -0.684000
     13 C13         1.0340    0.0450   -4.7090 ca        1 0SC      0.317300
     14 C12         1.5070   -0.0460   -6.0600 ca        1 0SC     -0.152300
     15 C11         0.6030   -0.1870   -7.0790 ca        1 0SC     -0.203300
     16 N3          0.0590    0.2480   -2.1130 nb        1 0SC     -0.743000
     17 C15        -0.8370    0.0850   -3.1000 ca        1 0SC      0.627900
     18 N6         -2.2300    0.1220   -2.8230 nh        1 0SC     -0.719300
     19 C28        -2.9540   -1.1240   -3.0530 c3        1 0SC      0.149300
     20 C27        -4.4710   -0.9140   -2.9380 c3        1 0SC      0.123900
     21 O1         -4.8270   -0.3180   -1.6960 os        1 0SC     -0.416600
     22 C26        -4.1480    0.9140   -1.4790 c3        1 0SC      0.123900
     23 C25        -2.6250    0.7470   -1.5620 c3        1 0SC      0.149300
     24 C14        -0.3870   -0.0370   -4.5010 ca        1 0SC      0.174000
     25 N2         -1.2750   -0.1890   -5.5330 nb        1 0SC     -0.632000
     26 C10        -0.7970   -0.2510   -6.7740 ca        1 0SC      0.408600
     27 C9         -1.7660   -0.3550   -7.9390 c3        1 0SC      0.115500
     28 N1         -1.5490   -1.5580   -8.7320 n3        1 0SC     -0.733600
     29 C6         -2.2200   -1.4720  -10.0240 c3        1 0SC      0.168300
     30 C5         -2.0330   -2.7170  -10.8900 c3        1 0SC     -0.074400
     31 C7         -1.8890   -2.7740   -8.0010 c3        1 0SC      0.168300
     32 C8         -1.6780   -4.0430   -8.8240 c3        1 0SC     -0.074400
     33 C4         -2.4500   -3.9650  -10.1310 c3        1 0SC     -0.052700
     34 C2         -2.2910   -5.2510  -10.9630 c3        1 0SC      0.155800
     35 O2         -2.9310   -6.2660  -10.1780 oh        1 0SC     -0.602800
     36 C3         -3.0130   -5.1270  -12.3020 c3        1 0SC     -0.123100
     37 C1         -0.8360   -5.6380  -11.2000 c3        1 0SC     -0.123100
     38 H1          2.9450    2.6580    1.3170 ha        1 0SC      0.149000
     39 H2          4.7720    1.0170    1.7900 ha        1 0SC      0.138000
     40 H3          5.8800   -1.3990    0.7440 hn        1 0SC      0.299700
     41 H4          5.4800   -3.0100   -1.1740 h4        1 0SC      0.167000
     42 H5          3.3520   -2.0550   -2.6100 ha        1 0SC      0.167000
     43 H6          2.5900    0.0040   -6.2550 ha        1 0SC      0.159000
     44 H7          0.9220   -0.2640   -8.1290 ha        1 0SC      0.160000
     45 H8         -2.6450   -1.9040   -2.2970 h1        1 0SC      0.060700
     46 H9         -2.7300   -1.5200   -4.0780 h1        1 0SC      0.060700
     47 H10        -4.8500   -0.2810   -3.7830 h1        1 0SC      0.056700
     48 H11        -4.9920   -1.9070   -2.9330 h1        1 0SC      0.056700
     49 H12        -4.4400    1.2150   -0.4390 h1        1 0SC      0.056700
     50 H13        -4.5080    1.6760   -2.2190 h1        1 0SC      0.056700
     51 H14        -2.2830    0.1410   -0.6740 h1        1 0SC      0.060700
     52 H15        -2.1470    1.7640   -1.5020 h1        1 0SC      0.060700
     53 H16        -1.5730    0.5400   -8.5980 h1        1 0SC      0.053700
     54 H17        -2.8310   -0.2830   -7.5680 h1        1 0SC      0.053700
     55 H19        -3.3290   -1.2870   -9.9010 h1        1 0SC      0.033700
     56 H20        -1.7860   -0.5880  -10.5720 h1        1 0SC      0.033700
     57 H21        -2.6590   -2.5920  -11.8110 hc        1 0SC      0.052700
     58 H22        -0.9620   -2.8000  -11.2080 hc        1 0SC      0.052700
     59 H23        -1.2250   -2.8140   -7.0920 h1        1 0SC      0.033700
     60 H24        -2.9600   -2.7530   -7.6410 h1        1 0SC      0.033700
     61 H25        -0.5850   -4.1790   -9.0320 hc        1 0SC      0.052700
     62 H26        -2.0320   -4.9250   -8.2310 hc        1 0SC      0.052700
     63 H27        -3.5480   -3.8810   -9.8840 hc        1 0SC      0.062700
     64 H28        -2.8320   -7.0940  -10.6610 ho        1 0SC      0.398000
     65 H29        -2.4500   -4.4450  -12.9820 hc        1 0SC      0.043367
     66 H30        -3.0920   -6.1290  -12.7880 hc        1 0SC      0.043367
     67 H31        -4.0430   -4.7260  -12.1490 hc        1 0SC      0.043367
     68 H32        -0.3680   -5.9760  -10.2450 hc        1 0SC      0.043367
     69 H33        -0.7780   -6.4760  -11.9370 hc        1 0SC      0.043367
     70 H34        -0.2620   -4.7700  -11.6000 hc        1 0SC      0.043367
@<TRIPOS>BOND
     1    1    2 1   
     2    2    3 ar  
     3    2   10 ar  
     4    3    4 ar  
     5    3   38 1   
     6    4    5 ar  
     7    4   39 1   
     8    5    6 1   
     9    5    9 ar  
    10    6    7 1   
    11    6   40 1   
    12    7    8 2   
    13    7   41 1   
    14    8    9 1   
    15    8   42 1   
    16    9   10 ar  
    17   10   11 1   
    18   11   12 ar  
    19   11   16 ar  
    20   12   13 ar  
    21   13   14 ar  
    22   13   24 ar  
    23   14   15 ar  
    24   14   43 1   
    25   15   26 ar  
    26   15   44 1   
    27   16   17 ar  
    28   17   18 1   
    29   17   24 ar  
    30   18   19 1   
    31   18   23 1   
    32   19   20 1   
    33   19   45 1   
    34   19   46 1   
    35   20   21 1   
    36   20   47 1   
    37   20   48 1   
    38   21   22 1   
    39   22   23 1   
    40   22   49 1   
    41   22   50 1   
    42   23   51 1   
    43   23   52 1   
    44   24   25 ar  
    45   25   26 ar  
    46   26   27 1   
    47   27   28 1   
    48   27   53 1   
    49   27   54 1   
    50   28   29 1   
    51   28   31 1   
    52   29   30 1   
    53   29   55 1   
    54   29   56 1   
    55   30   33 1   
    56   30   57 1   
    57   30   58 1   
    58   31   32 1   
    59   31   59 1   
    60   31   60 1   
    61   32   33 1   
    62   32   61 1   
    63   32   62 1   
    64   33   34 1   
    65   33   63 1   
    66   34   35 1   
    67   34   36 1   
    68   34   37 1   
    69   35   64 1   
    70   36   65 1   
    71   36   66 1   
    72   36   67 1   
    73   37   68 1   
    74   37   69 1   
    75   37   70 1   
@<TRIPOS>SUBSTRUCTURE
     1 0SC         1 TEMP              0 ****  ****    0 ROOT
