@<TRIPOS>MOLECULE
0SC
   70    75     1     0     0
SMALL
bcc


@<TRIPOS>ATOM
      1 F           1.2180    2.5440   -0.6180 f         1 0SC     -0.134900
      2 C24         2.1840    1.6140   -0.4240 ca        1 0SC      0.136900
      3 C23         3.0630    1.7910    0.6790 ca        1 0SC     -0.158000
      4 C22         4.0830    0.8950    0.9370 ca        1 0SC     -0.107000
      5 C21         4.2360   -0.1990    0.0730 ca        1 0SC     -0.068200
      6 N5          5.1590   -1.2470    0.0830 na        1 0SC     -0.192400
      7 C20         4.8860   -2.0830   -1.0030 cc        1 0SC     -0.102100
      8 C19         3.7950   -1.5990   -1.7190 cd        1 0SC     -0.176200
      9 C18         3.3530   -0.3920   -1.0590 ca        1 0SC     -0.043800
     10 C17         2.3210    0.5220   -1.2940 cp        1 0SC     -0.123500
     11 C16         1.3900    0.3260   -2.4380 cp        1 0SC      0.738500
     12 N4          1.9120    0.2360   -3.6710 nb        1 0SC     -0.684000
     13 C13         1.0190    0.0580   -4.7040 ca        1 0SC      0.317300
     14 C12         1.4920   -0.0250   -6.0560 ca        1 0SC     -0.152300
     15 C11         0.5870   -0.1710   -7.0740 ca        1 0SC     -0.203300
     16 N3          0.0450    0.2420   -2.1060 nb        1 0SC     -0.743000
     17 C15        -0.8510    0.0730   -3.0930 ca        1 0SC      0.627900
     18 N6         -2.2440    0.0980   -2.8150 nh        1 0SC     -0.719300
     19 C28        -2.9570   -1.1540   -3.0480 c3        1 0SC      0.149300
     20 C27        -4.4760   -0.9590   -2.9310 c3        1 0SC      0.123900
     21 O1         -4.8360   -0.3700   -1.6870 os        1 0SC     -0.416600
     22 C26        -4.1680    0.8670   -1.4650 c3        1 0SC      0.123900
     23 C25        -2.6430    0.7140   -1.5510 c3        1 0SC      0.149300
     24 C14        -0.4010   -0.0390   -4.4950 ca        1 0SC      0.174000
     25 N2         -1.2880   -0.1950   -5.5270 nb        1 0SC     -0.632000
     26 C10        -0.8110   -0.2480   -6.7680 ca        1 0SC      0.408600
     27 C9         -1.7800   -0.3570   -7.9320 c3        1 0SC      0.115500
     28 N1         -1.5530   -1.5550   -8.7310 n3        1 0SC     -0.733600
     29 C6         -2.2250   -1.4690  -10.0220 c3        1 0SC      0.168300
     30 C5         -2.0270   -2.7090  -10.8940 c3        1 0SC     -0.074400
     31 C7         -1.8790   -2.7770   -8.0050 c3        1 0SC      0.168300
     32 C8         -1.6560   -4.0400   -8.8340 c3        1 0SC     -0.074400
     33 C4         -2.4300   -3.9640  -10.1400 c3        1 0SC     -0.052700
     34 C2         -2.2590   -5.2450  -10.9780 c3        1 0SC      0.155800
     35 O2         -2.8880   -6.2690  -10.1970 oh        1 0SC     -0.602800
     36 C3         -2.9830   -5.1220  -12.3160 c3        1 0SC     -0.123100
     37 C1         -0.8000   -5.6160  -11.2180 c3        1 0SC     -0.123100
     38 H1          2.9110    2.6640    1.3300 ha        1 0SC      0.149000
     39 H2          4.7540    1.0390    1.7950 ha        1 0SC      0.138000
     40 H3          5.8830   -1.3630    0.7390 hn        1 0SC      0.299700
     41 H4          5.4970   -2.9700   -1.1850 h4        1 0SC      0.167000
     42 H5          3.3590   -2.0300   -2.6150 ha        1 0SC      0.167000
     43 H6          2.5740    0.0360   -6.2510 ha        1 0SC      0.159000
     44 H7          0.9060   -0.2400   -8.1250 ha        1 0SC      0.160000
     45 H8         -2.7300   -1.5450   -4.0750 h1        1 0SC      0.060700
     46 H9         -2.6400   -1.9340   -2.2960 h1        1 0SC      0.060700
     47 H10        -4.9880   -1.9560   -2.9290 h1        1 0SC      0.056700
     48 H11        -4.8610   -0.3250   -3.7730 h1        1 0SC      0.056700
     49 H12        -4.5350    1.6290   -2.2020 h1        1 0SC      0.056700
     50 H13        -4.4610    1.1610   -0.4240 h1        1 0SC      0.056700
     51 H14        -2.1750    1.7340   -1.4880 h1        1 0SC      0.060700
     52 H15        -2.2940    0.1070   -0.6660 h1        1 0SC      0.060700
     53 H16        -2.8460   -0.2980   -7.5600 h1        1 0SC      0.053700
     54 H17        -1.5970    0.5430   -8.5880 h1        1 0SC      0.053700
     55 H19        -3.3360   -1.2960   -9.8970 h1        1 0SC      0.033700
     56 H20        -1.8010   -0.5790  -10.5670 h1        1 0SC      0.033700
     57 H21        -0.9550   -2.7790  -11.2130 hc        1 0SC      0.052700
     58 H22        -2.6550   -2.5860  -11.8130 hc        1 0SC      0.052700
     59 H23        -1.2140   -2.8140   -7.0970 h1        1 0SC      0.033700
     60 H24        -2.9500   -2.7680   -7.6440 h1        1 0SC      0.033700
     61 H25        -0.5620   -4.1640   -9.0430 hc        1 0SC      0.052700
     62 H26        -2.0010   -4.9280   -8.2440 hc        1 0SC      0.052700
     63 H27        -3.5290   -3.8930   -9.8920 hc        1 0SC      0.062700
     64 H28        -2.7810   -7.0950  -10.6830 ho        1 0SC      0.398000
     65 H29        -2.4280   -4.4320  -12.9930 hc        1 0SC      0.043367
     66 H30        -3.0520   -6.1230  -12.8060 hc        1 0SC      0.043367
     67 H31        -4.0170   -4.7320  -12.1610 hc        1 0SC      0.043367
     68 H32        -0.7350   -6.4490  -11.9580 hc        1 0SC      0.043367
     69 H33        -0.3280   -5.9540  -10.2640 hc        1 0SC      0.043367
     70 H34        -0.2350   -4.7400  -11.6140 hc        1 0SC      0.043367
@<TRIPOS>BOND
     1    1    2 1   
     2    2    3 ar  
     3    2   10 ar  
     4    3    4 ar  
     5    3   38 1   
     6    4    5 ar  
     7    4   39 1   
     8    5    6 1   
     9    5    9 ar  
    10    6    7 1   
    11    6   40 1   
    12    7    8 2   
    13    7   41 1   
    14    8    9 1   
    15    8   42 1   
    16    9   10 ar  
    17   10   11 1   
    18   11   12 ar  
    19   11   16 ar  
    20   12   13 ar  
    21   13   14 ar  
    22   13   24 ar  
    23   14   15 ar  
    24   14   43 1   
    25   15   26 ar  
    26   15   44 1   
    27   16   17 ar  
    28   17   18 1   
    29   17   24 ar  
    30   18   19 1   
    31   18   23 1   
    32   19   20 1   
    33   19   45 1   
    34   19   46 1   
    35   20   21 1   
    36   20   47 1   
    37   20   48 1   
    38   21   22 1   
    39   22   23 1   
    40   22   49 1   
    41   22   50 1   
    42   23   51 1   
    43   23   52 1   
    44   24   25 ar  
    45   25   26 ar  
    46   26   27 1   
    47   27   28 1   
    48   27   53 1   
    49   27   54 1   
    50   28   29 1   
    51   28   31 1   
    52   29   30 1   
    53   29   55 1   
    54   29   56 1   
    55   30   33 1   
    56   30   57 1   
    57   30   58 1   
    58   31   32 1   
    59   31   59 1   
    60   31   60 1   
    61   32   33 1   
    62   32   61 1   
    63   32   62 1   
    64   33   34 1   
    65   33   63 1   
    66   34   35 1   
    67   34   36 1   
    68   34   37 1   
    69   35   64 1   
    70   36   65 1   
    71   36   66 1   
    72   36   67 1   
    73   37   68 1   
    74   37   69 1   
    75   37   70 1   
@<TRIPOS>SUBSTRUCTURE
     1 0SC         1 TEMP              0 ****  ****    0 ROOT
