@<TRIPOS>MOLECULE
0SC
   70    75     1     0     0
SMALL
bcc


@<TRIPOS>ATOM
      1 F           1.2370    2.5510   -0.6300 f         1 0SC     -0.134900
      2 C24         2.2010    1.6190   -0.4360 ca        1 0SC      0.136900
      3 C23         3.0830    1.7950    0.6650 ca        1 0SC     -0.158000
      4 C22         4.1010    0.8980    0.9230 ca        1 0SC     -0.107000
      5 C21         4.2490   -0.1990    0.0600 ca        1 0SC     -0.068200
      6 N5          5.1700   -1.2490    0.0710 na        1 0SC     -0.192400
      7 C20         4.8930   -2.0870   -1.0120 cc        1 0SC     -0.102100
      8 C19         3.8020   -1.6010   -1.7280 cd        1 0SC     -0.176200
      9 C18         3.3640   -0.3920   -1.0690 ca        1 0SC     -0.043800
     10 C17         2.3340    0.5240   -1.3050 cp        1 0SC     -0.123500
     11 C16         1.4000    0.3290   -2.4460 cp        1 0SC      0.738500
     12 N4          1.9200    0.2360   -3.6800 nb        1 0SC     -0.684000
     13 C13         1.0240    0.0570   -4.7110 ca        1 0SC      0.317300
     14 C12         1.4950   -0.0280   -6.0640 ca        1 0SC     -0.152300
     15 C11         0.5880   -0.1740   -7.0800 ca        1 0SC     -0.203300
     16 N3          0.0560    0.2470   -2.1120 nb        1 0SC     -0.743000
     17 C15        -0.8430    0.0790   -3.0970 ca        1 0SC      0.627900
     18 N6         -2.2350    0.1060   -2.8160 nh        1 0SC     -0.719300
     19 C28        -2.9500   -1.1450   -3.0460 c3        1 0SC      0.149300
     20 C27        -4.4680   -0.9470   -2.9260 c3        1 0SC      0.124400
     21 O1         -4.8250   -0.3550   -1.6820 os        1 0SC     -0.416600
     22 C26        -4.1550    0.8810   -1.4640 c3        1 0SC      0.124400
     23 C25        -2.6300    0.7250   -1.5530 c3        1 0SC      0.149300
     24 C14        -0.3950   -0.0360   -4.4990 ca        1 0SC      0.174000
     25 N2         -1.2850   -0.1930   -5.5290 nb        1 0SC     -0.632000
     26 C10        -0.8100   -0.2490   -6.7710 ca        1 0SC      0.408600
     27 C9         -1.7810   -0.3580   -7.9340 c3        1 0SC      0.115500
     28 N1         -1.5580   -1.5590   -8.7290 n3        1 0SC     -0.733600
     29 C6         -2.2330   -1.4740  -10.0190 c3        1 0SC      0.168300
     30 C5         -2.0390   -2.7170  -10.8880 c3        1 0SC     -0.074400
     31 C7         -1.8870   -2.7780   -8.0000 c3        1 0SC      0.168300
     32 C8         -1.6690   -4.0430   -8.8250 c3        1 0SC     -0.074400
     33 C4         -2.4450   -3.9690  -10.1310 c3        1 0SC     -0.052700
     34 C2         -2.2780   -5.2530  -10.9650 c3        1 0SC      0.155800
     35 O2         -2.9090   -6.2730  -10.1810 oh        1 0SC     -0.602800
     36 C3         -3.0040   -5.1310  -12.3020 c3        1 0SC     -0.123100
     37 C1         -0.8210   -5.6290  -11.2060 c3        1 0SC     -0.123100
     38 H1          2.9340    2.6710    1.3140 ha        1 0SC      0.149000
     39 H2          4.7740    1.0420    1.7790 ha        1 0SC      0.138000
     40 H3          5.8950   -1.3650    0.7260 hn        1 0SC      0.299700
     41 H4          5.5010   -2.9760   -1.1940 h4        1 0SC      0.167000
     42 H5          3.3630   -2.0320   -2.6230 ha        1 0SC      0.167000
     43 H6          2.5770    0.0300   -6.2610 ha        1 0SC      0.159000
     44 H7          0.9050   -0.2460   -8.1310 ha        1 0SC      0.160000
     45 H8         -2.7260   -1.5380   -4.0730 h1        1 0SC      0.060700
     46 H9         -2.6330   -1.9240   -2.2920 h1        1 0SC      0.060700
     47 H10        -4.9820   -1.9440   -2.9210 h1        1 0SC      0.056700
     48 H11        -4.8540   -0.3150   -3.7690 h1        1 0SC      0.056700
     49 H12        -4.4460    1.1780   -0.4230 h1        1 0SC      0.056700
     50 H13        -4.5220    1.6420   -2.2020 h1        1 0SC      0.056700
     51 H14        -2.2810    0.1200   -0.6670 h1        1 0SC      0.060700
     52 H15        -2.1600    1.7460   -1.4920 h1        1 0SC      0.060700
     53 H16        -2.8460   -0.2950   -7.5600 h1        1 0SC      0.053700
     54 H17        -1.5970    0.5400   -8.5920 h1        1 0SC      0.053700
     55 H19        -1.8080   -0.5870  -10.5670 h1        1 0SC      0.033700
     56 H20        -3.3430   -1.2980   -9.8930 h1        1 0SC      0.033700
     57 H21        -0.9680   -2.7910  -11.2090 hc        1 0SC      0.052700
     58 H22        -2.6680   -2.5950  -11.8070 hc        1 0SC      0.052700
     59 H23        -2.9580   -2.7650   -7.6370 h1        1 0SC      0.033700
     60 H24        -1.2210   -2.8140   -7.0920 h1        1 0SC      0.033700
     61 H25        -2.0150   -4.9290   -8.2330 hc        1 0SC      0.052700
     62 H26        -0.5760   -4.1710   -9.0360 hc        1 0SC      0.052700
     63 H27        -3.5430   -3.8940   -9.8800 hc        1 0SC      0.062700
     64 H28        -2.8050   -7.1000  -10.6650 ho        1 0SC      0.398000
     65 H29        -4.0370   -4.7380  -12.1470 hc        1 0SC      0.043367
     66 H30        -3.0770   -6.1340  -12.7900 hc        1 0SC      0.043367
     67 H31        -2.4480   -4.4450  -12.9820 hc        1 0SC      0.043367
     68 H32        -0.3490   -5.9660  -10.2520 hc        1 0SC      0.043367
     69 H33        -0.7590   -6.4640  -11.9440 hc        1 0SC      0.043367
     70 H34        -0.2540   -4.7560  -11.6050 hc        1 0SC      0.043367
@<TRIPOS>BOND
     1    1    2 1   
     2    2    3 ar  
     3    2   10 ar  
     4    3    4 ar  
     5    3   38 1   
     6    4    5 ar  
     7    4   39 1   
     8    5    6 1   
     9    5    9 ar  
    10    6    7 1   
    11    6   40 1   
    12    7    8 2   
    13    7   41 1   
    14    8    9 1   
    15    8   42 1   
    16    9   10 ar  
    17   10   11 1   
    18   11   12 ar  
    19   11   16 ar  
    20   12   13 ar  
    21   13   14 ar  
    22   13   24 ar  
    23   14   15 ar  
    24   14   43 1   
    25   15   26 ar  
    26   15   44 1   
    27   16   17 ar  
    28   17   18 1   
    29   17   24 ar  
    30   18   19 1   
    31   18   23 1   
    32   19   20 1   
    33   19   45 1   
    34   19   46 1   
    35   20   21 1   
    36   20   47 1   
    37   20   48 1   
    38   21   22 1   
    39   22   23 1   
    40   22   49 1   
    41   22   50 1   
    42   23   51 1   
    43   23   52 1   
    44   24   25 ar  
    45   25   26 ar  
    46   26   27 1   
    47   27   28 1   
    48   27   53 1   
    49   27   54 1   
    50   28   29 1   
    51   28   31 1   
    52   29   30 1   
    53   29   55 1   
    54   29   56 1   
    55   30   33 1   
    56   30   57 1   
    57   30   58 1   
    58   31   32 1   
    59   31   59 1   
    60   31   60 1   
    61   32   33 1   
    62   32   61 1   
    63   32   62 1   
    64   33   34 1   
    65   33   63 1   
    66   34   35 1   
    67   34   36 1   
    68   34   37 1   
    69   35   64 1   
    70   36   65 1   
    71   36   66 1   
    72   36   67 1   
    73   37   68 1   
    74   37   69 1   
    75   37   70 1   
@<TRIPOS>SUBSTRUCTURE
     1 0SC         1 TEMP              0 ****  ****    0 ROOT
