@<TRIPOS>MOLECULE
0SC
   70    75     1     0     0
SMALL
bcc


@<TRIPOS>ATOM
      1 F          -5.3310   -0.9930   -1.9650 f         1 0SC     -0.134900
      2 C24        -5.6480   -0.2100   -0.9050 ca        1 0SC      0.136900
      3 C23        -7.0250   -0.0210   -0.6080 ca        1 0SC     -0.158000
      4 C22        -7.4310    0.7730    0.4470 ca        1 0SC     -0.106000
      5 C21        -6.4430    1.4000    1.2200 ca        1 0SC     -0.068200
      6 N5         -6.5510    2.2460    2.3280 na        1 0SC     -0.192400
      7 C20        -5.2640    2.6040    2.7330 cc        1 0SC     -0.102100
      8 C19        -4.3160    2.0020    1.9100 cd        1 0SC     -0.177200
      9 C18        -5.0360    1.2230    0.9290 ca        1 0SC     -0.043800
     10 C17        -4.6480    0.4060   -0.1370 cp        1 0SC     -0.124500
     11 C16        -3.2060    0.1940   -0.4360 cp        1 0SC      0.738500
     12 N4         -2.4430    1.2720   -0.6740 nb        1 0SC     -0.683000
     13 C13        -1.1150    1.0360   -0.9490 ca        1 0SC      0.317300
     14 C12        -0.2360    2.1330   -1.2380 ca        1 0SC     -0.151300
     15 C11         1.0760    1.8780   -1.5410 ca        1 0SC     -0.203300
     16 N3         -2.7810   -1.1270   -0.4260 nb        1 0SC     -0.742000
     17 C15        -1.4920   -1.3900   -0.6960 ca        1 0SC      0.626900
     18 N6         -1.0370   -2.7310   -0.8110 nh        1 0SC     -0.719300
     19 C28        -0.0790   -3.1610    0.2030 c3        1 0SC      0.149300
     20 C27         0.5100   -4.5380   -0.1390 c3        1 0SC      0.123900
     21 O1         -0.5080   -5.5080   -0.3480 os        1 0SC     -0.416600
     22 C26        -1.4300   -5.1100   -1.3570 c3        1 0SC      0.123900
     23 C25        -2.0620   -3.7460   -1.0440 c3        1 0SC      0.149300
     24 C14        -0.5510   -0.2870   -0.9760 ca        1 0SC      0.174000
     25 N2          0.7670   -0.5190   -1.2700 nb        1 0SC     -0.632000
     26 C10         1.5440    0.5230   -1.5520 ca        1 0SC      0.407600
     27 C9          2.9920    0.2850   -1.9440 c3        1 0SC      0.115500
     28 N1          3.9260    0.9420   -1.0390 n3        1 0SC     -0.732600
     29 C6          5.2650    1.0110   -1.6130 c3        1 0SC      0.168300
     30 C5          6.2850    1.6810   -0.6930 c3        1 0SC     -0.073400
     31 C7          3.9120    0.3580    0.2970 c3        1 0SC      0.168300
     32 C8          4.8980    1.0260    1.2510 c3        1 0SC     -0.073400
     33 C4          6.3020    1.0080    0.6680 c3        1 0SC     -0.087700
     34 C2          7.3290    1.6220    1.6370 c3        1 0SC      0.154800
     35 O2          7.3070    0.8840    2.8640 oh        1 0SC     -0.599800
     36 C3          8.7310    1.5560    1.0370 c3        1 0SC     -0.104600
     37 C1          7.0000    3.0560    2.0350 c3        1 0SC     -0.104600
     38 H1         -7.7680   -0.5280   -1.2420 ha        1 0SC      0.149000
     39 H2         -8.4980    0.9090    0.6700 ha        1 0SC      0.138000
     40 H3         -7.3950    2.5430    2.7370 hn        1 0SC      0.300700
     41 H4         -5.1180    3.2690    3.5870 h4        1 0SC      0.167000
     42 H5         -3.2360    2.1030    1.9750 ha        1 0SC      0.167000
     43 H6         -0.6330    3.1600   -1.2170 ha        1 0SC      0.160000
     44 H7          1.7850    2.6880   -1.7660 ha        1 0SC      0.160000
     45 H8          0.7650   -2.4250    0.2770 h1        1 0SC      0.060450
     46 H9         -0.5780   -3.2290    1.2130 h1        1 0SC      0.060450
     47 H10         1.1640   -4.4750   -1.0480 h1        1 0SC      0.056700
     48 H11         1.0950   -4.9270    0.7350 h1        1 0SC      0.056700
     49 H12        -0.9130   -5.0920   -2.3520 h1        1 0SC      0.056700
     50 H13        -2.2210   -5.9050   -1.3450 h1        1 0SC      0.056700
     51 H14        -2.7410   -3.8630   -0.1520 h1        1 0SC      0.060450
     52 H15        -2.6850   -3.4280   -1.9250 h1        1 0SC      0.060450
     53 H16         3.1970   -0.8240   -2.0240 h1        1 0SC      0.053700
     54 H17         3.1250    0.7320   -2.9720 h1        1 0SC      0.053700
     55 H19         5.6500   -0.0170   -1.8850 h1        1 0SC      0.032950
     56 H20         5.1950    1.6100   -2.5650 h1        1 0SC      0.032950
     57 H21         7.2930    1.6060   -1.1780 hc        1 0SC      0.054450
     58 H22         6.0350    2.7680   -0.5810 hc        1 0SC      0.054450
     59 H23         2.8690    0.4800    0.7040 h1        1 0SC      0.032950
     60 H24         4.1370   -0.7500    0.2640 h1        1 0SC      0.032950
     61 H25         4.5800    2.0830    1.4440 hc        1 0SC      0.054450
     62 H26         4.8880    0.4800    2.2300 hc        1 0SC      0.054450
     63 H27         6.6020   -0.0700    0.5180 hc        1 0SC      0.041700
     64 H28         7.5550   -0.0230    2.6500 ho        1 0SC      0.396000
     65 H29         8.8450    2.3240    0.2370 hc        1 0SC      0.044867
     66 H30         9.4880    1.7520    1.8350 hc        1 0SC      0.044867
     67 H31         8.9250    0.5470    0.6020 hc        1 0SC      0.044867
     68 H32         6.0680    3.0810    2.6490 hc        1 0SC      0.044867
     69 H33         7.8340    3.4740    2.6480 hc        1 0SC      0.044867
     70 H34         6.8630    3.6840    1.1250 hc        1 0SC      0.044867
@<TRIPOS>BOND
     1    1    2 1   
     2    2    3 ar  
     3    2   10 ar  
     4    3    4 ar  
     5    3   38 1   
     6    4    5 ar  
     7    4   39 1   
     8    5    6 1   
     9    5    9 ar  
    10    6    7 1   
    11    6   40 1   
    12    7    8 2   
    13    7   41 1   
    14    8    9 1   
    15    8   42 1   
    16    9   10 ar  
    17   10   11 1   
    18   11   12 ar  
    19   11   16 ar  
    20   12   13 ar  
    21   13   14 ar  
    22   13   24 ar  
    23   14   15 ar  
    24   14   43 1   
    25   15   26 ar  
    26   15   44 1   
    27   16   17 ar  
    28   17   18 1   
    29   17   24 ar  
    30   18   19 1   
    31   18   23 1   
    32   19   20 1   
    33   19   45 1   
    34   19   46 1   
    35   20   21 1   
    36   20   47 1   
    37   20   48 1   
    38   21   22 1   
    39   22   23 1   
    40   22   49 1   
    41   22   50 1   
    42   23   51 1   
    43   23   52 1   
    44   24   25 ar  
    45   25   26 ar  
    46   26   27 1   
    47   27   28 1   
    48   27   53 1   
    49   27   54 1   
    50   28   29 1   
    51   28   31 1   
    52   29   30 1   
    53   29   55 1   
    54   29   56 1   
    55   30   33 1   
    56   30   57 1   
    57   30   58 1   
    58   31   32 1   
    59   31   59 1   
    60   31   60 1   
    61   32   33 1   
    62   32   61 1   
    63   32   62 1   
    64   33   34 1   
    65   33   63 1   
    66   34   35 1   
    67   34   36 1   
    68   34   37 1   
    69   35   64 1   
    70   36   65 1   
    71   36   66 1   
    72   36   67 1   
    73   37   68 1   
    74   37   69 1   
    75   37   70 1   
@<TRIPOS>SUBSTRUCTURE
     1 0SC         1 TEMP              0 ****  ****    0 ROOT
