@<TRIPOS>MOLECULE
0SD
   69    74     1     0     0
SMALL
bcc


@<TRIPOS>ATOM
      1 N           3.6630   -0.3580    1.1190 n3        1 0SD     -0.727600
      2 C           8.4840   -0.8680   -1.0410 c3        1 0SD     -0.104100
      3 O          -0.1960    5.2980   -0.7760 os        1 0SD     -0.415600
      4 C1          7.0810   -1.3350   -1.4210 c3        1 0SD      0.153800
      5 N1          0.6140    0.5640    1.2650 nb        1 0SD     -0.611000
      6 O1          6.6670   -0.4630   -2.4730 oh        1 0SD     -0.595800
      7 C2          7.1490   -2.7690   -1.9410 c3        1 0SD     -0.104100
      8 N2         -2.8100    1.1750    0.0140 nb        1 0SD     -0.760000
      9 C3          6.1330   -1.2350   -0.2080 c3        1 0SD     -0.090700
     10 N3         -2.6630   -1.1340    0.7680 nb        1 0SD     -0.707000
     11 C4          5.8980    0.2150    0.1820 c3        1 0SD     -0.074900
     12 N4         -5.6620   -3.5630   -1.4120 na        1 0SD      0.046800
     13 C5          4.9210    0.3390    1.3490 c3        1 0SD      0.170800
     14 N5         -6.8450   -2.9590   -1.4540 nc        1 0SD     -0.279400
     15 C6          3.8560   -1.7470    0.7300 c3        1 0SD      0.170800
     16 N6         -0.9870    2.7210    0.1950 nh        1 0SD     -0.721300
     17 C7          4.7950   -1.9130   -0.4620 c3        1 0SD     -0.074900
     18 C8          2.7390   -0.2100    2.2330 c3        1 0SD      0.123500
     19 C9          1.2960   -0.4390    1.8120 ca        1 0SD      0.408600
     20 C10         0.7320   -1.7370    2.0370 ca        1 0SD     -0.222300
     21 C11        -0.5710   -1.9760    1.6880 ca        1 0SD     -0.149300
     22 C12        -1.3460   -0.9190    1.1030 ca        1 0SD      0.321300
     23 C13        -0.6900    0.3460    0.9080 ca        1 0SD      0.169000
     24 C14        -1.5260    1.4160    0.3270 ca        1 0SD      0.635900
     25 C15        -3.3350   -0.0890    0.2540 cp        1 0SD      0.743500
     26 C16        -4.7660   -0.2780   -0.1070 cp        1 0SD     -0.091500
     27 C17        -5.6790    0.7400    0.0520 ca        1 0SD     -0.092000
     28 C18        -7.0520    0.5710   -0.2890 ca        1 0SD     -0.137000
     29 C19        -7.5400   -0.6030   -0.7940 ca        1 0SD     -0.073000
     30 C20        -6.6340   -1.6860   -0.9760 ca        1 0SD     -0.087000
     31 C21        -5.2190   -1.5180   -0.6190 ca        1 0SD     -0.107000
     32 C22        -4.6330   -2.7690   -0.9220 cc        1 0SD     -0.137100
     33 C23        -1.9470    3.8170    0.0850 c3        1 0SD      0.150300
     34 C24        -1.2480    5.1810    0.1730 c3        1 0SD      0.123900
     35 C25         0.7620    4.2540   -0.6450 c3        1 0SD      0.123900
     36 C26         0.1090    2.8690   -0.7580 c3        1 0SD      0.150300
     37 H2          9.1770   -1.0140   -1.9030 hc        1 0SD      0.043700
     38 H3          8.4750    0.2170   -0.7830 hc        1 0SD      0.043700
     39 H4          8.8520   -1.4560   -0.1690 hc        1 0SD      0.043700
     40 H5          5.7690   -0.7190   -2.7140 ho        1 0SD      0.400000
     41 H6          7.3660   -3.4710   -1.1030 hc        1 0SD      0.043700
     42 H7          6.1840   -3.0590   -2.4220 hc        1 0SD      0.043700
     43 H8          7.9560   -2.8550   -2.7070 hc        1 0SD      0.043700
     44 H9          6.6370   -1.7650    0.6490 hc        1 0SD      0.052700
     45 H10         6.8650    0.6910    0.4910 hc        1 0SD      0.052700
     46 H11         5.5100    0.7780   -0.7070 hc        1 0SD      0.052700
     47 H12        -5.5850   -4.5080   -1.7120 hn        1 0SD      0.321700
     48 H13         4.6830    1.4300    1.4990 h1        1 0SD      0.030950
     49 H14         5.4320   -0.0330    2.2860 h1        1 0SD      0.030950
     50 H15         4.2580   -2.3650    1.5880 h1        1 0SD      0.030950
     51 H16         2.8440   -2.1630    0.4580 h1        1 0SD      0.030950
     52 H17         4.3190   -1.4820   -1.3810 hc        1 0SD      0.052700
     53 H18         4.9410   -3.0110   -0.6300 hc        1 0SD      0.052700
     54 H19         2.9660   -0.9330    3.0730 h1        1 0SD      0.049700
     55 H20         2.8390    0.8350    2.6470 h1        1 0SD      0.049700
     56 H21         1.3550   -2.5220    2.4890 ha        1 0SD      0.146000
     57 H22        -1.0400   -2.9590    1.8510 ha        1 0SD      0.156000
     58 H23        -5.3690    1.7190    0.4500 ha        1 0SD      0.146000
     59 H24        -7.7270    1.4270   -0.1340 ha        1 0SD      0.134000
     60 H25        -8.5990   -0.7300   -1.0590 ha        1 0SD      0.145000
     61 H26        -3.6100   -3.1280   -0.8150 h4        1 0SD      0.192000
     62 H27        -2.5180    3.7690   -0.8870 h1        1 0SD      0.061450
     63 H28        -2.6820    3.7370    0.9320 h1        1 0SD      0.061450
     64 H29        -0.8450    5.3560    1.2050 h1        1 0SD      0.057700
     65 H30        -1.9690    5.9950   -0.1040 h1        1 0SD      0.057700
     66 H31         1.4680    4.4100   -1.5020 h1        1 0SD      0.057700
     67 H32         1.3040    4.3590    0.3310 h1        1 0SD      0.057700
     68 H33         0.8980    2.0930   -0.5730 h1        1 0SD      0.061450
     69 H34        -0.2730    2.7410   -1.8140 h1        1 0SD      0.061450
@<TRIPOS>BOND
     1    1   13 1   
     2    1   15 1   
     3    1   18 1   
     4    2    4 1   
     5    2   37 1   
     6    2   38 1   
     7    2   39 1   
     8    3   34 1   
     9    3   35 1   
    10    4    6 1   
    11    4    7 1   
    12    4    9 1   
    13    5   19 ar  
    14    5   23 ar  
    15    6   40 1   
    16    7   41 1   
    17    7   42 1   
    18    7   43 1   
    19    8   24 ar  
    20    8   25 ar  
    21    9   11 1   
    22    9   17 1   
    23    9   44 1   
    24   10   22 ar  
    25   10   25 ar  
    26   11   13 1   
    27   11   45 1   
    28   11   46 1   
    29   12   14 1   
    30   12   32 1   
    31   12   47 1   
    32   13   48 1   
    33   13   49 1   
    34   14   30 2   
    35   15   17 1   
    36   15   50 1   
    37   15   51 1   
    38   16   24 1   
    39   16   33 1   
    40   16   36 1   
    41   17   52 1   
    42   17   53 1   
    43   18   19 1   
    44   18   54 1   
    45   18   55 1   
    46   19   20 ar  
    47   20   21 ar  
    48   20   56 1   
    49   21   22 ar  
    50   21   57 1   
    51   22   23 ar  
    52   23   24 ar  
    53   25   26 1   
    54   26   27 ar  
    55   26   31 ar  
    56   27   28 ar  
    57   27   58 1   
    58   28   29 ar  
    59   28   59 1   
    60   29   30 ar  
    61   29   60 1   
    62   30   31 ar  
    63   31   32 2   
    64   32   61 1   
    65   33   34 1   
    66   33   62 1   
    67   33   63 1   
    68   34   64 1   
    69   34   65 1   
    70   35   36 1   
    71   35   66 1   
    72   35   67 1   
    73   36   68 1   
    74   36   69 1   
@<TRIPOS>SUBSTRUCTURE
     1 0SD         1 TEMP              0 ****  ****    0 ROOT
