@<TRIPOS>MOLECULE
0SD
   69    74     1     0     0
SMALL
bcc


@<TRIPOS>ATOM
      1 N          -0.0170   -0.0180    0.1120 n3        1 0SD     -0.726600
      2 C           3.6310    1.3190    3.6710 c3        1 0SD     -0.125600
      3 O          -2.3300   -6.7120    0.5580 os        1 0SD     -0.416600
      4 C1          2.1280    1.5640    3.5710 c3        1 0SD      0.152800
      5 N1         -2.4800   -1.7270   -0.9730 nb        1 0SD     -0.611000
      6 O1          1.4330    0.6250    4.3940 oh        1 0SD     -0.595800
      7 C2          1.8160    2.9840    4.0370 c3        1 0SD     -0.125600
      8 N2         -5.7600   -3.4250   -0.8200 nb        1 0SD     -0.760000
      9 C3          1.6310    1.3400    2.1290 c3        1 0SD     -0.045700
     10 N3         -6.1240   -1.0890   -1.3980 nb        1 0SD     -0.706000
     11 C4          1.9460   -0.0680    1.6470 c3        1 0SD     -0.074900
     12 N4        -10.1930    0.0950   -0.0900 na        1 0SD      0.046800
     13 C5          1.4030   -0.3150    0.2420 c3        1 0SD      0.172800
     14 N5        -11.1000   -0.8130   -0.4330 nc        1 0SD     -0.280400
     15 C6         -0.3630    1.3090    0.5980 c3        1 0SD      0.172800
     16 N6         -3.5750   -4.3620   -0.5080 nh        1 0SD     -0.721300
     17 C7          0.1350    1.5860    2.0130 c3        1 0SD     -0.074900
     18 C8         -0.5130   -0.2720   -1.2320 c3        1 0SD      0.124500
     19 C9         -2.0140   -0.5120   -1.2480 ca        1 0SD      0.410600
     20 C10        -2.8640    0.5960   -1.5720 ca        1 0SD     -0.221300
     21 C11        -4.2220    0.4150   -1.6160 ca        1 0SD     -0.150300
     22 C12        -4.7660   -0.8830   -1.3350 ca        1 0SD      0.321300
     23 C13        -3.8340   -1.9290   -1.0090 ca        1 0SD      0.171000
     24 C14        -4.4290   -3.2550   -0.7450 ca        1 0SD      0.635900
     25 C15        -6.5590   -2.3380   -1.1520 cp        1 0SD      0.742500
     26 C16        -8.0210   -2.6040   -1.2270 cp        1 0SD     -0.089500
     27 C17        -8.5010   -3.8040   -1.7020 ca        1 0SD     -0.093000
     28 C18        -9.8990   -4.0700   -1.7790 ca        1 0SD     -0.137000
     29 C19       -10.8390   -3.1560   -1.3860 ca        1 0SD     -0.074000
     30 C20       -10.3910   -1.9010   -0.8890 ca        1 0SD     -0.086000
     31 C21        -8.9510   -1.6200   -0.8130 ca        1 0SD     -0.107000
     32 C22        -8.8790   -0.3090   -0.2880 cc        1 0SD     -0.137100
     33 C23        -4.1460   -5.6880   -0.7290 c3        1 0SD      0.149800
     34 C24        -3.0680   -6.7780   -0.6560 c3        1 0SD      0.123900
     35 C25        -1.7410   -5.4320    0.7570 c3        1 0SD      0.123900
     36 C26        -2.7910   -4.3130    0.7230 c3        1 0SD      0.149800
     37 H2          4.1670    1.8850    2.8730 hc        1 0SD      0.043367
     38 H3          3.8520    0.2310    3.5600 hc        1 0SD      0.043367
     39 H4          4.0130    1.6530    4.6660 hc        1 0SD      0.043367
     40 H5          1.7460    0.7640    5.2950 ho        1 0SD      0.398000
     41 H6          0.7170    3.1050    4.1910 hc        1 0SD      0.043367
     42 H7          2.3290    3.1950    5.0060 hc        1 0SD      0.043367
     43 H8          2.1630    3.7230    3.2780 hc        1 0SD      0.043367
     44 H9          2.1760    2.0800    1.4780 hc        1 0SD      0.043700
     45 H10         1.5050   -0.8060    2.3680 hc        1 0SD      0.058200
     46 H11         3.0540   -0.2290    1.6180 hc        1 0SD      0.058200
     47 H12       -10.4910    0.9740    0.2660 hn        1 0SD      0.321700
     48 H13         1.5470   -1.4040   -0.0090 h1        1 0SD      0.028200
     49 H14         2.0170    0.2890   -0.4910 h1        1 0SD      0.028200
     50 H15        -1.4880    1.3860    0.5860 h1        1 0SD      0.028200
     51 H16         0.0380    2.1150   -0.0870 h1        1 0SD      0.028200
     52 H17        -0.4010    0.9320    2.7500 hc        1 0SD      0.058200
     53 H18        -0.1020    2.6540    2.2570 hc        1 0SD      0.058200
     54 H19         0.0090   -1.1840   -1.6430 h1        1 0SD      0.048700
     55 H20        -0.2990    0.5880   -1.9340 h1        1 0SD      0.048700
     56 H21        -2.4120    1.5760   -1.7800 ha        1 0SD      0.146000
     57 H22        -4.9040    1.2420   -1.8660 ha        1 0SD      0.156000
     58 H23        -7.8120   -4.5950   -2.0350 ha        1 0SD      0.146000
     59 H24       -10.2120   -5.0500   -2.1700 ha        1 0SD      0.134000
     60 H25       -11.9160   -3.3650   -1.4440 ha        1 0SD      0.145000
     61 H26        -8.0240    0.3300   -0.0660 h4        1 0SD      0.193000
     62 H27        -4.6100   -5.7130   -1.7530 h1        1 0SD      0.061950
     63 H28        -4.9470   -5.9250    0.0300 h1        1 0SD      0.061950
     64 H29        -2.3650   -6.7020   -1.5280 h1        1 0SD      0.057200
     65 H30        -3.5520   -7.7890   -0.6370 h1        1 0SD      0.057200
     66 H31        -0.9470   -5.2580   -0.0150 h1        1 0SD      0.057200
     67 H32        -1.2830   -5.4900    1.7800 h1        1 0SD      0.057200
     68 H33        -2.2570   -3.3290    0.8100 h1        1 0SD      0.061950
     69 H34        -3.4660   -4.4310    1.6200 h1        1 0SD      0.061950
@<TRIPOS>BOND
     1    1   13 1   
     2    1   15 1   
     3    1   18 1   
     4    2    4 1   
     5    2   37 1   
     6    2   38 1   
     7    2   39 1   
     8    3   34 1   
     9    3   35 1   
    10    4    6 1   
    11    4    7 1   
    12    4    9 1   
    13    5   19 ar  
    14    5   23 ar  
    15    6   40 1   
    16    7   41 1   
    17    7   42 1   
    18    7   43 1   
    19    8   24 ar  
    20    8   25 ar  
    21    9   11 1   
    22    9   17 1   
    23    9   44 1   
    24   10   22 ar  
    25   10   25 ar  
    26   11   13 1   
    27   11   45 1   
    28   11   46 1   
    29   12   14 1   
    30   12   32 1   
    31   12   47 1   
    32   13   48 1   
    33   13   49 1   
    34   14   30 2   
    35   15   17 1   
    36   15   50 1   
    37   15   51 1   
    38   16   24 1   
    39   16   33 1   
    40   16   36 1   
    41   17   52 1   
    42   17   53 1   
    43   18   19 1   
    44   18   54 1   
    45   18   55 1   
    46   19   20 ar  
    47   20   21 ar  
    48   20   56 1   
    49   21   22 ar  
    50   21   57 1   
    51   22   23 ar  
    52   23   24 ar  
    53   25   26 1   
    54   26   27 ar  
    55   26   31 ar  
    56   27   28 ar  
    57   27   58 1   
    58   28   29 ar  
    59   28   59 1   
    60   29   30 ar  
    61   29   60 1   
    62   30   31 ar  
    63   31   32 2   
    64   32   61 1   
    65   33   34 1   
    66   33   62 1   
    67   33   63 1   
    68   34   64 1   
    69   34   65 1   
    70   35   36 1   
    71   35   66 1   
    72   35   67 1   
    73   36   68 1   
    74   36   69 1   
@<TRIPOS>SUBSTRUCTURE
     1 0SD         1 TEMP              0 ****  ****    0 ROOT
