@<TRIPOS>MOLECULE
0SD
   69    74     1     0     0
SMALL
bcc


@<TRIPOS>ATOM
      1 N          -0.0170   -0.0150    0.1240 n3        1 0SD     -0.726600
      2 C           3.6280    1.2990    3.6950 c3        1 0SD     -0.125600
      3 O          -2.3290   -6.7170    0.5120 os        1 0SD     -0.416600
      4 C1          2.1250    1.5470    3.5940 c3        1 0SD      0.152800
      5 N1         -2.4790   -1.7190   -0.9760 nb        1 0SD     -0.611000
      6 O1          1.4270    0.6050    4.4110 oh        1 0SD     -0.595800
      7 C2          1.8140    2.9650    4.0660 c3        1 0SD     -0.125600
      8 N2         -5.7590   -3.4180   -0.8370 nb        1 0SD     -0.760000
      9 C3          1.6300    1.3310    2.1500 c3        1 0SD     -0.045700
     10 N3         -6.1230   -1.0780   -1.3960 nb        1 0SD     -0.706000
     11 C4          1.9430   -0.0750    1.6620 c3        1 0SD     -0.074900
     12 N4        -10.1920    0.0950   -0.0790 na        1 0SD      0.046800
     13 C5          1.4020   -0.3140    0.2540 c3        1 0SD      0.172800
     14 N5        -11.0990   -0.8100   -0.4280 nc        1 0SD     -0.280400
     15 C6         -0.3630    1.3100    0.6160 c3        1 0SD      0.172800
     16 N6         -3.5740   -4.3570   -0.5340 nh        1 0SD     -0.721300
     17 C7          0.1340    1.5800    2.0330 c3        1 0SD     -0.074900
     18 C8         -0.5120   -0.2610   -1.2210 c3        1 0SD      0.124500
     19 C9         -2.0140   -0.5010   -1.2410 ca        1 0SD      0.410600
     20 C10        -2.8640    0.6090   -1.5560 ca        1 0SD     -0.221300
     21 C11        -4.2210    0.4280   -1.6010 ca        1 0SD     -0.150300
     22 C12        -4.7650   -0.8720   -1.3310 ca        1 0SD      0.321300
     23 C13        -3.8330   -1.9210   -1.0140 ca        1 0SD      0.171000
     24 C14        -4.4280   -3.2490   -0.7610 ca        1 0SD      0.635900
     25 C15        -6.5580   -2.3290   -1.1610 cp        1 0SD      0.742500
     26 C16        -8.0200   -2.5950   -1.2380 cp        1 0SD     -0.089500
     27 C17        -8.5000   -3.7910   -1.7220 ca        1 0SD     -0.094000
     28 C18        -9.8980   -4.0560   -1.8020 ca        1 0SD     -0.137000
     29 C19       -10.8380   -3.1460   -1.4010 ca        1 0SD     -0.074000
     30 C20       -10.3890   -1.8940   -0.8940 ca        1 0SD     -0.086000
     31 C21        -8.9500   -1.6130   -0.8160 ca        1 0SD     -0.107000
     32 C22        -8.8780   -0.3070   -0.2800 cc        1 0SD     -0.137100
     33 C23        -4.1450   -5.6820   -0.7660 c3        1 0SD      0.149800
     34 C24        -3.0670   -6.7730   -0.7030 c3        1 0SD      0.123900
     35 C25        -1.7390   -5.4390    0.7220 c3        1 0SD      0.123900
     36 C26        -2.7890   -4.3200    0.6970 c3        1 0SD      0.149800
     37 H2          4.1650    1.8680    2.9000 hc        1 0SD      0.043367
     38 H3          3.8460    0.2110    3.5790 hc        1 0SD      0.043367
     39 H4          4.0080    1.6280    4.6920 hc        1 0SD      0.043367
     40 H5          1.7390    0.7400    5.3130 ho        1 0SD      0.398000
     41 H6          0.7150    3.0870    4.2190 hc        1 0SD      0.043367
     42 H7          2.3270    3.1710    5.0370 hc        1 0SD      0.043367
     43 H8          2.1650    3.7070    3.3120 hc        1 0SD      0.043367
     44 H9          2.1760    2.0730    1.5030 hc        1 0SD      0.043700
     45 H10         3.0510   -0.2370    1.6330 hc        1 0SD      0.058200
     46 H11         1.5000   -0.8160    2.3780 hc        1 0SD      0.058200
     47 H12       -10.4900    0.9710    0.2840 hn        1 0SD      0.321700
     48 H13         1.5440   -1.4020   -0.0010 h1        1 0SD      0.028200
     49 H14         2.0180    0.2930   -0.4750 h1        1 0SD      0.028200
     50 H15        -1.4880    1.3890    0.6040 h1        1 0SD      0.028200
     51 H16         0.0410    2.1200   -0.0640 h1        1 0SD      0.028200
     52 H17        -0.4040    0.9230    2.7660 hc        1 0SD      0.058200
     53 H18        -0.1020    2.6460    2.2830 hc        1 0SD      0.058200
     54 H19        -0.2980    0.6030   -1.9190 h1        1 0SD      0.048700
     55 H20         0.0100   -1.1710   -1.6370 h1        1 0SD      0.048700
     56 H21        -2.4110    1.5910   -1.7560 ha        1 0SD      0.146000
     57 H22        -4.9040    1.2570   -1.8450 ha        1 0SD      0.156000
     58 H23        -7.8100   -4.5790   -2.0620 ha        1 0SD      0.146000
     59 H24       -10.2100   -5.0330   -2.2000 ha        1 0SD      0.134000
     60 H25       -11.9150   -3.3540   -1.4610 ha        1 0SD      0.145000
     61 H26        -8.0240    0.3300   -0.0530 h4        1 0SD      0.193000
     62 H27        -4.6090   -5.6980   -1.7910 h1        1 0SD      0.061950
     63 H28        -4.9450   -5.9250   -0.0090 h1        1 0SD      0.061950
     64 H29        -3.5510   -7.7840   -0.6920 h1        1 0SD      0.057200
     65 H30        -2.3640   -6.6890   -1.5740 h1        1 0SD      0.057200
     66 H31        -0.9460   -5.2580   -0.0490 h1        1 0SD      0.057200
     67 H32        -1.2810   -5.5050    1.7440 h1        1 0SD      0.057200
     68 H33        -3.4650   -4.4450    1.5940 h1        1 0SD      0.061950
     69 H34        -2.2560   -3.3370    0.7930 h1        1 0SD      0.061950
@<TRIPOS>BOND
     1    1   13 1   
     2    1   15 1   
     3    1   18 1   
     4    2    4 1   
     5    2   37 1   
     6    2   38 1   
     7    2   39 1   
     8    3   34 1   
     9    3   35 1   
    10    4    6 1   
    11    4    7 1   
    12    4    9 1   
    13    5   19 ar  
    14    5   23 ar  
    15    6   40 1   
    16    7   41 1   
    17    7   42 1   
    18    7   43 1   
    19    8   24 ar  
    20    8   25 ar  
    21    9   11 1   
    22    9   17 1   
    23    9   44 1   
    24   10   22 ar  
    25   10   25 ar  
    26   11   13 1   
    27   11   45 1   
    28   11   46 1   
    29   12   14 1   
    30   12   32 1   
    31   12   47 1   
    32   13   48 1   
    33   13   49 1   
    34   14   30 2   
    35   15   17 1   
    36   15   50 1   
    37   15   51 1   
    38   16   24 1   
    39   16   33 1   
    40   16   36 1   
    41   17   52 1   
    42   17   53 1   
    43   18   19 1   
    44   18   54 1   
    45   18   55 1   
    46   19   20 ar  
    47   20   21 ar  
    48   20   56 1   
    49   21   22 ar  
    50   21   57 1   
    51   22   23 ar  
    52   23   24 ar  
    53   25   26 1   
    54   26   27 ar  
    55   26   31 ar  
    56   27   28 ar  
    57   27   58 1   
    58   28   29 ar  
    59   28   59 1   
    60   29   30 ar  
    61   29   60 1   
    62   30   31 ar  
    63   31   32 2   
    64   32   61 1   
    65   33   34 1   
    66   33   62 1   
    67   33   63 1   
    68   34   64 1   
    69   34   65 1   
    70   35   36 1   
    71   35   66 1   
    72   35   67 1   
    73   36   68 1   
    74   36   69 1   
@<TRIPOS>SUBSTRUCTURE
     1 0SD         1 TEMP              0 ****  ****    0 ROOT
