@<TRIPOS>MOLECULE
0SD
   69    62     1     0     0
SMALL
bcc


@<TRIPOS>ATOM
      1 N          -1.5720   -2.6580    0.7540 n3        1 0SD     -0.257000
      2 C          -6.6170   -3.0990   -0.4830 c3        1 0SD     -0.222000
      3 O           0.3180    5.2000    2.9540 os        1 0SD     -0.273000
      4 C1         -5.4620   -4.1590   -0.4770 c3        1 0SD      0.082000
      5 N1          0.8560   -0.1020    1.1700 n1        1 0SD     -0.107000
      6 O1         -4.9480   -4.3190   -1.7970 oh        1 0SD     -0.323000
      7 C2         -6.0130   -5.5030    0.0270 c3        1 0SD     -0.222000
      8 N2          2.9610    2.6730    0.3560 n1        1 0SD     -0.235000
      9 C3         -4.2540   -3.6520    0.5160 c3        1 0SD     -0.130000
     10 N3          3.3040    0.9420   -1.2260 n1        1 0SD     -0.170000
     11 C4         -3.1640   -4.5340    0.3860 c3        1 0SD     -0.154000
     12 N4          4.3920    4.7230   -4.7660 n2        1 0SD     -0.110000
     13 C5         -1.9280   -4.0410    1.1140 c3        1 0SD     -0.068500
     14 N5          5.7050    4.3390   -4.7660 n2        1 0SD     -0.099000
     15 C6         -2.6640   -1.7560    0.8800 c3        1 0SD     -0.068500
     16 N6          1.2540    2.7000    1.9560 n3        1 0SD     -0.211000
     17 C7         -3.8850   -2.2340    0.1500 c3        1 0SD     -0.154000
     18 C8         -0.4530   -2.2020    1.6070 c3        1 0SD     -0.027000
     19 C9          0.5810   -1.3560    0.7210 c1        1 0SD     -0.015000
     20 C10         1.2240   -1.8440   -0.4040 c1        1 0SD     -0.113250
     21 C11         2.1220   -1.0780   -1.0550 c1        1 0SD     -0.113250
     22 C12         2.3990    0.1960   -0.5980 c1        1 0SD     -0.004000
     23 C13         1.7670    0.6780    0.5090 c1        1 0SD     -0.093000
     24 C14         2.0670    1.9410    0.9780 c2        1 0SD      0.171000
     25 C15         3.5990    2.1810   -0.7660 c1        1 0SD      0.106000
     26 C16         4.6750    2.7340   -1.7560 c1        1 0SD     -0.045000
     27 C17         5.8160    2.1100   -1.2690 c1        1 0SD     -0.113250
     28 C18         7.0220    2.2070   -1.9710 c1        1 0SD     -0.113250
     29 C19         7.0800    2.9240   -3.1500 c1        1 0SD     -0.073000
     30 C20         5.9190    3.5630   -3.6520 c1        1 0SD     -0.088000
     31 C21         4.7290    3.4670   -2.9590 c1        1 0SD     -0.045000
     32 C22         3.7870    4.1800   -3.6420 c1        1 0SD     -0.111000
     33 C23         2.1210    3.5800    2.7220 c3        1 0SD     -0.086000
     34 C24         1.3490    4.4930    3.6340 c3        1 0SD     -0.027000
     35 C25        -0.5550    4.3210    2.1880 c3        1 0SD     -0.027000
     36 C26         0.2180    3.4060    1.2700 c3        1 0SD     -0.086000
     37 H2         -6.8660   -2.8410    0.5170 hc        1 0SD      0.083167
     38 H3         -7.4230   -3.4860   -0.9400 hc        1 0SD      0.083167
     39 H4         -6.3230   -2.2910   -0.9660 hc        1 0SD      0.083167
     40 H5         -4.2030   -3.8660   -1.8780 ho        1 0SD      0.199000
     41 H6         -6.7780   -5.7530   -0.4980 hc        1 0SD      0.083167
     42 H7         -6.2930   -5.4090    1.0270 hc        1 0SD      0.083167
     43 H8         -5.3060   -6.2080   -0.0570 hc        1 0SD      0.083167
     44 H9         -4.5940   -3.6700    1.5140 hc        1 0SD      0.092000
     45 H10        -2.9540   -4.6380   -0.5550 hc        1 0SD      0.091750
     46 H11        -3.4040   -5.3640    0.7340 hc        1 0SD      0.091750
     47 H12         3.9890    5.1910   -5.3920 DU        1 0SD      0.231500
     48 H13        -2.1050   -4.0860    2.1490 h1        1 0SD      0.072500
     49 H14        -1.1800   -4.6280    0.8960 h1        1 0SD      0.072500
     50 H15        -2.4120   -0.9290    0.5360 h1        1 0SD      0.072500
     51 H16        -2.8680   -1.6570    1.7720 h1        1 0SD      0.072500
     52 H17        -4.6570   -1.6270    0.3640 hc        1 0SD      0.091750
     53 H18        -3.7120   -2.1960   -0.7910 hc        1 0SD      0.091750
     54 H19        -0.8200   -1.6100    2.3700 h1        1 0SD      0.093500
     55 H20         0.0300   -3.0240    2.0090 h1        1 0SD      0.093500
     56 H21         1.0350   -2.6990   -0.7110 ha        1 0SD      0.151500
     57 H22         2.5830   -1.4290   -1.8640 ha        1 0SD      0.151500
     58 H23         5.7760    1.6280   -0.4720 ha        1 0SD      0.151500
     59 H24         7.8280    1.7650   -1.6280 ha        1 0SD      0.151500
     60 H25         7.9300    2.9870   -3.6450 ha        1 0SD      0.146000
     61 H26         2.8440    4.2900   -3.3840 DU        1 0SD      0.231500
     62 H27         2.6960    3.0640    3.2350 h1        1 0SD      0.096750
     63 H28         2.6120    4.0800    2.1530 h1        1 0SD      0.096750
     64 H29         0.9200    3.9230    4.3930 h1        1 0SD      0.097750
     65 H30         1.9690    5.1380    4.0310 h1        1 0SD      0.097750
     66 H31        -1.1730    4.8750    1.6450 h1        1 0SD      0.097750
     67 H32        -1.1140    3.7440    2.8460 h1        1 0SD      0.097750
     68 H33        -0.3920    2.7640    0.8860 h1        1 0SD      0.096750
     69 H34         0.6150    3.9380    0.5500 h1        1 0SD      0.096750
@<TRIPOS>BOND
     1    1   13 1   
     2    1   15 1   
     3    1   18 1   
     4    2    4 1   
     5    2   37 1   
     6    2   38 1   
     7    2   39 1   
     8    3   34 1   
     9    3   35 1   
    10    4    6 1   
    11    4    7 1   
    12    4    9 1   
    13    5   19 1   
    14    6   40 1   
    15    7   41 1   
    16    7   42 1   
    17    7   43 1   
    18    8   24 1   
    19    9   11 1   
    20    9   17 1   
    21    9   44 1   
    22   10   25 1   
    23   11   13 1   
    24   11   45 1   
    25   11   46 1   
    26   12   14 1   
    27   12   32 1   
    28   13   48 1   
    29   13   49 1   
    30   14   30 1   
    31   15   17 1   
    32   15   50 1   
    33   15   51 1   
    34   16   24 1   
    35   16   33 1   
    36   16   36 1   
    37   17   52 1   
    38   17   53 1   
    39   18   19 1   
    40   18   54 1   
    41   18   55 1   
    42   20   21 1   
    43   20   56 1   
    44   21   57 1   
    45   22   23 1   
    46   23   24 1   
    47   26   31 1   
    48   27   28 1   
    49   27   58 1   
    50   28   59 1   
    51   29   30 1   
    52   29   60 1   
    53   33   34 1   
    54   33   62 1   
    55   33   63 1   
    56   34   64 1   
    57   34   65 1   
    58   35   36 1   
    59   35   66 1   
    60   35   67 1   
    61   36   68 1   
    62   36   69 1   
@<TRIPOS>SUBSTRUCTURE
     1 0SD         1 TEMP              0 ****  ****    0 ROOT
