@<TRIPOS>MOLECULE
0SD
   69    74     1     0     0
SMALL
bcc


@<TRIPOS>ATOM
      1 N          -0.0180   -0.0130    0.1200 n3        1 0SD     -0.726600
      2 C           3.6290    1.3080    3.6860 c3        1 0SD     -0.125600
      3 O          -2.3240   -6.7150    0.5200 os        1 0SD     -0.416600
      4 C1          2.1250    1.5520    3.5870 c3        1 0SD      0.152800
      5 N1         -2.4790   -1.7190   -0.9760 nb        1 0SD     -0.611000
      6 O1          1.4310    0.6090    4.4050 oh        1 0SD     -0.595800
      7 C2          1.8120    2.9700    4.0610 c3        1 0SD     -0.125600
      8 N2         -5.7580   -3.4210   -0.8320 nb        1 0SD     -0.760000
      9 C3          1.6290    1.3350    2.1440 c3        1 0SD     -0.045700
     10 N3         -6.1250   -1.0830   -1.3950 nb        1 0SD     -0.706000
     11 C4          1.9440   -0.0700    1.6550 c3        1 0SD     -0.074900
     12 N4        -10.1940    0.0890   -0.0790 na        1 0SD      0.046800
     13 C5          1.4010   -0.3100    0.2490 c3        1 0SD      0.172800
     14 N5        -11.1010   -0.8170   -0.4270 nc        1 0SD     -0.280400
     15 C6         -0.3660    1.3110    0.6130 c3        1 0SD      0.172800
     16 N6         -3.5720   -4.3580   -0.5280 nh        1 0SD     -0.721300
     17 C7          0.1330    1.5810    2.0290 c3        1 0SD     -0.074900
     18 C8         -0.5140   -0.2610   -1.2250 c3        1 0SD      0.124500
     19 C9         -2.0150   -0.5020   -1.2420 ca        1 0SD      0.410600
     20 C10        -2.8670    0.6070   -1.5590 ca        1 0SD     -0.221300
     21 C11        -4.2240    0.4250   -1.6030 ca        1 0SD     -0.150300
     22 C12        -4.7660   -0.8750   -1.3310 ca        1 0SD      0.321300
     23 C13        -3.8330   -1.9220   -1.0120 ca        1 0SD      0.170000
     24 C14        -4.4270   -3.2510   -0.7570 ca        1 0SD      0.635900
     25 C15        -6.5580   -2.3330   -1.1570 cp        1 0SD      0.742500
     26 C16        -8.0200   -2.6000   -1.2330 cp        1 0SD     -0.089500
     27 C17        -8.4990   -3.7980   -1.7150 ca        1 0SD     -0.093000
     28 C18        -9.8960   -4.0640   -1.7930 ca        1 0SD     -0.137000
     29 C19       -10.8370   -3.1550   -1.3940 ca        1 0SD     -0.074000
     30 C20       -10.3900   -1.9010   -0.8900 ca        1 0SD     -0.086000
     31 C21        -8.9500   -1.6190   -0.8130 ca        1 0SD     -0.107000
     32 C22        -8.8800   -0.3110   -0.2800 cc        1 0SD     -0.137100
     33 C23        -4.1420   -5.6840   -0.7570 c3        1 0SD      0.149800
     34 C24        -3.0630   -6.7740   -0.6940 c3        1 0SD      0.123900
     35 C25        -1.7350   -5.4360    0.7280 c3        1 0SD      0.123900
     36 C26        -2.7860   -4.3180    0.7020 c3        1 0SD      0.149800
     37 H2          4.0100    1.6370    4.6830 hc        1 0SD      0.043367
     38 H3          3.8500    0.2210    3.5700 hc        1 0SD      0.043367
     39 H4          4.1640    1.8790    2.8910 hc        1 0SD      0.043367
     40 H5          1.7430    0.7440    5.3070 ho        1 0SD      0.398000
     41 H6          2.1590    3.7130    3.3060 hc        1 0SD      0.043367
     42 H7          2.3250    3.1760    5.0300 hc        1 0SD      0.043367
     43 H8          0.7130    3.0890    4.2150 hc        1 0SD      0.043367
     44 H9          2.1730    2.0790    1.4970 hc        1 0SD      0.043700
     45 H10         1.5040   -0.8110    2.3720 hc        1 0SD      0.058200
     46 H11         3.0520   -0.2300    1.6260 hc        1 0SD      0.058200
     47 H12       -10.4930    0.9670    0.2820 hn        1 0SD      0.321700
     48 H13         1.5460   -1.3980   -0.0070 h1        1 0SD      0.028200
     49 H14         2.0160    0.2980   -0.4810 h1        1 0SD      0.028200
     50 H15        -1.4900    1.3880    0.6010 h1        1 0SD      0.028200
     51 H16         0.0360    2.1210   -0.0680 h1        1 0SD      0.028200
     52 H17        -0.1050    2.6470    2.2790 hc        1 0SD      0.058200
     53 H18        -0.4030    0.9240    2.7630 hc        1 0SD      0.058200
     54 H19        -0.3010    0.6030   -1.9230 h1        1 0SD      0.048700
     55 H20         0.0080   -1.1700   -1.6410 h1        1 0SD      0.048700
     56 H21        -2.4150    1.5890   -1.7610 ha        1 0SD      0.146000
     57 H22        -4.9080    1.2520   -1.8480 ha        1 0SD      0.156000
     58 H23        -7.8090   -4.5870   -2.0530 ha        1 0SD      0.146000
     59 H24       -10.2090   -5.0430   -2.1900 ha        1 0SD      0.134000
     60 H25       -11.9150   -3.3640   -1.4540 ha        1 0SD      0.145000
     61 H26        -8.0260    0.3260   -0.0540 h4        1 0SD      0.193000
     62 H27        -4.9420   -5.9260    0.0010 h1        1 0SD      0.061950
     63 H28        -4.6070   -5.7020   -1.7820 h1        1 0SD      0.061950
     64 H29        -3.5470   -7.7850   -0.6800 h1        1 0SD      0.057200
     65 H30        -2.3610   -6.6910   -1.5650 h1        1 0SD      0.057200
     66 H31        -1.2760   -5.5000    1.7490 h1        1 0SD      0.057200
     67 H32        -0.9430   -5.2560   -0.0450 h1        1 0SD      0.057200
     68 H33        -2.2530   -3.3340    0.7950 h1        1 0SD      0.061950
     69 H34        -3.4600   -4.4420    1.5990 h1        1 0SD      0.061950
@<TRIPOS>BOND
     1    1   13 1   
     2    1   15 1   
     3    1   18 1   
     4    2    4 1   
     5    2   37 1   
     6    2   38 1   
     7    2   39 1   
     8    3   34 1   
     9    3   35 1   
    10    4    6 1   
    11    4    7 1   
    12    4    9 1   
    13    5   19 ar  
    14    5   23 ar  
    15    6   40 1   
    16    7   41 1   
    17    7   42 1   
    18    7   43 1   
    19    8   24 ar  
    20    8   25 ar  
    21    9   11 1   
    22    9   17 1   
    23    9   44 1   
    24   10   22 ar  
    25   10   25 ar  
    26   11   13 1   
    27   11   45 1   
    28   11   46 1   
    29   12   14 1   
    30   12   32 1   
    31   12   47 1   
    32   13   48 1   
    33   13   49 1   
    34   14   30 2   
    35   15   17 1   
    36   15   50 1   
    37   15   51 1   
    38   16   24 1   
    39   16   33 1   
    40   16   36 1   
    41   17   52 1   
    42   17   53 1   
    43   18   19 1   
    44   18   54 1   
    45   18   55 1   
    46   19   20 ar  
    47   20   21 ar  
    48   20   56 1   
    49   21   22 ar  
    50   21   57 1   
    51   22   23 ar  
    52   23   24 ar  
    53   25   26 1   
    54   26   27 ar  
    55   26   31 ar  
    56   27   28 ar  
    57   27   58 1   
    58   28   29 ar  
    59   28   59 1   
    60   29   30 ar  
    61   29   60 1   
    62   30   31 ar  
    63   31   32 2   
    64   32   61 1   
    65   33   34 1   
    66   33   62 1   
    67   33   63 1   
    68   34   64 1   
    69   34   65 1   
    70   35   36 1   
    71   35   66 1   
    72   35   67 1   
    73   36   68 1   
    74   36   69 1   
@<TRIPOS>SUBSTRUCTURE
     1 0SD         1 TEMP              0 ****  ****    0 ROOT
