@<TRIPOS>MOLECULE
0SE
   66    70     1     0     0
SMALL
bcc


@<TRIPOS>ATOM
      1 C1          7.3020    2.2780    2.0180 c3        1 0SE     -0.103600
      2 C2          7.0330    0.8690    1.4940 c3        1 0SE      0.154800
      3 C3          6.5970   -0.0350    2.6410 c3        1 0SE     -0.103600
      4 C4          6.0140    0.9010    0.3370 c3        1 0SE     -0.091700
      5 C5          5.6510   -0.4910   -0.1550 c3        1 0SE     -0.074900
      6 C6          4.6710   -0.4170   -1.3250 c3        1 0SE      0.170800
      7 N7          3.4740    0.3520   -1.0140 n3        1 0SE     -0.727600
      8 C8          3.7730    1.6740   -0.4820 c3        1 0SE      0.170800
      9 C9          4.7410    1.6470    0.7000 c3        1 0SE     -0.074900
     10 C10         2.5430    0.3960   -2.1320 c3        1 0SE      0.124500
     11 C11         1.1270    0.7180   -1.6850 ca        1 0SE      0.406600
     12 C12         0.6870    2.0780   -1.7850 ca        1 0SE     -0.220300
     13 C13        -0.5890    2.4050   -1.4110 ca        1 0SE     -0.149300
     14 C14        -1.4630    1.3750   -0.9250 ca        1 0SE      0.330300
     15 C15        -0.9280    0.0420   -0.8500 ca        1 0SE      0.165000
     16 N16         0.3520   -0.2630   -1.2300 nb        1 0SE     -0.611000
     17 C17        -1.8620   -0.9930   -0.3630 ca        1 0SE      0.640900
     18 N18        -3.1160   -0.6630   -0.0150 nb        1 0SE     -0.774000
     19 C19        -3.5230    0.6620   -0.1350 cp        1 0SE      0.770500
     20 N20        -2.7540    1.6790   -0.5680 nb        1 0SE     -0.718000
     21 C21        -4.9120    0.9560    0.2600 cp        1 0SE     -0.455100
     22 C22        -5.8890   -0.0590    0.3960 ca        1 0SE      0.514700
     23 N23        -7.1550    0.1810    0.7520 nb        1 0SE     -0.768000
     24 C24        -7.4890    1.5140    1.0060 ca        1 0SE      0.895900
     25 N25        -6.5980    2.5830    0.8830 nb        1 0SE     -0.768000
     26 C26        -5.3480    2.2780    0.5210 ca        1 0SE      0.514700
     27 N27        -8.7730    1.7880    1.4420 nh        1 0SE     -0.944500
     28 N28        -1.4500   -2.3500   -0.3590 nh        1 0SE     -0.721300
     29 C29        -2.5090   -3.3560   -0.3510 c3        1 0SE      0.150300
     30 C30        -1.9410   -4.7660   -0.5730 c3        1 0SE      0.123900
     31 O31        -0.9090   -5.0720    0.3570 os        1 0SE     -0.416600
     32 C32         0.1430   -4.1140    0.3230 c3        1 0SE      0.123900
     33 C33        -0.3780   -2.6910    0.5700 c3        1 0SE      0.150300
     34 O34         8.2950    0.4260    0.9850 oh        1 0SE     -0.600800
     35 H1          6.4450    2.6170    2.6460 hc        1 0SE      0.044700
     36 H2          8.2310    2.2740    2.6370 hc        1 0SE      0.044700
     37 H3          7.4450    2.9860    1.1690 hc        1 0SE      0.044700
     38 H4          5.5770    0.2450    2.9910 hc        1 0SE      0.044700
     39 H5          6.5890   -1.1040    2.3190 hc        1 0SE      0.044700
     40 H6          7.3140    0.0690    3.4900 hc        1 0SE      0.044700
     41 H7          6.5180    1.4510   -0.5100 hc        1 0SE      0.060700
     42 H8          6.5680   -1.0320   -0.5040 hc        1 0SE      0.049950
     43 H9          5.1920   -1.0830    0.6780 hc        1 0SE      0.049950
     44 H10         5.2140    0.0070   -2.2220 h1        1 0SE      0.031950
     45 H11         4.3450   -1.4640   -1.5860 h1        1 0SE      0.031950
     46 H13         4.2050    2.3510   -1.2790 h1        1 0SE      0.031950
     47 H14         2.7980    2.1270   -0.1440 h1        1 0SE      0.031950
     48 H15         4.2500    1.1600    1.5820 hc        1 0SE      0.049950
     49 H16         4.9760    2.7070    0.9760 hc        1 0SE      0.049950
     50 H17         2.8400    1.1690   -2.9020 h1        1 0SE      0.049700
     51 H18         2.5480   -0.6100   -2.6430 h1        1 0SE      0.049700
     52 H19         1.3850    2.8400   -2.1610 ha        1 0SE      0.147000
     53 H20        -0.9620    3.4390   -1.4760 ha        1 0SE      0.158000
     54 H21        -5.6520   -1.1230    0.2050 h4        1 0SE      0.046100
     55 H22        -4.6610    3.1430    0.4350 h4        1 0SE      0.046100
     56 H23        -9.4540    1.0700    1.4080 hn        1 0SE      0.444800
     57 H24        -9.0700    2.7310    1.4940 hn        1 0SE      0.444800
     58 H25        -3.0780   -3.3500    0.6230 h1        1 0SE      0.060950
     59 H26        -3.2290   -3.1270   -1.1850 h1        1 0SE      0.060950
     60 H27        -2.7360   -5.5310   -0.3720 h1        1 0SE      0.057450
     61 H28        -1.5510   -4.8780   -1.6190 h1        1 0SE      0.057450
     62 H29         0.8270   -4.4180    1.1580 h1        1 0SE      0.057450
     63 H30         0.6780   -4.1760   -0.6610 h1        1 0SE      0.057450
     64 H31         0.4820   -1.9780    0.4560 h1        1 0SE      0.060950
     65 H32        -0.7500   -2.6290    1.6350 h1        1 0SE      0.060950
     66 H33         8.1890   -0.4960    0.7250 ho        1 0SE      0.397000
@<TRIPOS>BOND
     1    1    2 1   
     2    1   35 1   
     3    1   36 1   
     4    1   37 1   
     5    2    3 1   
     6    2    4 1   
     7    2   34 1   
     8    3   38 1   
     9    3   39 1   
    10    3   40 1   
    11    4    5 1   
    12    4    9 1   
    13    4   41 1   
    14    5    6 1   
    15    5   42 1   
    16    5   43 1   
    17    6    7 1   
    18    6   44 1   
    19    6   45 1   
    20    7    8 1   
    21    7   10 1   
    22    8    9 1   
    23    8   46 1   
    24    8   47 1   
    25    9   48 1   
    26    9   49 1   
    27   10   11 1   
    28   10   50 1   
    29   10   51 1   
    30   11   12 ar  
    31   11   16 ar  
    32   12   13 ar  
    33   12   52 1   
    34   13   14 ar  
    35   13   53 1   
    36   14   15 ar  
    37   14   20 ar  
    38   15   16 ar  
    39   15   17 ar  
    40   17   18 ar  
    41   17   28 1   
    42   18   19 ar  
    43   19   20 ar  
    44   19   21 1   
    45   21   22 ar  
    46   21   26 ar  
    47   22   23 ar  
    48   22   54 1   
    49   23   24 ar  
    50   24   25 ar  
    51   24   27 1   
    52   25   26 ar  
    53   26   55 1   
    54   27   56 1   
    55   27   57 1   
    56   28   29 1   
    57   28   33 1   
    58   29   30 1   
    59   29   58 1   
    60   29   59 1   
    61   30   31 1   
    62   30   60 1   
    63   30   61 1   
    64   31   32 1   
    65   32   33 1   
    66   32   62 1   
    67   32   63 1   
    68   33   64 1   
    69   33   65 1   
    70   34   66 1   
@<TRIPOS>SUBSTRUCTURE
     1 0SE         1 TEMP              0 ****  ****    0 ROOT
