@<TRIPOS>MOLECULE
0SE
   66    70     1     0     0
SMALL
bcc


@<TRIPOS>ATOM
      1 C1         -0.0210   -0.6910    0.0160 c3        1 0SE     -0.123100
      2 C2          1.4750   -0.3940   -0.0590 c3        1 0SE      0.155800
      3 C3          1.7210    0.7470   -1.0380 c3        1 0SE     -0.123100
      4 C4          2.0530   -0.1270    1.3430 c3        1 0SE     -0.052700
      5 C5          3.5270    0.2400    1.2810 c3        1 0SE     -0.073900
      6 C6          4.0900    0.4590    2.6830 c3        1 0SE      0.170800
      7 N7          3.3360    1.4430    3.4510 n3        1 0SE     -0.728600
      8 C8          1.9070    1.1640    3.4820 c3        1 0SE      0.170800
      9 C9          1.2960    0.9530    2.0970 c3        1 0SE     -0.073900
     10 C10         3.8950    1.6500    4.7780 c3        1 0SE      0.123500
     11 C11         3.4740    2.9830    5.3750 ca        1 0SE      0.407600
     12 C12         2.3660    2.9880    6.2840 ca        1 0SE     -0.220300
     13 C13         1.9680    4.1660    6.8580 ca        1 0SE     -0.150300
     14 C14         2.6720    5.3760    6.5360 ca        1 0SE      0.330300
     15 C15         3.7640    5.2720    5.6060 ca        1 0SE      0.165000
     16 N16         4.1460    4.0820    5.0440 nb        1 0SE     -0.611000
     17 C17         4.4750    6.5330    5.3150 ca        1 0SE      0.641900
     18 N18         4.0850    7.6790    5.8970 nb        1 0SE     -0.774000
     19 C19         3.0160    7.6550    6.7860 cp        1 0SE      0.769500
     20 N20         2.3030    6.5630    7.1210 nb        1 0SE     -0.718000
     21 C21         2.6420    8.9450    7.3910 cp        1 0SE     -0.454100
     22 C22         3.5130   10.0610    7.3870 ca        1 0SE      0.514200
     23 N23         3.2000   11.2420    7.9310 nb        1 0SE     -0.767500
     24 C24         1.9330   11.3430    8.5130 ca        1 0SE      0.894900
     25 N25         1.0140   10.2930    8.5790 nb        1 0SE     -0.767500
     26 C26         1.3880    9.1380    8.0210 ca        1 0SE      0.514200
     27 N27         1.5510   12.5710    9.0210 nh        1 0SE     -0.944500
     28 N28         5.6290    6.5030    4.4920 nh        1 0SE     -0.721300
     29 C29         6.5550    7.6250    4.6200 c3        1 0SE      0.150300
     30 C30         7.8590    7.3630    3.8530 c3        1 0SE      0.123900
     31 O31         7.6130    7.0290    2.4920 os        1 0SE     -0.416600
     32 C32         6.7430    5.9100    2.3660 c3        1 0SE      0.123900
     33 C33         5.4120    6.1410    3.0940 c3        1 0SE      0.150300
     34 O34         2.1630   -1.5670   -0.5110 oh        1 0SE     -0.603800
     35 H1         -0.3760   -1.1090   -0.9560 hc        1 0SE      0.043533
     36 H2         -0.5890    0.2440    0.2310 hc        1 0SE      0.043533
     37 H3         -0.2260   -1.4380    0.8190 hc        1 0SE      0.043533
     38 H4          1.1450    0.5750   -1.9790 hc        1 0SE      0.043533
     39 H5          1.4000    1.7180   -0.5950 hc        1 0SE      0.043533
     40 H6          2.8060    0.8050   -1.2960 hc        1 0SE      0.043533
     41 H7          1.9570   -1.0950    1.9150 hc        1 0SE      0.060700
     42 H8          3.6640    1.1720    0.6740 hc        1 0SE      0.053700
     43 H9          4.0980   -0.5860    0.7850 hc        1 0SE      0.053700
     44 H10         5.1470    0.8400    2.5900 h1        1 0SE      0.031200
     45 H11         4.1300   -0.5370    3.2160 h1        1 0SE      0.031200
     46 H13         1.4050    2.0470    3.9710 h1        1 0SE      0.031200
     47 H14         1.6790    0.2530    4.1130 h1        1 0SE      0.031200
     48 H15         0.2250    0.6570    2.2350 hc        1 0SE      0.053700
     49 H16         1.3200    1.9150    1.5220 hc        1 0SE      0.053700
     50 H17         5.0200    1.6200    4.7010 h1        1 0SE      0.049700
     51 H18         3.5820    0.8400    5.5020 h1        1 0SE      0.049700
     52 H19         1.8500    2.0420    6.5040 ha        1 0SE      0.147000
     53 H20         1.1220    4.2080    7.5610 ha        1 0SE      0.158000
     54 H21         4.5200   10.0110    6.9290 h4        1 0SE      0.046100
     55 H22         0.6400    8.3230    8.0830 h4        1 0SE      0.046100
     56 H23         2.2320   13.2850    9.1100 hn        1 0SE      0.443800
     57 H24         0.7240   12.6280    9.5630 hn        1 0SE      0.443800
     58 H25         6.1000    8.5820    4.2350 h1        1 0SE      0.061200
     59 H26         6.8040    7.7630    5.7080 h1        1 0SE      0.061200
     60 H27         8.4660    8.3050    3.8050 h1        1 0SE      0.057700
     61 H28         8.4510    6.5440    4.3400 h1        1 0SE      0.057700
     62 H29         6.5600    5.8190    1.2630 h1        1 0SE      0.057700
     63 H30         7.2530    4.9890    2.7530 h1        1 0SE      0.057700
     64 H31         4.8040    5.2010    3.0220 h1        1 0SE      0.061200
     65 H32         4.8540    6.9660    2.5610 h1        1 0SE      0.061200
     66 H33         1.8420   -1.7520   -1.4010 ho        1 0SE      0.398000
@<TRIPOS>BOND
     1    1    2 1   
     2    1   35 1   
     3    1   36 1   
     4    1   37 1   
     5    2    3 1   
     6    2    4 1   
     7    2   34 1   
     8    3   38 1   
     9    3   39 1   
    10    3   40 1   
    11    4    5 1   
    12    4    9 1   
    13    4   41 1   
    14    5    6 1   
    15    5   42 1   
    16    5   43 1   
    17    6    7 1   
    18    6   44 1   
    19    6   45 1   
    20    7    8 1   
    21    7   10 1   
    22    8    9 1   
    23    8   46 1   
    24    8   47 1   
    25    9   48 1   
    26    9   49 1   
    27   10   11 1   
    28   10   50 1   
    29   10   51 1   
    30   11   12 ar  
    31   11   16 ar  
    32   12   13 ar  
    33   12   52 1   
    34   13   14 ar  
    35   13   53 1   
    36   14   15 ar  
    37   14   20 ar  
    38   15   16 ar  
    39   15   17 ar  
    40   17   18 ar  
    41   17   28 1   
    42   18   19 ar  
    43   19   20 ar  
    44   19   21 1   
    45   21   22 ar  
    46   21   26 ar  
    47   22   23 ar  
    48   22   54 1   
    49   23   24 ar  
    50   24   25 ar  
    51   24   27 1   
    52   25   26 ar  
    53   26   55 1   
    54   27   56 1   
    55   27   57 1   
    56   28   29 1   
    57   28   33 1   
    58   29   30 1   
    59   29   58 1   
    60   29   59 1   
    61   30   31 1   
    62   30   60 1   
    63   30   61 1   
    64   31   32 1   
    65   32   33 1   
    66   32   62 1   
    67   32   63 1   
    68   33   64 1   
    69   33   65 1   
    70   34   66 1   
@<TRIPOS>SUBSTRUCTURE
     1 0SE         1 TEMP              0 ****  ****    0 ROOT
