@<TRIPOS>MOLECULE
0SE
   66    70     1     0     0
SMALL
bcc


@<TRIPOS>ATOM
      1 C1         -0.0180   -0.7020    0.0220 c3        1 0SE     -0.123100
      2 C2          1.4770   -0.4000   -0.0570 c3        1 0SE      0.155800
      3 C3          1.7170    0.7420   -1.0370 c3        1 0SE     -0.123100
      4 C4          2.0570   -0.1300    1.3440 c3        1 0SE     -0.052700
      5 C5          3.5290    0.2420    1.2790 c3        1 0SE     -0.073900
      6 C6          4.0950    0.4630    2.6800 c3        1 0SE      0.170800
      7 N7          3.3390    1.4440    3.4490 n3        1 0SE     -0.728600
      8 C8          1.9110    1.1610    3.4830 c3        1 0SE      0.170800
      9 C9          1.2980    0.9470    2.1000 c3        1 0SE     -0.073900
     10 C10         3.9000    1.6530    4.7750 c3        1 0SE      0.123500
     11 C11         3.4770    2.9860    5.3720 ca        1 0SE      0.407600
     12 C12         2.3680    2.9890    6.2790 ca        1 0SE     -0.220300
     13 C13         1.9690    4.1670    6.8540 ca        1 0SE     -0.150300
     14 C14         2.6720    5.3770    6.5330 ca        1 0SE      0.330300
     15 C15         3.7640    5.2740    5.6040 ca        1 0SE      0.165000
     16 N16         4.1480    4.0860    5.0430 nb        1 0SE     -0.611000
     17 C17         4.4750    6.5360    5.3140 ca        1 0SE      0.641900
     18 N18         4.0840    7.6820    5.8960 nb        1 0SE     -0.774000
     19 C19         3.0130    7.6570    6.7840 cp        1 0SE      0.769500
     20 N20         2.3000    6.5640    7.1170 nb        1 0SE     -0.718000
     21 C21         2.6370    8.9460    7.3890 cp        1 0SE     -0.454100
     22 C22         3.5070   10.0630    7.3860 ca        1 0SE      0.514200
     23 N23         3.1920   11.2430    7.9290 nb        1 0SE     -0.767500
     24 C24         1.9240   11.3430    8.5080 ca        1 0SE      0.894900
     25 N25         1.0050   10.2930    8.5730 nb        1 0SE     -0.767500
     26 C26         1.3820    9.1380    8.0150 ca        1 0SE      0.514200
     27 N27         1.5400   12.5710    9.0160 nv        1 0SE     -0.944500
     28 N28         5.6310    6.5070    4.4930 nh        1 0SE     -0.721300
     29 C29         6.5560    7.6300    4.6240 c3        1 0SE      0.150300
     30 C30         7.8610    7.3690    3.8580 c3        1 0SE      0.123900
     31 O31         7.6170    7.0360    2.4970 os        1 0SE     -0.416600
     32 C32         6.7480    5.9160    2.3680 c3        1 0SE      0.123900
     33 C33         5.4160    6.1470    3.0950 c3        1 0SE      0.150300
     34 O34         2.1680   -1.5700   -0.5110 oh        1 0SE     -0.603800
     35 H1         -0.5890    0.2310    0.2370 hc        1 0SE      0.043533
     36 H2         -0.3740   -1.1220   -0.9500 hc        1 0SE      0.043533
     37 H3         -0.2180   -1.4500    0.8250 hc        1 0SE      0.043533
     38 H4          2.8010    0.8040   -1.2960 hc        1 0SE      0.043533
     39 H5          1.3920    1.7120   -0.5930 hc        1 0SE      0.043533
     40 H6          1.1390    0.5670   -1.9760 hc        1 0SE      0.043533
     41 H7          1.9660   -1.0980    1.9170 hc        1 0SE      0.060700
     42 H8          3.6610    1.1740    0.6710 hc        1 0SE      0.053700
     43 H9          4.1030   -0.5820    0.7810 hc        1 0SE      0.053700
     44 H10         4.1390   -0.5330    3.2120 h1        1 0SE      0.031200
     45 H11         5.1500    0.8470    2.5840 h1        1 0SE      0.031200
     46 H13         1.4070    2.0420    3.9730 h1        1 0SE      0.031200
     47 H14         1.6880    0.2480    4.1140 h1        1 0SE      0.031200
     48 H15         1.3170    1.9090    1.5240 hc        1 0SE      0.053700
     49 H16         0.2270    0.6480    2.2390 hc        1 0SE      0.053700
     50 H17         3.5900    0.8430    5.5000 h1        1 0SE      0.049700
     51 H18         5.0250    1.6250    4.6960 h1        1 0SE      0.049700
     52 H19         1.8530    2.0430    6.5000 ha        1 0SE      0.147000
     53 H20         1.1210    4.2070    7.5560 ha        1 0SE      0.158000
     54 H21         4.5150   10.0130    6.9310 h4        1 0SE      0.046100
     55 H22         0.6340    8.3220    8.0760 h4        1 0SE      0.046100
     56 H23         2.2200   13.2860    9.1070 hn        1 0SE      0.443800
     57 H24         0.7110   12.6270    9.5570 hn        1 0SE      0.443800
     58 H25         6.8040    7.7660    5.7120 h1        1 0SE      0.061200
     59 H26         6.1010    8.5870    4.2390 h1        1 0SE      0.061200
     60 H27         8.4520    6.5500    4.3450 h1        1 0SE      0.057700
     61 H28         8.4680    8.3110    3.8120 h1        1 0SE      0.057700
     62 H29         7.2580    4.9950    2.7550 h1        1 0SE      0.057700
     63 H30         6.5660    5.8270    1.2650 h1        1 0SE      0.057700
     64 H31         4.8080    5.2060    3.0210 h1        1 0SE      0.061200
     65 H32         4.8580    6.9720    2.5620 h1        1 0SE      0.061200
     66 H33         1.8450   -1.7560   -1.3990 ho        1 0SE      0.398000
@<TRIPOS>BOND
     1    1    2 1   
     2    1   35 1   
     3    1   36 1   
     4    1   37 1   
     5    2    3 1   
     6    2    4 1   
     7    2   34 1   
     8    3   38 1   
     9    3   39 1   
    10    3   40 1   
    11    4    5 1   
    12    4    9 1   
    13    4   41 1   
    14    5    6 1   
    15    5   42 1   
    16    5   43 1   
    17    6    7 1   
    18    6   44 1   
    19    6   45 1   
    20    7    8 1   
    21    7   10 1   
    22    8    9 1   
    23    8   46 1   
    24    8   47 1   
    25    9   48 1   
    26    9   49 1   
    27   10   11 1   
    28   10   50 1   
    29   10   51 1   
    30   11   12 ar  
    31   11   16 ar  
    32   12   13 ar  
    33   12   52 1   
    34   13   14 ar  
    35   13   53 1   
    36   14   15 ar  
    37   14   20 ar  
    38   15   16 ar  
    39   15   17 ar  
    40   17   18 ar  
    41   17   28 1   
    42   18   19 ar  
    43   19   20 ar  
    44   19   21 1   
    45   21   22 ar  
    46   21   26 ar  
    47   22   23 ar  
    48   22   54 1   
    49   23   24 ar  
    50   24   25 ar  
    51   24   27 1   
    52   25   26 ar  
    53   26   55 1   
    54   27   56 1   
    55   27   57 1   
    56   28   29 1   
    57   28   33 1   
    58   29   30 1   
    59   29   58 1   
    60   29   59 1   
    61   30   31 1   
    62   30   60 1   
    63   30   61 1   
    64   31   32 1   
    65   32   33 1   
    66   32   62 1   
    67   32   63 1   
    68   33   64 1   
    69   33   65 1   
    70   34   66 1   
@<TRIPOS>SUBSTRUCTURE
     1 0SE         1 TEMP              0 ****  ****    0 ROOT
