@<TRIPOS>MOLECULE
0SE
   67    71     1     0     0
SMALL
bcc


@<TRIPOS>ATOM
      1 C1          0.1640   -1.0110    0.0020 c3        1 0SE     -0.123600
      2 C2          1.5420   -0.3640   -0.1100 c3        1 0SE      0.156800
      3 C3          1.4490    0.8970   -0.9610 c3        1 0SE     -0.123600
      4 C4          2.1440   -0.1140    1.2860 c3        1 0SE     -0.053700
      5 C5          3.5040    0.5580    1.1970 c3        1 0SE     -0.074400
      6 C6          4.1060    0.7450    2.5880 c3        1 0SE      0.173800
      7 N7          3.2200    1.4600    3.4990 n3        1 0SE     -0.739600
      8 C8          1.8780    0.8980    3.5580 c3        1 0SE      0.173800
      9 C9          1.2360    0.7080    2.1840 c3        1 0SE     -0.074400
     10 C10         3.8030    1.6540    4.8150 c3        1 0SE      0.120500
     11 C11         3.3940    3.0000    5.4020 ca        1 0SE      0.444600
     12 C12         2.2830    3.0280    6.3070 ca        1 0SE     -0.209300
     13 C13         1.8960    4.2190    6.8650 ca        1 0SE     -0.139300
     14 C14         2.6140    5.4140    6.5280 ca        1 0SE      0.307300
     15 C15         3.7030    5.2920    5.5960 ca        1 0SE      0.198000
     16 N16         4.0740    4.0910    5.0570 nb        1 0SE     -0.625000
     17 C17         4.4350    6.5400    5.2790 ca        1 0SE      0.664900
     18 N18         4.0650    7.7000    5.8680 nb        1 0SE     -0.791000
     19 C19         3.0060    7.6790    6.7570 cp        1 0SE      0.692500
     20 N20         2.2640    6.6140    7.1040 nb        1 0SE     -0.688000
     21 C21         2.6560    8.9810    7.3700 cp        1 0SE     -0.265100
     22 C22         3.5940   10.0390    7.4520 ca        1 0SE      0.479200
     23 N23         3.2930   11.2300    8.0070 nb        1 0SE     -0.664500
     24 C24         2.0160   11.3470    8.4900 ca        1 0SE      0.666900
     25 N25         1.0240   10.3980    8.4680 nb        1 0SE     -0.664500
     26 C26         1.3650    9.2230    7.9040 ca        1 0SE      0.479200
     27 N27         1.6590   12.6560    9.1100 n4        1 0SE     -0.811300
     28 N28         5.5700    6.5050    4.4560 nh        1 0SE     -0.723300
     29 C29         6.4890    7.6380    4.5170 c3        1 0SE      0.155800
     30 C30         7.8210    7.3280    3.8170 c3        1 0SE      0.120900
     31 O31         7.6190    6.8650    2.4890 os        1 0SE     -0.405600
     32 C32         6.7900    5.7090    2.4520 c3        1 0SE      0.120900
     33 C33         5.4260    5.9790    3.1020 c3        1 0SE      0.155800
     34 O34         2.4490   -1.2860   -0.7250 oh        1 0SE     -0.602800
     35 H1          0.1960   -1.8670    0.7160 hc        1 0SE      0.044367
     36 H2         -0.5860   -0.2650    0.3540 hc        1 0SE      0.044367
     37 H3         -0.1590   -1.3950   -0.9960 hc        1 0SE      0.044367
     38 H4          2.4710    1.2460   -1.2440 hc        1 0SE      0.044367
     39 H5          0.8780    0.6830   -1.8970 hc        1 0SE      0.044367
     40 H6          0.9270    1.7080   -0.4030 hc        1 0SE      0.044367
     41 H7          2.2860   -1.1300    1.7550 hc        1 0SE      0.063700
     42 H8          3.4070    1.5540    0.6920 hc        1 0SE      0.056450
     43 H9          4.1970   -0.0760    0.5850 hc        1 0SE      0.056450
     44 H10         5.0530    1.3490    2.4920 h1        1 0SE      0.031700
     45 H11         4.3860   -0.2700    2.9990 h1        1 0SE      0.031700
     46 H13         1.2450    1.6090    4.1610 h1        1 0SE      0.031700
     47 H14         1.8730   -0.0990    4.0930 h1        1 0SE      0.031700
     48 H15         0.2550    0.1860    2.3320 hc        1 0SE      0.056450
     49 H16         1.0310    1.7060    1.7190 hc        1 0SE      0.056450
     50 H17         4.9280    1.6150    4.7440 h1        1 0SE      0.058700
     51 H18         3.4830    0.8570    5.5500 h1        1 0SE      0.058700
     52 H19         1.7540    2.0910    6.5390 ha        1 0SE      0.161000
     53 H20         1.0480    4.2770    7.5660 ha        1 0SE      0.163000
     54 H21         4.6300    9.9470    7.0580 h4        1 0SE      0.091600
     55 H22         0.5630    8.4530    7.8880 h4        1 0SE      0.091600
     56 H23         2.4670   13.2920    9.0760 hn        1 0SE      0.479133
     57 H24         1.3820   12.5000   10.0860 hn        1 0SE      0.479133
     58 H25         6.7080    7.8730    5.5950 h1        1 0SE      0.063950
     59 H26         6.0320    8.5510    4.0370 h1        1 0SE      0.063950
     60 H27         8.4080    6.5700    4.3990 h1        1 0SE      0.066200
     61 H28         8.4150    8.2730    3.7000 h1        1 0SE      0.066200
     62 H29         6.6520    5.4950    1.3600 h1        1 0SE      0.066200
     63 H30         7.3100    4.8520    2.9550 h1        1 0SE      0.066200
     64 H31         4.8720    6.7320    2.4670 h1        1 0SE      0.063950
     65 H32         4.8440    5.0190    3.1000 h1        1 0SE      0.063950
     66 H33         2.1020   -1.4740   -1.6050 ho        1 0SE      0.403000
     67 H273        0.8730   13.0680    8.5930 hn        1 0SE      0.479133
@<TRIPOS>BOND
     1    1    2 1   
     2    1   35 1   
     3    1   36 1   
     4    1   37 1   
     5    2    3 1   
     6    2    4 1   
     7    2   34 1   
     8    3   38 1   
     9    3   39 1   
    10    3   40 1   
    11    4    5 1   
    12    4    9 1   
    13    4   41 1   
    14    5    6 1   
    15    5   42 1   
    16    5   43 1   
    17    6    7 1   
    18    6   44 1   
    19    6   45 1   
    20    7    8 1   
    21    7   10 1   
    22    8    9 1   
    23    8   46 1   
    24    8   47 1   
    25    9   48 1   
    26    9   49 1   
    27   10   11 1   
    28   10   50 1   
    29   10   51 1   
    30   11   12 ar  
    31   11   16 ar  
    32   12   13 ar  
    33   12   52 1   
    34   13   14 ar  
    35   13   53 1   
    36   14   15 ar  
    37   14   20 ar  
    38   15   16 ar  
    39   15   17 ar  
    40   17   18 ar  
    41   17   28 1   
    42   18   19 ar  
    43   19   20 ar  
    44   19   21 1   
    45   21   22 ar  
    46   21   26 ar  
    47   22   23 ar  
    48   22   54 1   
    49   23   24 ar  
    50   24   25 ar  
    51   24   27 1   
    52   25   26 ar  
    53   26   55 1   
    54   27   56 1   
    55   27   57 1   
    56   27   67 1   
    57   28   29 1   
    58   28   33 1   
    59   29   30 1   
    60   29   58 1   
    61   29   59 1   
    62   30   31 1   
    63   30   60 1   
    64   30   61 1   
    65   31   32 1   
    66   32   33 1   
    67   32   62 1   
    68   32   63 1   
    69   33   64 1   
    70   33   65 1   
    71   34   66 1   
@<TRIPOS>SUBSTRUCTURE
     1 0SE         1 TEMP              0 ****  ****    0 ROOT
