@<TRIPOS>MOLECULE
0SE
   66    62     1     0     0
SMALL
bcc


@<TRIPOS>ATOM
      1 C1          0.3130   -7.9040    1.3730 c3        1 0SE     -0.125600
      2 C2          1.1010   -6.5540    1.6770 c3        1 0SE      0.151800
      3 C3          2.6190   -6.8600    1.8130 c3        1 0SE     -0.125600
      4 C4          0.8780   -5.5460    0.5150 c3        1 0SE     -0.045700
      5 C5         -0.5880   -5.3050    0.3640 c3        1 0SE     -0.074900
      6 C6         -0.8930   -4.1940   -0.6170 c3        1 0SE      0.169300
      7 N7         -0.1280   -2.9340   -0.3190 n3        1 0SE     -0.729600
      8 C8          1.3240   -3.1650   -0.1710 c3        1 0SE      0.169300
      9 C9          1.6380   -4.2760    0.8170 c3        1 0SE     -0.074900
     10 C10        -0.3460   -1.9690   -1.3930 c3        1 0SE      0.185900
     11 C11        -0.7130   -0.5770   -0.7810 c1        1 0SE      0.331700
     12 C12        -1.6430   -0.5560    0.2710 c1        1 0SE     -0.054500
     13 C13        -2.0140    0.6250    0.8270 c1        1 0SE     -0.054500
     14 C14        -1.4720    1.8210    0.3550 cg        1 0SE      0.337800
     15 C15        -0.5690    1.8040   -0.6670 cg        1 0SE     -0.112000
     16 N16        -0.1850    0.5850   -1.2410 n1        1 0SE     -0.439800
     17 C17        -0.0840    3.0250   -1.2000 c1        1 0SE      0.254800
     18 N18        -0.5150    4.1930   -0.6980 n1        1 0SE     -0.589800
     19 C19        -1.4560    4.2060    0.3640 cg        1 0SE      0.466800
     20 N20        -1.9200    3.0410    0.8740 n1        1 0SE     -0.524800
     21 C21        -2.1060    5.4220    1.0170 cg        1 0SE     -0.214000
     22 C22        -1.5070    6.0250    2.0980 c1        1 0SE      0.431300
     23 N23        -2.1120    7.0450    2.7130 n1        1 0SE     -0.567800
     24 C24        -3.3430    7.4960    2.2620 c1        1 0SE      0.555600
     25 N25        -3.9280    6.9100    1.2080 n1        1 0SE     -0.566800
     26 C26        -3.3130    5.8660    0.5760 c1        1 0SE      0.105500
     27 N27        -3.9790    8.5950    2.9040 n3        1 0SE     -0.806400
     28 N28         1.1230    3.1580   -2.0580 n3        1 0SE     -0.604200
     29 C29         2.2230    3.9830   -1.2960 c3        1 0SE      0.171300
     30 C30         3.3710    3.8300   -2.4100 c3        1 0SE      0.115900
     31 O31         3.0140    4.4190   -3.6650 os        1 0SE     -0.420600
     32 C32         1.7200    4.6020   -3.7670 c3        1 0SE      0.115900
     33 C33         0.7550    3.7270   -3.3090 c3        1 0SE      0.171300
     34 O34         0.6440   -6.0140    2.8330 oh        1 0SE     -0.595800
     35 H1          0.1750   -8.3940    2.2060 hc        1 0SE      0.043367
     36 H2          0.8300   -8.4460    0.7620 hc        1 0SE      0.043367
     37 H3         -0.5540   -7.6950    0.9690 hc        1 0SE      0.043367
     38 H4          3.0750   -6.0990    2.2920 hc        1 0SE      0.043367
     39 H5          3.0170   -6.9690    0.9100 hc        1 0SE      0.043367
     40 H6          2.7420   -7.6950    2.3300 hc        1 0SE      0.043367
     41 H7          1.2100   -5.9200   -0.2850 hc        1 0SE      0.044700
     42 H8         -1.0170   -6.1340    0.0490 hc        1 0SE      0.057450
     43 H9         -0.9680   -5.0630    1.2560 hc        1 0SE      0.057450
     44 H10        -1.8390   -4.0030   -0.5830 h1        1 0SE      0.031950
     45 H11        -0.6540   -4.5070   -1.5540 h1        1 0SE      0.031950
     46 H13         1.7080   -3.4120   -1.0710 h1        1 0SE      0.031950
     47 H14         1.7530   -2.3220    0.1410 h1        1 0SE      0.031950
     48 H15         2.5750   -4.4590    0.7890 hc        1 0SE      0.057450
     49 H16         1.4020   -3.9760    1.7160 hc        1 0SE      0.057450
     50 H17        -1.0720   -2.2740   -1.9640 h1        1 0SE      0.050700
     51 H18         0.4440   -1.8900   -1.9040 h1        1 0SE      0.050700
     52 H19        -1.9400   -1.3890    0.6690 ha        1 0SE      0.103500
     53 H20        -2.6450    0.6370    1.5410 ha        1 0SE      0.103500
     54 H21        -0.6400    5.7090    2.4170 ha        1 0SE      0.123500
     55 H22        -3.7400    5.4410   -0.1900 ha        1 0SE      0.126500
     56 H23        -3.5390    9.0570    3.5770 hn        1 0SE      0.443300
     57 H24        -4.7970    8.8560    2.6420 hn        1 0SE      0.443300
     58 H25         1.9520    4.9360   -1.1730 h1        1 0SE      0.066700
     59 H26         2.4740    3.5630   -0.4600 h1        1 0SE      0.066700
     60 H27         4.1910    4.2590   -2.0810 h1        1 0SE      0.055200
     61 H28         3.5550    2.8470   -2.5540 h1        1 0SE      0.055200
     62 H29         1.5420    4.7230   -4.7110 h1        1 0SE      0.055200
     63 H30         1.5350    5.4540   -3.3370 h1        1 0SE      0.055200
     64 H31         0.6370    3.0080   -3.9640 h1        1 0SE      0.066700
     65 H32        -0.1070    4.2160   -3.2030 h1        1 0SE      0.066700
     66 H33         0.7840   -6.5810    3.4990 ho        1 0SE      0.398000
@<TRIPOS>BOND
     1    1    2 1   
     2    1   35 1   
     3    1   36 1   
     4    1   37 1   
     5    2    3 1   
     6    2    4 1   
     7    2   34 1   
     8    3   38 1   
     9    3   39 1   
    10    3   40 1   
    11    4    5 1   
    12    4    9 1   
    13    4   41 1   
    14    5    6 1   
    15    5   42 1   
    16    5   43 1   
    17    6    7 1   
    18    6   44 1   
    19    6   45 1   
    20    7    8 1   
    21    7   10 1   
    22    8    9 1   
    23    8   46 1   
    24    8   47 1   
    25    9   48 1   
    26    9   49 1   
    27   10   11 1   
    28   10   50 1   
    29   10   51 1   
    30   11   16 3   
    31   12   13 3   
    32   12   52 1   
    33   13   53 1   
    34   14   15 1   
    35   14   20 3   
    36   15   17 3   
    37   17   28 1   
    38   18   19 3   
    39   19   21 1   
    40   21   26 3   
    41   22   23 3   
    42   22   54 1   
    43   24   25 3   
    44   24   27 1   
    45   26   55 1   
    46   27   56 1   
    47   27   57 1   
    48   28   29 1   
    49   28   33 1   
    50   29   30 1   
    51   29   58 1   
    52   29   59 1   
    53   30   31 1   
    54   30   60 1   
    55   30   61 1   
    56   31   32 1   
    57   32   33 1   
    58   32   62 1   
    59   32   63 1   
    60   33   64 1   
    61   33   65 1   
    62   34   66 1   
@<TRIPOS>SUBSTRUCTURE
     1 0SE         1 TEMP              0 ****  ****    0 ROOT
