@<TRIPOS>MOLECULE
0SF
   60    62     1     0     0
SMALL
bcc


@<TRIPOS>ATOM
      1 C1         -0.3450    0.5180    0.8600 c3        1 0SF     -0.091100
      2 C2          0.9760   -0.0060    0.3500 c3        1 0SF     -0.048100
      3 C3          2.0670    0.1500    1.3530 ca        1 0SF     -0.049300
      4 C4          2.4010   -0.9400    2.1670 ca        1 0SF     -0.109000
      5 C5          3.4380   -0.8100    3.0920 ca        1 0SF      0.057100
      6 C6          4.1580    0.3780    3.2450 ca        1 0SF     -0.118000
      7 C7          3.8210    1.4610    2.4390 ca        1 0SF     -0.113000
      8 C8          2.7820    1.3510    1.5040 ca        1 0SF      0.028400
      9 CL1         2.4190    2.7100    0.5550 cl        1 0SF     -0.054400
     10 O1          3.8420   -1.9700    3.7790 os        1 0SF     -0.328400
     11 C9          3.5300   -2.0830    5.1070 ca        1 0SF      0.692600
     12 C10         3.9580   -3.2970    5.7290 ca        1 0SF     -0.319600
     13 C11         3.6560   -3.4400    7.0840 ca        1 0SF      0.467200
     14 N1          2.9940   -2.4970    7.8030 nb        1 0SF     -0.695000
     15 C12         2.6290   -1.3800    7.1110 ca        1 0SF      0.746900
     16 N2          2.8610   -1.1090    5.7820 nb        1 0SF     -0.749000
     17 N3          1.8780   -0.3010    7.8400 n4        1 0SF     -0.661100
     18 C13         0.4170   -0.3170    7.4460 c3        1 0SF      0.186100
     19 C14        -0.3060   -1.5710    7.7970 ca        1 0SF     -0.157300
     20 C15        -0.8490   -1.7420    9.0780 ca        1 0SF     -0.104000
     21 C16        -1.5760   -2.8900    9.3860 ca        1 0SF     -0.107000
     22 C17        -1.7750   -3.8800    8.4230 ca        1 0SF     -0.084000
     23 C18        -1.2340   -3.6970    7.1440 ca        1 0SF      0.099100
     24 C19        -0.4980   -2.5500    6.8180 ca        1 0SF     -0.087000
     25 O2         -1.5250   -4.5820    6.1110 os        1 0SF     -0.373900
     26 C20        -0.8710   -5.8390    6.0990 c3        1 0SF      0.535400
     27 C21        -1.3120   -6.5240    4.7210 c3        1 0SF      0.423900
     28 F1         -0.7950   -5.8380    3.6580 f         1 0SF     -0.207800
     29 F2         -0.7620   -7.7710    4.6150 f         1 0SF     -0.207800
     30 F3          0.4710   -5.6450    6.2350 f         1 0SF     -0.221300
     31 F4         -1.2600   -6.5420    7.1980 f         1 0SF     -0.221300
     32 C22         2.0380   -0.3410    9.3250 c3        1 0SF      0.115800
     33 C23         3.4530    0.0290    9.7940 c3        1 0SF      0.088100
     34 C24         3.4510    0.1430   11.3680 c3        1 0SF      0.603900
     35 F5          2.4200    0.8830   11.8790 f         1 0SF     -0.214967
     36 F6          3.3780   -1.0730   11.9890 f         1 0SF     -0.214967
     37 F7          4.5970    0.7380   11.8250 f         1 0SF     -0.214967
     38 O3          3.7670    1.2740    9.2140 oh        1 0SF     -0.603800
     39 H2         -0.2740    1.6060    1.1020 hc        1 0SF      0.041700
     40 H3         -0.6610   -0.0300    1.7800 hc        1 0SF      0.041700
     41 H4         -1.1320    0.3810    0.0790 hc        1 0SF      0.041700
     42 H6          0.8670   -1.0920    0.0830 hc        1 0SF      0.066200
     43 H5          1.2540    0.5350   -0.5960 hc        1 0SF      0.066200
     44 H7          1.8670   -1.8960    2.0620 ha        1 0SF      0.159000
     45 H8          4.9780    0.4500    3.9720 ha        1 0SF      0.151000
     46 H9          4.3810    2.4060    2.5320 ha        1 0SF      0.163000
     47 H10         4.4910   -4.0640    5.1490 ha        1 0SF      0.206000
     48 H11         3.9430   -4.3480    7.6540 h4        1 0SF      0.072100
     49 H12         0.3800   -0.1400    6.3300 hx        1 0SF      0.113700
     50 H13        -0.0590    0.5660    7.9680 hx        1 0SF      0.113700
     51 H14        -0.7160   -0.9610    9.8430 ha        1 0SF      0.138000
     52 H15        -2.0050   -3.0150   10.3930 ha        1 0SF      0.165000
     53 H16        -2.3460   -4.7940    8.6550 ha        1 0SF      0.176000
     54 H17        -0.1050   -2.4290    5.7970 ha        1 0SF      0.159000
     55 H18        -2.4410   -6.5530    4.6990 h2        1 0SF      0.120700
     56 H20         1.7670   -1.3630    9.7220 hx        1 0SF      0.131700
     57 H19         1.3120    0.4180    9.7470 hx        1 0SF      0.131700
     58 H1          4.2140   -0.7520    9.5180 h1        1 0SF      0.107700
     59 H21         4.6210    1.5680    9.5690 ho        1 0SF      0.462000
     60 H31         2.2760    0.6040    7.5210 hn        1 0SF      0.483800
@<TRIPOS>BOND
     1    1    2 1   
     2    1   39 1   
     3    1   40 1   
     4    1   41 1   
     5    2    3 1   
     6    2   42 1   
     7    2   43 1   
     8    3    4 ar  
     9    3    8 ar  
    10    4    5 ar  
    11    4   44 1   
    12    5    6 ar  
    13    5   10 1   
    14    6    7 ar  
    15    6   45 1   
    16    7    8 ar  
    17    7   46 1   
    18    8    9 1   
    19   10   11 1   
    20   11   12 ar  
    21   11   16 ar  
    22   12   13 ar  
    23   12   47 1   
    24   13   14 ar  
    25   13   48 1   
    26   14   15 ar  
    27   15   16 ar  
    28   15   17 1   
    29   17   18 1   
    30   17   32 1   
    31   17   60 1   
    32   18   19 1   
    33   18   49 1   
    34   18   50 1   
    35   19   20 ar  
    36   19   24 ar  
    37   20   21 ar  
    38   20   51 1   
    39   21   22 ar  
    40   21   52 1   
    41   22   23 ar  
    42   22   53 1   
    43   23   24 ar  
    44   23   25 1   
    45   24   54 1   
    46   25   26 1   
    47   26   27 1   
    48   26   30 1   
    49   26   31 1   
    50   27   28 1   
    51   27   29 1   
    52   27   55 1   
    53   32   33 1   
    54   32   56 1   
    55   32   57 1   
    56   33   34 1   
    57   33   38 1   
    58   33   58 1   
    59   34   35 1   
    60   34   36 1   
    61   34   37 1   
    62   38   59 1   
@<TRIPOS>SUBSTRUCTURE
     1 0SF         1 TEMP              0 ****  ****    0 ROOT
