@<TRIPOS>MOLECULE
0SF
   59    61     1     0     0
SMALL
bcc


@<TRIPOS>ATOM
      1 C1         -0.3960   -2.4420    1.0080 c3        1 0SF     -0.095100
      2 C2          0.8430   -1.7440    0.4990 c3        1 0SF     -0.039100
      3 C3          1.5190   -0.9520    1.5650 ca        1 0SF     -0.057300
      4 C4          2.5700   -1.5370    2.2810 ca        1 0SF     -0.120000
      5 C5          3.2370   -0.7970    3.2630 ca        1 0SF      0.102100
      6 C6          2.8710    0.5190    3.5630 ca        1 0SF     -0.123000
      7 C7          1.8160    1.0950    2.8610 ca        1 0SF     -0.114000
      8 C8          1.1460    0.3670    1.8710 ca        1 0SF      0.014400
      9 CL1        -0.1360    1.1290    1.0490 cl        1 0SF     -0.090400
     10 O1          4.3700   -1.3930    3.8250 os        1 0SF     -0.362400
     11 C9          4.4310   -1.5550    5.1980 ca        1 0SF      0.690600
     12 C10         5.6330   -2.1520    5.6580 ca        1 0SF     -0.427600
     13 C11         5.7190   -2.3290    7.0450 ca        1 0SF      0.485200
     14 N1          4.7590   -1.9680    7.9100 nb        1 0SF     -0.781000
     15 C12         3.6080   -1.4000    7.3660 ca        1 0SF      0.921900
     16 N2          3.4140   -1.1760    6.0050 nb        1 0SF     -0.807000
     17 N3          2.5770   -1.0410    8.2450 nh        1 0SF     -0.765300
     18 C13         1.4870   -0.1740    7.8450 c3        1 0SF      0.267100
     19 C14         0.1680   -0.8840    7.7040 ca        1 0SF     -0.106300
     20 C15        -0.7860   -0.7950    8.7230 ca        1 0SF     -0.116000
     21 C16        -2.0250   -1.4220    8.5870 ca        1 0SF     -0.124000
     22 C17        -2.3260   -2.1470    7.4360 ca        1 0SF     -0.122000
     23 C18        -1.3610   -2.2340    6.4250 ca        1 0SF      0.080100
     24 C19        -0.1100   -1.6140    6.5460 ca        1 0SF     -0.091000
     25 O2         -1.6650   -2.8280    5.2000 os        1 0SF     -0.381900
     26 C20        -1.7760   -4.2340    5.1420 c3        1 0SF      0.543400
     27 C21        -1.9080   -4.5660    3.5830 c3        1 0SF      0.400900
     28 F1         -0.8120   -5.2580    3.1400 f         1 0SF     -0.216800
     29 F2         -2.9540   -5.4180    3.3530 f         1 0SF     -0.216800
     30 F3         -0.6990   -4.8120    5.7420 f         1 0SF     -0.218300
     31 F4         -2.8610   -4.6190    5.8720 f         1 0SF     -0.218300
     32 C22         2.6340   -1.4070    9.6340 c3        1 0SF      0.235800
     33 C23         3.4690   -0.4530   10.5150 c3        1 0SF      0.091100
     34 C24         3.6040   -1.0660   11.9600 c3        1 0SF      0.585900
     35 F5          2.4370   -1.5300   12.5050 f         1 0SF     -0.236300
     36 F6          4.4760   -2.1200   12.0340 f         1 0SF     -0.236300
     37 F7          4.0750   -0.1480   12.8670 f         1 0SF     -0.236300
     38 O3          2.7790    0.7710   10.6010 oh        1 0SF     -0.580800
     39 H2         -0.1300   -3.1920    1.7940 hc        1 0SF      0.039033
     40 H3         -1.1120   -1.7060    1.4460 hc        1 0SF      0.039033
     41 H4         -0.9020   -2.9760    0.1670 hc        1 0SF      0.039033
     42 H6          0.5680   -1.0690   -0.3560 hc        1 0SF      0.057200
     43 H5          1.5590   -2.5100    0.0940 hc        1 0SF      0.057200
     44 H7          2.8840   -2.5700    2.0660 ha        1 0SF      0.156000
     45 H8          3.4030    1.0850    4.3410 ha        1 0SF      0.153000
     46 H9          1.5120    2.1290    3.0860 ha        1 0SF      0.151000
     47 H10         6.4250   -2.4480    4.9650 ha        1 0SF      0.172000
     48 H11         6.6180   -2.7840    7.5020 h4        1 0SF      0.033100
     49 H12         1.7240    0.3420    6.8710 h1        1 0SF      0.078700
     50 H13         1.3910    0.6270    8.6400 h1        1 0SF      0.078700
     51 H14        -0.5600   -0.2240    9.6370 ha        1 0SF      0.141000
     52 H15        -2.7700   -1.3450    9.3930 ha        1 0SF      0.141000
     53 H16        -3.2970   -2.6500    7.3170 ha        1 0SF      0.155000
     54 H17         0.6310   -1.6960    5.7370 ha        1 0SF      0.168000
     55 H18        -2.0320   -3.5910    3.0220 h2        1 0SF      0.116700
     56 H20         1.5770   -1.4100   10.0340 h1        1 0SF      0.087700
     57 H19         3.0680   -2.4400    9.7600 h1        1 0SF      0.087700
     58 H1          4.5110   -0.3150   10.1190 h1        1 0SF      0.092700
     59 H21         3.3390    1.3860   11.0960 ho        1 0SF      0.421000
@<TRIPOS>BOND
     1    1    2 1   
     2    1   39 1   
     3    1   40 1   
     4    1   41 1   
     5    2    3 1   
     6    2   42 1   
     7    2   43 1   
     8    3    4 ar  
     9    3    8 ar  
    10    4    5 ar  
    11    4   44 1   
    12    5    6 ar  
    13    5   10 1   
    14    6    7 ar  
    15    6   45 1   
    16    7    8 ar  
    17    7   46 1   
    18    8    9 1   
    19   10   11 1   
    20   11   12 ar  
    21   11   16 ar  
    22   12   13 ar  
    23   12   47 1   
    24   13   14 ar  
    25   13   48 1   
    26   14   15 ar  
    27   15   16 ar  
    28   15   17 1   
    29   17   18 1   
    30   17   32 1   
    31   18   19 1   
    32   18   49 1   
    33   18   50 1   
    34   19   20 ar  
    35   19   24 ar  
    36   20   21 ar  
    37   20   51 1   
    38   21   22 ar  
    39   21   52 1   
    40   22   23 ar  
    41   22   53 1   
    42   23   24 ar  
    43   23   25 1   
    44   24   54 1   
    45   25   26 1   
    46   26   27 1   
    47   26   30 1   
    48   26   31 1   
    49   27   28 1   
    50   27   29 1   
    51   27   55 1   
    52   32   33 1   
    53   32   56 1   
    54   32   57 1   
    55   33   34 1   
    56   33   38 1   
    57   33   58 1   
    58   34   35 1   
    59   34   36 1   
    60   34   37 1   
    61   38   59 1   
@<TRIPOS>SUBSTRUCTURE
     1 0SF         1 TEMP              0 ****  ****    0 ROOT
