@<TRIPOS>MOLECULE
0SF
   59    52     1     0     0
SMALL
bcc


@<TRIPOS>ATOM
      1 C1          6.2180   -3.0030   -4.2370 c3        1 0SF     -0.209000
      2 C2          5.4540   -2.4040   -5.4160 c3        1 0SF     -0.127000
      3 C3          4.5640   -1.2380   -4.9150 c1        1 0SF     -0.049000
      4 C4          3.2690   -1.4880   -4.4860 c1        1 0SF     -0.122000
      5 C5          2.4930   -0.4530   -3.9830 c1        1 0SF      0.056000
      6 C6          3.0130    0.8300   -3.9100 c2        1 0SF     -0.123000
      7 C7          4.3070    1.0790   -4.3380 c1        1 0SF     -0.114000
      8 C8          5.0820    0.0450   -4.8410 c1        1 0SF     -0.064000
      9 CL1         6.7480    0.3380   -5.2780 cl        1 0SF     -0.011000
     10 O1          1.1750   -0.7060   -3.5450 o         1 0SF     -0.148000
     11 C9          1.1820   -0.9700   -2.1590 c1        1 0SF      0.191000
     12 C10         1.8760   -2.0340   -1.6730 c1        1 0SF     -0.125500
     13 C11         1.8000   -2.3500   -0.3460 c1        1 0SF     -0.125500
     14 N1          1.0390   -1.6110    0.4790 n1        1 0SF     -0.255000
     15 C12         0.3420   -0.5430   -0.0080 c1        1 0SF      0.203000
     16 N2          0.4170   -0.2270   -1.3270 n2        1 0SF     -0.281000
     17 N3         -0.4710    0.2600    0.8860 n2        1 0SF     -0.255000
     18 C13        -1.7640    0.7640    0.4400 c3        1 0SF      0.023000
     19 C14        -2.8630    0.3720    1.4770 c1        1 0SF     -0.099000
     20 C15        -2.7710   -0.8280    2.1630 c1        1 0SF     -0.125500
     21 C16        -3.7740   -1.1980    3.0670 c1        1 0SF     -0.125500
     22 C17        -4.8630   -0.3600    3.2780 c1        1 0SF     -0.116000
     23 C18        -4.9580    0.8440    2.5910 c1        1 0SF      0.032000
     24 C19        -3.9560    1.2140    1.6880 c2        1 0SF     -0.109000
     25 O2         -6.0490    1.7420    2.8620 o         1 0SF     -0.264000
     26 C20        -6.8770    1.3370    3.9680 c3        1 0SF      0.327000
     27 C21        -8.0570    2.2920    4.0950 c3        1 0SF      0.227000
     28 F1         -8.9490    2.0300    3.1300 f         1 0SF     -0.144500
     29 F2         -8.6380    2.1300    5.2970 f         1 0SF     -0.144500
     30 F3         -7.3290    0.0970    3.7560 f         1 0SF     -0.148500
     31 F4         -6.1600    1.3630    5.0960 f         1 0SF     -0.148500
     32 C22        -0.0040    0.5450    2.2280 c3        1 0SF     -0.002000
     33 C23         0.9160    1.7680    2.1980 c3        1 0SF     -0.020000
     34 C24         1.6760    1.8670    3.5210 c3        1 0SF      0.372000
     35 F5          0.8030    2.0190    4.5300 f         1 0SF     -0.164667
     36 F6          2.3870    0.7480    3.7120 f         1 0SF     -0.164667
     37 F7          2.5060    2.9250    3.4830 f         1 0SF     -0.164667
     38 O3          0.1600    2.9130    2.0130 oh        1 0SF     -0.308000
     39 H2          6.6750   -3.8300   -4.5260 hc        1 0SF      0.080000
     40 H3          5.5930   -3.2110   -3.5180 hc        1 0SF      0.080000
     41 H4          6.8820   -2.3570   -3.9160 hc        1 0SF      0.080000
     42 H6          6.0900   -2.0670   -6.0810 hc        1 0SF      0.094500
     43 H5          4.8910   -3.0940   -5.8240 hc        1 0SF      0.094500
     44 H7          2.9030   -2.3910   -4.5380 ha        1 0SF      0.155000
     45 H8          2.4640    1.5630   -3.5540 ha        1 0SF      0.153000
     46 H9          4.6740    1.9860   -4.2860 ha        1 0SF      0.152000
     47 H10         2.4310   -2.5740   -2.2760 ha        1 0SF      0.159750
     48 H11         2.3000   -3.1170    0.0050 ha        1 0SF      0.159750
     49 H12        -1.9830    0.3740   -0.4270 h1        1 0SF      0.117500
     50 H13        -1.7250    1.7370    0.3580 h1        1 0SF      0.117500
     51 H14        -2.0040   -1.4190    2.0150 ha        1 0SF      0.159750
     52 H15        -3.7080   -2.0460    3.5520 ha        1 0SF      0.159750
     53 H16        -5.5640   -0.6190    3.9100 ha        1 0SF      0.155000
     54 H17        -4.0220    2.0590    1.2050 ha        1 0SF      0.151000
     55 H18        -7.7420    3.2150    4.0070 h2        1 0SF      0.150000
     56 H20         0.4900   -0.2260    2.5710 h1        1 0SF      0.127500
     57 H19        -0.7720    0.7260    2.8100 h1        1 0SF      0.127500
     58 H1          1.5550    1.6770    1.4630 h1        1 0SF      0.132000
     59 H21         0.6290    3.5040    1.5530 ho        1 0SF      0.220000
@<TRIPOS>BOND
     1    1    2 1   
     2    1   39 1   
     3    1   40 1   
     4    1   41 1   
     5    2    3 1   
     6    2   42 1   
     7    2   43 1   
     8    3    8 1   
     9    4    5 1   
    10    4   44 1   
    11    5    6 1   
    12    6    7 1   
    13    6   45 1   
    14    7   46 1   
    15    8    9 1   
    16   10   11 1   
    17   11   16 1   
    18   12   13 1   
    19   12   47 1   
    20   13   48 1   
    21   14   15 1   
    22   15   16 1   
    23   17   18 1   
    24   17   32 1   
    25   18   19 1   
    26   18   49 1   
    27   18   50 1   
    28   19   24 1   
    29   20   21 1   
    30   20   51 1   
    31   21   52 1   
    32   22   23 1   
    33   22   53 1   
    34   23   24 1   
    35   24   54 1   
    36   25   26 1   
    37   26   27 1   
    38   26   30 1   
    39   26   31 1   
    40   27   28 1   
    41   27   29 1   
    42   27   55 1   
    43   32   33 1   
    44   32   56 1   
    45   32   57 1   
    46   33   34 1   
    47   33   38 1   
    48   33   58 1   
    49   34   35 1   
    50   34   36 1   
    51   34   37 1   
    52   38   59 1   
@<TRIPOS>SUBSTRUCTURE
     1 0SF         1 TEMP              0 ****  ****    0 ROOT
