@<TRIPOS>MOLECULE
0SF
   59    61     1     0     0
SMALL
bcc


@<TRIPOS>ATOM
      1 C1          4.9250   -2.4210    0.0800 c3        1 0SF     -0.095100
      2 C2          4.3220   -3.7040   -0.4390 c3        1 0SF     -0.039100
      3 C3          2.8420   -3.7380   -0.2700 ca        1 0SF     -0.057300
      4 C4          2.0290   -3.3310   -1.3340 ca        1 0SF     -0.120000
      5 C5          0.6370   -3.3840   -1.2020 ca        1 0SF      0.101100
      6 C6          0.0290   -3.8240   -0.0220 ca        1 0SF     -0.122000
      7 C7          0.8380   -4.2140    1.0400 ca        1 0SF     -0.114000
      8 C8          2.2320   -4.1710    0.9180 ca        1 0SF      0.015400
      9 CL1         3.1660   -4.6610    2.2550 cl        1 0SF     -0.090400
     10 O1         -0.1060   -3.1080   -2.3540 os        1 0SF     -0.362400
     11 C9         -1.0410   -2.0880   -2.3170 ca        1 0SF      0.690600
     12 C10        -1.7490   -1.9040   -3.5330 ca        1 0SF     -0.425600
     13 C11        -2.6960   -0.8720   -3.5230 ca        1 0SF      0.485200
     14 N1         -2.9500   -0.0940   -2.4580 nb        1 0SF     -0.778000
     15 C12        -2.2000   -0.3430   -1.3100 ca        1 0SF      0.924900
     16 N2         -1.2320   -1.3390   -1.2070 nb        1 0SF     -0.808000
     17 N3         -2.4310    0.4670   -0.1890 nh        1 0SF     -0.768300
     18 C13        -1.9520    0.1130    1.1300 c3        1 0SF      0.271100
     19 C14        -0.8230    0.9770    1.6220 ca        1 0SF     -0.108300
     20 C15        -1.0690    1.9920    2.5520 ca        1 0SF     -0.120000
     21 C16        -0.0220    2.7740    3.0390 ca        1 0SF     -0.121000
     22 C17         1.2830    2.5550    2.6030 ca        1 0SF     -0.122000
     23 C18         1.5170    1.5400    1.6680 ca        1 0SF      0.084100
     24 C19         0.4770    0.7480    1.1650 ca        1 0SF     -0.089000
     25 O2          2.8180    1.1880    1.3070 os        1 0SF     -0.380900
     26 C20         3.5510    2.0670    0.4800 c3        1 0SF      0.543400
     27 C21         4.8690    1.2500    0.0880 c3        1 0SF      0.401900
     28 F1          4.8410    0.8910   -1.2330 f         1 0SF     -0.215800
     29 F2          5.9810    2.0400    0.1950 f         1 0SF     -0.215800
     30 F3          2.7930    2.4460   -0.5860 f         1 0SF     -0.218300
     31 F4          3.8110    3.2090    1.1780 f         1 0SF     -0.218300
     32 C22        -3.2560    1.6400   -0.2920 c3        1 0SF      0.198800
     33 C23        -4.7690    1.3680   -0.1620 c3        1 0SF      0.090100
     34 C24        -5.5530    2.7070   -0.4270 c3        1 0SF      0.587900
     35 F5         -5.3970    3.6270    0.5820 f         1 0SF     -0.235967
     36 F6         -5.1900    3.3680   -1.5700 f         1 0SF     -0.235967
     37 F7         -6.9070    2.5330   -0.5360 f         1 0SF     -0.235967
     38 O3         -5.1270    0.8740    1.1030 oh        1 0SF     -0.565800
     39 H2          4.5490   -1.5450   -0.5040 hc        1 0SF      0.038700
     40 H3          4.6660   -2.2690    1.1560 hc        1 0SF      0.038700
     41 H4          6.0370   -2.4590   -0.0170 hc        1 0SF      0.038700
     42 H6          4.5740   -3.8160   -1.5290 hc        1 0SF      0.057200
     43 H5          4.7840   -4.5780    0.0950 hc        1 0SF      0.057200
     44 H7          2.4770   -2.9840   -2.2770 ha        1 0SF      0.156000
     45 H8         -1.0670   -3.8550    0.0650 ha        1 0SF      0.154000
     46 H9          0.3770   -4.5610    1.9780 ha        1 0SF      0.151000
     47 H10        -1.5550   -2.5320   -4.4070 ha        1 0SF      0.173000
     48 H11        -3.3010   -0.6500   -4.4230 h4        1 0SF      0.034100
     49 H12        -2.8290    0.2110    1.8410 h1        1 0SF      0.073200
     50 H13        -1.6180   -0.9640    1.1570 h1        1 0SF      0.073200
     51 H14        -2.0950    2.1730    2.9090 ha        1 0SF      0.131000
     52 H15        -0.2250    3.5690    3.7730 ha        1 0SF      0.142000
     53 H16         2.1180    3.1670    2.9760 ha        1 0SF      0.156000
     54 H17         0.6880   -0.0460    0.4320 ha        1 0SF      0.170000
     55 H18         4.9340    0.3410    0.7600 h2        1 0SF      0.116700
     56 H20        -2.9540    2.3490    0.5350 h1        1 0SF      0.082200
     57 H19        -3.0790    2.1610   -1.2780 h1        1 0SF      0.082200
     58 H1         -5.1300    0.5980   -0.8990 h1        1 0SF      0.135700
     59 H21        -4.8350    1.5160    1.7650 ho        1 0SF      0.410000
@<TRIPOS>BOND
     1    1    2 1   
     2    1   39 1   
     3    1   40 1   
     4    1   41 1   
     5    2    3 1   
     6    2   42 1   
     7    2   43 1   
     8    3    4 ar  
     9    3    8 ar  
    10    4    5 ar  
    11    4   44 1   
    12    5    6 ar  
    13    5   10 1   
    14    6    7 ar  
    15    6   45 1   
    16    7    8 ar  
    17    7   46 1   
    18    8    9 1   
    19   10   11 1   
    20   11   12 ar  
    21   11   16 ar  
    22   12   13 ar  
    23   12   47 1   
    24   13   14 ar  
    25   13   48 1   
    26   14   15 ar  
    27   15   16 ar  
    28   15   17 1   
    29   17   18 1   
    30   17   32 1   
    31   18   19 1   
    32   18   49 1   
    33   18   50 1   
    34   19   20 ar  
    35   19   24 ar  
    36   20   21 ar  
    37   20   51 1   
    38   21   22 ar  
    39   21   52 1   
    40   22   23 ar  
    41   22   53 1   
    42   23   24 ar  
    43   23   25 1   
    44   24   54 1   
    45   25   26 1   
    46   26   27 1   
    47   26   30 1   
    48   26   31 1   
    49   27   28 1   
    50   27   29 1   
    51   27   55 1   
    52   32   33 1   
    53   32   56 1   
    54   32   57 1   
    55   33   34 1   
    56   33   38 1   
    57   33   58 1   
    58   34   35 1   
    59   34   36 1   
    60   34   37 1   
    61   38   59 1   
@<TRIPOS>SUBSTRUCTURE
     1 0SF         1 TEMP              0 ****  ****    0 ROOT
