@<TRIPOS>MOLECULE
0SF
   59    61     1     0     0
SMALL
bcc


@<TRIPOS>ATOM
      1 C1         -0.4210   -2.4060    1.0110 c3        1 0SF     -0.095100
      2 C2          0.8110   -1.6970    0.5010 c3        1 0SF     -0.039100
      3 C3          1.4900   -0.9120    1.5700 ca        1 0SF     -0.057300
      4 C4          2.5480   -1.4980    2.2740 ca        1 0SF     -0.120000
      5 C5          3.2170   -0.7640    3.2590 ca        1 0SF      0.102100
      6 C6          2.8460    0.5480    3.5730 ca        1 0SF     -0.123000
      7 C7          1.7840    1.1250    2.8830 ca        1 0SF     -0.114000
      8 C8          1.1120    0.4020    1.8910 ca        1 0SF      0.014400
      9 Cl1        -0.1790    1.1650    1.0830 cl        1 0SF     -0.090400
     10 O1          4.3560   -1.3590    3.8080 os        1 0SF     -0.362400
     11 C9          4.4260   -1.5340    5.1800 ca        1 0SF      0.690600
     12 C10         5.6330   -2.1300    5.6270 ca        1 0SF     -0.427600
     13 C11         5.7290   -2.3190    7.0120 ca        1 0SF      0.485200
     14 N1          4.7720   -1.9710    7.8860 nb        1 0SF     -0.781000
     15 C12         3.6160   -1.4030    7.3540 ca        1 0SF      0.921900
     16 N2          3.4130   -1.1670    5.9960 nb        1 0SF     -0.807000
     17 N3          2.5890   -1.0570    8.2420 nh        1 0SF     -0.765300
     18 C13         1.4930   -0.1900    7.8580 c3        1 0SF      0.267100
     19 C14         0.1760   -0.9050    7.7180 ca        1 0SF     -0.106300
     20 C15        -0.7730   -0.8290    8.7430 ca        1 0SF     -0.116000
     21 C16        -2.0090   -1.4600    8.6090 ca        1 0SF     -0.124000
     22 C17        -2.3140   -2.1760    7.4530 ca        1 0SF     -0.122000
     23 C18        -1.3550   -2.2490    6.4360 ca        1 0SF      0.080100
     24 C19        -0.1060   -1.6260    6.5550 ca        1 0SF     -0.091000
     25 O2         -1.6630   -2.8330    5.2070 os        1 0SF     -0.381900
     26 C20        -1.7680   -4.2390    5.1370 c3        1 0SF      0.543400
     27 C21        -1.9090   -4.5570    3.5750 c3        1 0SF      0.400900
     28 F1         -0.8150   -5.2430    3.1190 f         1 0SF     -0.216800
     29 F2         -2.9550   -5.4100    3.3440 f         1 0SF     -0.216800
     30 F3         -0.6840   -4.8170    5.7230 f         1 0SF     -0.218300
     31 F4         -2.8460   -4.6380    5.8710 f         1 0SF     -0.218300
     32 C22         2.6560   -1.4350    9.6280 c3        1 0SF      0.235800
     33 C23         3.4910   -0.4860   10.5130 c3        1 0SF      0.091100
     34 C24         3.6380   -1.1130   11.9500 c3        1 0SF      0.585900
     35 F5          2.4770   -1.5880   12.4980 f         1 0SF     -0.236300
     36 F6          4.5150   -2.1630   12.0100 f         1 0SF     -0.236300
     37 F7          4.1110   -0.2020   12.8640 f         1 0SF     -0.236300
     38 O3          2.7970    0.7340   10.6150 oh        1 0SF     -0.580800
     39 H2         -0.9300   -2.9340    0.1680 hc        1 0SF      0.039033
     40 H3         -1.1380   -1.6780    1.4600 hc        1 0SF      0.039033
     41 H4         -0.1470   -3.1620    1.7880 hc        1 0SF      0.039033
     42 H6          1.5280   -2.4560    0.0850 hc        1 0SF      0.057200
     43 H5          0.5270   -1.0160   -0.3470 hc        1 0SF      0.057200
     44 H7          2.8660   -2.5270    2.0480 ha        1 0SF      0.156000
     45 H8          3.3800    1.1090    4.3540 ha        1 0SF      0.153000
     46 H9          1.4760    2.1550    3.1190 ha        1 0SF      0.151000
     47 H10         6.4220   -2.4160    4.9260 ha        1 0SF      0.172000
     48 H11         6.6330   -2.7750    7.4590 h4        1 0SF      0.033100
     49 H12         1.3980    0.6030    8.6610 h1        1 0SF      0.078700
     50 H13         1.7220    0.3350    6.8870 h1        1 0SF      0.078700
     51 H14        -0.5440   -0.2650    9.6610 ha        1 0SF      0.141000
     52 H15        -2.7510   -1.3930    9.4190 ha        1 0SF      0.141000
     53 H16        -3.2840   -2.6820    7.3350 ha        1 0SF      0.155000
     54 H17         0.6310   -1.6970    5.7410 ha        1 0SF      0.168000
     55 H18        -2.0390   -3.5770    3.0250 h2        1 0SF      0.116700
     56 H20         1.6010   -1.4470   10.0340 h1        1 0SF      0.087700
     57 H19         3.0950   -2.4680    9.7410 h1        1 0SF      0.087700
     58 H1          4.5310   -0.3400   10.1120 h1        1 0SF      0.092700
     59 H21         3.3570    1.3460   11.1130 ho        1 0SF      0.421000
@<TRIPOS>BOND
     1    1    2 1   
     2    1   39 1   
     3    1   40 1   
     4    1   41 1   
     5    2    3 1   
     6    2   42 1   
     7    2   43 1   
     8    3    4 ar  
     9    3    8 ar  
    10    4    5 ar  
    11    4   44 1   
    12    5    6 ar  
    13    5   10 1   
    14    6    7 ar  
    15    6   45 1   
    16    7    8 ar  
    17    7   46 1   
    18    8    9 1   
    19   10   11 1   
    20   11   12 ar  
    21   11   16 ar  
    22   12   13 ar  
    23   12   47 1   
    24   13   14 ar  
    25   13   48 1   
    26   14   15 ar  
    27   15   16 ar  
    28   15   17 1   
    29   17   18 1   
    30   17   32 1   
    31   18   19 1   
    32   18   49 1   
    33   18   50 1   
    34   19   20 ar  
    35   19   24 ar  
    36   20   21 ar  
    37   20   51 1   
    38   21   22 ar  
    39   21   52 1   
    40   22   23 ar  
    41   22   53 1   
    42   23   24 ar  
    43   23   25 1   
    44   24   54 1   
    45   25   26 1   
    46   26   27 1   
    47   26   30 1   
    48   26   31 1   
    49   27   28 1   
    50   27   29 1   
    51   27   55 1   
    52   32   33 1   
    53   32   56 1   
    54   32   57 1   
    55   33   34 1   
    56   33   38 1   
    57   33   58 1   
    58   34   35 1   
    59   34   36 1   
    60   34   37 1   
    61   38   59 1   
@<TRIPOS>SUBSTRUCTURE
     1 0SF         1 TEMP              0 ****  ****    0 ROOT
