@<TRIPOS>MOLECULE
0SH
  129   129     1     0     0
SMALL
bcc


@<TRIPOS>ATOM
      1 C18         7.7450   12.2240   -8.4330 c3        1 0SH     -0.092100
      2 C17         7.1490   11.0120   -9.1520 c3        1 0SH     -0.080400
      3 C16         5.7580   10.7220   -8.5930 c3        1 0SH     -0.079400
      4 C15         5.1570    9.5010   -9.3170 c3        1 0SH     -0.079400
      5 C14         3.7780    9.2010   -8.7460 c3        1 0SH     -0.079400
      6 C13         3.2260    7.9020   -9.3780 c3        1 0SH     -0.079400
      7 C12         1.8760    7.5260   -8.6930 c3        1 0SH     -0.079400
      8 C11         1.4510    6.0820   -9.1220 c3        1 0SH     -0.079400
      9 C10         0.1440    5.6530   -8.3190 c3        1 0SH     -0.079400
     10 C9         -0.0720    4.1100   -8.4590 c3        1 0SH     -0.079400
     11 C8         -1.1160    3.6300   -7.4000 c3        1 0SH     -0.079400
     12 C7         -0.9620    2.1130   -7.1790 c3        1 0SH     -0.079400
     13 C6         -1.5900    1.7220   -5.8120 c3        1 0SH     -0.080400
     14 C5         -1.0230    0.3470   -5.3540 c3        1 0SH     -0.122400
     15 C4         -1.2000    0.1980   -3.8360 c3        1 0SH      0.104100
     16 O4         -2.5530    0.1170   -3.5340 oh        1 0SH     -0.607800
     17 C3         -0.4980   -1.0670   -3.3650 c3        1 0SH      0.125100
     18 O3          0.6060   -1.3170   -4.1830 oh        1 0SH     -0.607800
     19 C2         -0.0350   -0.8890   -1.9290 c3        1 0SH      0.093700
     20 C1          1.4090   -0.4180   -1.9180 c3        1 0SH      0.122400
     21 O1A         1.5710    0.6560   -0.9250 os        1 0SH     -0.454600
     22 C1A         2.9070    1.1150   -0.7890 c3        1 0SH      0.304900
     23 O6A         3.0670    2.3470   -1.5550 os        1 0SH     -0.450600
     24 C5M         2.3360    3.4820   -0.9740 c3        1 0SH      0.057100
     25 C6A         2.7020    4.7190   -1.7150 c3        1 0SH      0.135400
     26 O5A         4.0650    4.6720   -2.0600 oh        1 0SH     -0.611800
     27 C4A         2.6470    3.6820    0.5000 c3        1 0SH      0.092100
     28 O4A         4.0120    4.1380    0.6340 oh        1 0SH     -0.617800
     29 C3A         2.4790    2.4410    1.2800 c3        1 0SH      0.122100
     30 O3A         2.9720    2.6680    2.6390 oh        1 0SH     -0.581800
     31 C2A         3.2200    1.3000    0.6850 c3        1 0SH      0.103100
     32 O2A         2.8650    0.1000    1.3890 oh        1 0SH     -0.576800
     33 N2         -0.1360   -2.1420   -1.2340 n         1 0SH     -0.563900
     34 CAA        -0.9890   -2.2570   -0.0480 c         1 0SH      0.669100
     35 OAA        -1.5930   -1.2830    0.3640 o         1 0SH     -0.631100
     36 CAB        -1.1820   -3.6620    0.6530 c3        1 0SH     -0.149400
     37 CAC        -1.4620   -3.4550    2.1470 c3        1 0SH     -0.073400
     38 CAD        -1.7130   -4.8360    2.8280 c3        1 0SH     -0.079400
     39 CAE        -1.9710   -4.6260    4.3390 c3        1 0SH     -0.078400
     40 CAF        -2.2980   -5.9990    5.0120 c3        1 0SH     -0.079400
     41 CAG        -2.6170   -5.7730    6.5260 c3        1 0SH     -0.079400
     42 CAH        -3.0610   -7.1190    7.1760 c3        1 0SH     -0.078400
     43 CAI        -3.3860   -6.8850    8.6720 c3        1 0SH     -0.079400
     44 CAJ        -3.8040   -8.2060    9.3170 c3        1 0SH     -0.078400
     45 CAK        -4.1040   -7.9780   10.8050 c3        1 0SH     -0.079400
     46 CAL        -4.5520   -9.3020   11.4480 c3        1 0SH     -0.078400
     47 CAM        -4.8880   -9.0670   12.9210 c3        1 0SH     -0.079400
     48 CAN        -5.4500  -10.3660   13.5350 c3        1 0SH     -0.079400
     49 CAO        -5.7640  -10.1330   15.0260 c3        1 0SH     -0.080400
     50 CAP        -6.3470  -11.4090   15.6340 c3        1 0SH     -0.092100
     51 H1          8.6690   12.3530   -8.7250 hc        1 0SH      0.032700
     52 H2          7.2200   13.0220   -8.6480 hc        1 0SH      0.032700
     53 H3          7.7270   12.0700   -7.4580 hc        1 0SH      0.032700
     54 H4          7.0820   11.2020  -10.1120 hc        1 0SH      0.038700
     55 H5          7.7240   10.2370   -9.0130 hc        1 0SH      0.038700
     56 H6          5.8230   10.5340   -7.6420 hc        1 0SH      0.039700
     57 H7          5.1820   11.4990   -8.7320 hc        1 0SH      0.039700
     58 H8          5.0790    9.6940  -10.2760 hc        1 0SH      0.039700
     59 H9          5.7400    8.7250   -9.1870 hc        1 0SH      0.039700
     60 H10         3.8440    9.0900   -7.7800 hc        1 0SH      0.039700
     61 H11         3.1720    9.9450   -8.9490 hc        1 0SH      0.039700
     62 H12         3.0790    8.0420  -10.3390 hc        1 0SH      0.039700
     63 H13         3.8710    7.1770   -9.2490 hc        1 0SH      0.039700
     64 H14         1.9840    7.5590   -7.7210 hc        1 0SH      0.039700
     65 H15         1.1850    8.1620   -8.9650 hc        1 0SH      0.039700
     66 H16         2.1780    5.4550   -8.9220 hc        1 0SH      0.039700
     67 H17         1.2630    6.0680  -10.0850 hc        1 0SH      0.039700
     68 H18         0.2510    5.8830   -7.3760 hc        1 0SH      0.040200
     69 H19        -0.6320    6.1250   -8.6840 hc        1 0SH      0.040200
     70 H20        -0.4030    3.9070   -9.3570 hc        1 0SH      0.040200
     71 H21         0.7740    3.6490   -8.3130 hc        1 0SH      0.040200
     72 H22        -0.9630    4.0990   -6.5570 hc        1 0SH      0.040700
     73 H23        -2.0260    3.8240   -7.7240 hc        1 0SH      0.040700
     74 H24        -0.0240    1.8810   -7.1810 hc        1 0SH      0.042200
     75 H25        -1.4190    1.6320   -7.8970 hc        1 0SH      0.042200
     76 H26        -2.5660    1.6590   -5.9060 hc        1 0SH      0.039700
     77 H28        -1.5070   -0.3770   -5.8120 hc        1 0SH      0.061200
     78 H30        -0.8140    0.9690   -3.3880 h1        1 0SH      0.051700
     79 H31        -2.8840    0.9350   -3.4360 ho        1 0SH      0.407000
     80 H32        -1.1220   -1.8260   -3.4160 h1        1 0SH      0.072700
     81 H33         0.4780   -2.0850   -4.6350 ho        1 0SH      0.414000
     82 H34        -0.5950   -0.2260   -1.4860 h1        1 0SH      0.100700
     83 H35         1.6480   -0.0820   -2.8040 h1        1 0SH      0.059700
     84 H36         1.9980   -1.1710   -1.6840 h1        1 0SH      0.059700
     85 H37         3.5110    0.4380   -1.1550 h2        1 0SH      0.083700
     86 H38         1.3790    3.3250   -1.0750 h1        1 0SH      0.101700
     87 H39         2.1620    4.7840   -2.5290 h1        1 0SH      0.060200
     88 H40         2.5350    5.5010   -1.1490 h1        1 0SH      0.060200
     89 H41         4.2820    5.4090   -2.5080 ho        1 0SH      0.419000
     90 H42         2.0460    4.3670    0.8600 h1        1 0SH      0.061700
     91 H43         4.0260    4.9000    1.0880 ho        1 0SH      0.432000
     92 H44         1.5320    2.2180    1.3210 h1        1 0SH      0.091700
     93 H45         3.7680    3.0750    2.6030 ho        1 0SH      0.419000
     94 H46         4.1840    1.4570    0.7880 h1        1 0SH      0.103700
     95 H47         3.5790   -0.2140    1.8220 ho        1 0SH      0.414000
     96 H48         0.3100   -2.8720   -1.5450 hn        1 0SH      0.319500
     97 H49        -1.9380   -4.1320    0.2410 hc        1 0SH      0.064700
     98 H50        -0.3690   -4.1950    0.5440 hc        1 0SH      0.064700
     99 H51        -2.2560   -2.8890    2.2550 hc        1 0SH      0.058700
    100 H52        -0.6970   -3.0230    2.5630 hc        1 0SH      0.058700
    101 H53        -0.9280   -5.4060    2.7070 hc        1 0SH      0.038200
    102 H54        -2.4910   -5.2640    2.4210 hc        1 0SH      0.038200
    103 H55        -1.1700   -4.2390    4.7560 hc        1 0SH      0.043200
    104 H56        -2.7240   -4.0190    4.4570 hc        1 0SH      0.043200
    105 H57        -3.0720   -6.4020    4.5710 hc        1 0SH      0.039200
    106 H58        -1.5260   -6.5960    4.9260 hc        1 0SH      0.039200
    107 H59        -3.3380   -5.1170    6.6130 hc        1 0SH      0.040200
    108 H60        -1.8160   -5.4400    6.9820 hc        1 0SH      0.040200
    109 H61        -3.8570   -7.4560    6.7180 hc        1 0SH      0.039200
    110 H62        -2.3350   -7.7760    7.0970 hc        1 0SH      0.039200
    111 H63        -2.5980   -6.5390    9.1240 hc        1 0SH      0.039700
    112 H64        -4.1110   -6.2430    8.7490 hc        1 0SH      0.039700
    113 H65        -3.0780   -8.8580    9.2260 hc        1 0SH      0.039200
    114 H66        -4.6050   -8.5470    8.8720 hc        1 0SH      0.039200
    115 H67        -3.2980   -7.6550   11.2540 hc        1 0SH      0.039700
    116 H68        -4.8150   -7.3150   10.8960 hc        1 0SH      0.039700
    117 H69        -3.8340   -9.9540   11.3800 hc        1 0SH      0.039700
    118 H70        -5.3400   -9.6380   10.9840 hc        1 0SH      0.039700
    119 H71        -5.5610   -8.3520   12.9930 hc        1 0SH      0.039700
    120 H72        -4.0780   -8.8020   13.4020 hc        1 0SH      0.039700
    121 H73        -6.2730  -10.6230   13.0630 hc        1 0SH      0.039700
    122 H74        -4.7880  -11.0810   13.4490 hc        1 0SH      0.039700
    123 H75        -6.4140   -9.4050   15.1120 hc        1 0SH      0.038700
    124 H76        -4.9420   -9.8940   15.4980 hc        1 0SH      0.038700
    125 H77        -5.6700  -12.1270   15.6050 hc        1 0SH      0.032700
    126 H78        -6.6060  -11.2380   16.5720 hc        1 0SH      0.032700
    127 H79        -7.1330  -11.6830   15.1250 hc        1 0SH      0.032700
    128 H27        -1.3700    2.4030   -5.1460 hc        1 0SH      0.039700
    129 H29        -0.0710    0.2950   -5.5770 hc        1 0SH      0.061200
@<TRIPOS>BOND
     1    1    2 1   
     2    1   51 1   
     3    1   52 1   
     4    1   53 1   
     5    2    3 1   
     6    2   54 1   
     7    2   55 1   
     8    3    4 1   
     9    3   56 1   
    10    3   57 1   
    11    4    5 1   
    12    4   58 1   
    13    4   59 1   
    14    5    6 1   
    15    5   60 1   
    16    5   61 1   
    17    6    7 1   
    18    6   62 1   
    19    6   63 1   
    20    7    8 1   
    21    7   64 1   
    22    7   65 1   
    23    8    9 1   
    24    8   66 1   
    25    8   67 1   
    26    9   10 1   
    27    9   68 1   
    28    9   69 1   
    29   10   11 1   
    30   10   70 1   
    31   10   71 1   
    32   11   12 1   
    33   11   72 1   
    34   11   73 1   
    35   12   13 1   
    36   12   74 1   
    37   12   75 1   
    38   13   14 1   
    39   13   76 1   
    40   13  128 1   
    41   14   15 1   
    42   14   77 1   
    43   14  129 1   
    44   15   16 1   
    45   15   17 1   
    46   15   78 1   
    47   16   79 1   
    48   17   18 1   
    49   17   19 1   
    50   17   80 1   
    51   18   81 1   
    52   19   20 1   
    53   19   33 1   
    54   19   82 1   
    55   20   21 1   
    56   20   83 1   
    57   20   84 1   
    58   21   22 1   
    59   22   23 1   
    60   22   31 1   
    61   22   85 1   
    62   23   24 1   
    63   24   25 1   
    64   24   27 1   
    65   24   86 1   
    66   25   26 1   
    67   25   87 1   
    68   25   88 1   
    69   26   89 1   
    70   27   28 1   
    71   27   29 1   
    72   27   90 1   
    73   28   91 1   
    74   29   30 1   
    75   29   31 1   
    76   29   92 1   
    77   30   93 1   
    78   31   32 1   
    79   31   94 1   
    80   32   95 1   
    81   33   34 1   
    82   33   96 1   
    83   34   35 2   
    84   34   36 1   
    85   36   37 1   
    86   36   97 1   
    87   36   98 1   
    88   37   38 1   
    89   37   99 1   
    90   37  100 1   
    91   38   39 1   
    92   38  101 1   
    93   38  102 1   
    94   39   40 1   
    95   39  103 1   
    96   39  104 1   
    97   40   41 1   
    98   40  105 1   
    99   40  106 1   
   100   41   42 1   
   101   41  107 1   
   102   41  108 1   
   103   42   43 1   
   104   42  109 1   
   105   42  110 1   
   106   43   44 1   
   107   43  111 1   
   108   43  112 1   
   109   44   45 1   
   110   44  113 1   
   111   44  114 1   
   112   45   46 1   
   113   45  115 1   
   114   45  116 1   
   115   46   47 1   
   116   46  117 1   
   117   46  118 1   
   118   47   48 1   
   119   47  119 1   
   120   47  120 1   
   121   48   49 1   
   122   48  121 1   
   123   48  122 1   
   124   49   50 1   
   125   49  123 1   
   126   49  124 1   
   127   50  125 1   
   128   50  126 1   
   129   50  127 1   
@<TRIPOS>SUBSTRUCTURE
     1 0SH         1 TEMP              0 ****  ****    0 ROOT
