@<TRIPOS>MOLECULE
0SH
  130   130     1     0     0
SMALL
bcc


@<TRIPOS>ATOM
      1 C18         0.2280    0.0420   -0.0960 c3        1 0SH     -0.093100
      2 C17         1.7230   -0.1280   -0.0290 c3        1 0SH     -0.080400
      3 C16         2.2330    0.0010    1.3910 c3        1 0SH     -0.079400
      4 C15         3.7360   -0.1700    1.4540 c3        1 0SH     -0.079400
      5 C14         4.2450   -0.0410    2.8740 c3        1 0SH     -0.079400
      6 C13         5.7480   -0.2110    2.9360 c3        1 0SH     -0.079400
      7 C12         6.2560   -0.0810    4.3560 c3        1 0SH     -0.079400
      8 C11         7.7590   -0.2500    4.4180 c3        1 0SH     -0.079400
      9 C10         8.2680   -0.1170    5.8370 c3        1 0SH     -0.079400
     10 C9          9.7710   -0.2860    5.8980 c3        1 0SH     -0.079400
     11 C8         10.2800   -0.1500    7.3170 c3        1 0SH     -0.079400
     12 C7         11.7840   -0.3180    7.3770 c3        1 0SH     -0.079400
     13 C6         12.2920   -0.1810    8.7970 c3        1 0SH     -0.082400
     14 C5         13.7960   -0.3430    8.8510 c3        1 0SH     -0.118400
     15 C4         14.3210   -0.2440   10.2770 c3        1 0SH      0.139100
     16 O4         14.0470   -1.4150   11.0430 oh        1 0SH     -0.670800
     17 C3         15.8590   -0.0780   10.2760 c3        1 0SH      0.140100
     18 O3         16.1220    1.1200    9.5780 oh        1 0SH     -0.570800
     19 C2         16.4170    0.0670   11.7240 c3        1 0SH      0.075500
     20 C1         17.7790    0.7890   11.7040 c3        1 0SH      0.107400
     21 O1A        18.6300    0.1820   10.7420 os        1 0SH     -0.451600
     22 C1A        19.8010   -0.4320   11.2570 c3        1 0SH      0.303900
     23 O6A        19.3810   -1.7260   11.6390 os        1 0SH     -0.462600
     24 C5M        19.0860   -2.6270   10.5630 c3        1 0SH      0.105100
     25 C6A        18.7370   -3.9560   11.2470 c3        1 0SH      0.130400
     26 O5A        18.0810   -3.6870   12.4760 oh        1 0SH     -0.644800
     27 C4A        20.2410   -2.7670    9.5690 c3        1 0SH      0.129100
     28 O4A        21.3410   -3.3480   10.2420 oh        1 0SH     -0.596800
     29 C3A        20.5850   -1.3710    9.0180 c3        1 0SH      0.118100
     30 O3A        21.7220   -1.5400    8.1960 oh        1 0SH     -0.596800
     31 C2A        20.9070   -0.4220   10.1840 c3        1 0SH      0.095100
     32 O2A        21.0580    0.8610    9.6170 oh        1 0SH     -0.577800
     33 N2         16.4980   -1.2600   12.4150 n4        1 0SH     -0.686800
     34 CAA        16.3160   -1.1900   13.9130 c         1 0SH      0.557100
     35 OAA        16.5880   -0.1310   14.4590 o         1 0SH     -0.436100
     36 CAB        15.8240   -2.4620   14.5400 c3        1 0SH     -0.159400
     37 CAC        15.9090   -2.3850   16.0520 c3        1 0SH     -0.081400
     38 CAD        15.3750   -3.6590   16.6740 c3        1 0SH     -0.080400
     39 CAE        15.4630   -3.5970   18.1840 c3        1 0SH     -0.079400
     40 CAF        14.9310   -4.8670   18.8120 c3        1 0SH     -0.079400
     41 CAG        15.0190   -4.8070   20.3230 c3        1 0SH     -0.079400
     42 CAH        14.4870   -6.0770   20.9530 c3        1 0SH     -0.079400
     43 CAI        14.5740   -6.0170   22.4630 c3        1 0SH     -0.079400
     44 CAJ        14.0440   -7.2870   23.0930 c3        1 0SH     -0.079400
     45 CAK        14.1300   -7.2260   24.6040 c3        1 0SH     -0.079400
     46 CAL        13.6000   -8.4960   25.2350 c3        1 0SH     -0.079400
     47 CAM        13.6860   -8.4360   26.7450 c3        1 0SH     -0.079400
     48 CAN        13.1560   -9.7050   27.3760 c3        1 0SH     -0.079400
     49 CAO        13.2410   -9.6460   28.8870 c3        1 0SH     -0.080400
     50 CAP        12.7150  -10.9090   29.5200 c3        1 0SH     -0.093100
     51 H1         -0.0730    1.0480    0.2850 hc        1 0SH      0.033367
     52 H2         -0.1270   -0.0570   -1.1500 hc        1 0SH      0.033367
     53 H3         -0.2860   -0.7340    0.5230 hc        1 0SH      0.033367
     54 H4          2.2200    0.6430   -0.6750 hc        1 0SH      0.038700
     55 H5          2.0070   -1.1330   -0.4380 hc        1 0SH      0.038700
     56 H6          1.7390   -0.7710    2.0390 hc        1 0SH      0.039700
     57 H7          1.9520    1.0060    1.8010 hc        1 0SH      0.039700
     58 H8          4.0170   -1.1760    1.0440 hc        1 0SH      0.039700
     59 H9          4.2300    0.6010    0.8060 hc        1 0SH      0.039700
     60 H10         3.7510   -0.8120    3.5220 hc        1 0SH      0.040200
     61 H11         3.9630    0.9650    3.2840 hc        1 0SH      0.040200
     62 H12         6.2410    0.5600    2.2870 hc        1 0SH      0.040200
     63 H13         6.0290   -1.2170    2.5260 hc        1 0SH      0.040200
     64 H14         5.7630   -0.8520    5.0040 hc        1 0SH      0.040200
     65 H15         5.9740    0.9250    4.7650 hc        1 0SH      0.040200
     66 H16         8.2520    0.5200    3.7670 hc        1 0SH      0.040700
     67 H17         8.0410   -1.2570    4.0090 hc        1 0SH      0.040700
     68 H18         7.7760   -0.8880    6.4870 hc        1 0SH      0.040700
     69 H19         7.9860    0.8890    6.2450 hc        1 0SH      0.040700
     70 H20        10.2630    0.4840    5.2470 hc        1 0SH      0.042200
     71 H21        10.0540   -1.2930    5.4910 hc        1 0SH      0.042200
     72 H22         9.9970    0.8560    7.7230 hc        1 0SH      0.042200
     73 H23         9.7880   -0.9200    7.9680 hc        1 0SH      0.042200
     74 H24        12.2740    0.4530    6.7270 hc        1 0SH      0.045700
     75 H25        12.0660   -1.3250    6.9700 hc        1 0SH      0.045700
     76 H26        12.0070    0.8270    9.2020 hc        1 0SH      0.043700
     77 H28        14.0930   -1.3310    8.4110 hc        1 0SH      0.070200
     78 H30        13.8520    0.6330   10.8060 h1        1 0SH      0.076700
     79 H31        13.2710   -1.8470   10.6640 ho        1 0SH      0.448000
     80 H32        16.3420   -0.9560    9.7650 h1        1 0SH      0.056700
     81 H33        17.0290    1.0660    9.2400 ho        1 0SH      0.437000
     82 H34        15.7010    0.7150   12.3150 hx        1 0SH      0.124700
     83 H35        18.2310    0.8170   12.7290 h1        1 0SH      0.094200
     84 H36        17.6030    1.8410   11.3400 h1        1 0SH      0.094200
     85 H37        20.1590    0.0510   12.2110 h2        1 0SH      0.091700
     86 H38        18.1950   -2.2190   10.0050 h1        1 0SH      0.042700
     87 H39        17.9990   -4.5270   10.6240 h1        1 0SH      0.086200
     88 H40        19.6640   -4.5670   11.4070 h1        1 0SH      0.086200
     89 H41        18.7730   -3.5540   13.1370 ho        1 0SH      0.429000
     90 H42        19.9250   -3.4330    8.7170 h1        1 0SH      0.073700
     91 H43        22.0840   -3.3400    9.6200 ho        1 0SH      0.442000
     92 H44        19.7250   -0.9590    8.4220 h1        1 0SH      0.068700
     93 H45        21.9610   -0.6640    7.8600 ho        1 0SH      0.438000
     94 H46        21.8580   -0.7660   10.6840 h1        1 0SH      0.087700
     95 H47        21.4760    1.4250   10.2810 ho        1 0SH      0.419000
     96 H48        15.7780   -1.8910   12.0320 hn        1 0SH      0.484300
     97 H49        14.7560   -2.6240   14.2230 hc        1 0SH      0.107200
     98 H50        16.4320   -3.3320   14.1600 hc        1 0SH      0.107200
     99 H51        15.3210   -1.5030   16.4200 hc        1 0SH      0.066700
    100 H52        16.9750   -2.2260   16.3630 hc        1 0SH      0.066700
    101 H53        14.3070   -3.8120   16.3660 hc        1 0SH      0.047200
    102 H54        15.9610   -4.5390   16.2990 hc        1 0SH      0.047200
    103 H55        14.8780   -2.7170   18.5600 hc        1 0SH      0.046700
    104 H56        16.5310   -3.4420   18.4940 hc        1 0SH      0.046700
    105 H57        15.5160   -5.7480   18.4370 hc        1 0SH      0.042200
    106 H58        13.8640   -5.0220   18.5040 hc        1 0SH      0.042200
    107 H59        16.0860   -4.6520   20.6320 hc        1 0SH      0.042200
    108 H60        14.4330   -3.9270   20.6990 hc        1 0SH      0.042200
    109 H61        13.4200   -6.2330   20.6430 hc        1 0SH      0.040700
    110 H62        15.0730   -6.9570   20.5770 hc        1 0SH      0.040700
    111 H63        15.6410   -5.8610   22.7730 hc        1 0SH      0.041200
    112 H64        13.9890   -5.1370   22.8390 hc        1 0SH      0.041200
    113 H65        14.6300   -8.1670   22.7180 hc        1 0SH      0.040200
    114 H66        12.9770   -7.4440   22.7840 hc        1 0SH      0.040200
    115 H67        13.5440   -6.3470   24.9790 hc        1 0SH      0.040200
    116 H68        15.1970   -7.0690   24.9130 hc        1 0SH      0.040200
    117 H69        12.5330   -8.6540   24.9250 hc        1 0SH      0.039700
    118 H70        14.1870   -9.3760   24.8600 hc        1 0SH      0.039700
    119 H71        14.7530   -8.2780   27.0550 hc        1 0SH      0.039700
    120 H72        13.1000   -7.5560   27.1200 hc        1 0SH      0.039700
    121 H73        12.0900   -9.8640   27.0660 hc        1 0SH      0.039700
    122 H74        13.7430  -10.5850   27.0020 hc        1 0SH      0.039700
    123 H75        12.6550   -8.7650   29.2590 hc        1 0SH      0.038700
    124 H76        14.3090   -9.4870   29.1950 hc        1 0SH      0.038700
    125 H77        12.7870  -10.8440   30.6320 hc        1 0SH      0.033367
    126 H78        13.3030  -11.7950   29.1790 hc        1 0SH      0.033367
    127 H79        11.6450  -11.0720   29.2440 hc        1 0SH      0.033367
    128 H27        11.7960   -0.9500    9.4470 hc        1 0SH      0.043700
    129 H29        14.2810    0.4650    8.2380 hc        1 0SH      0.070200
    130 H221       17.4250   -1.6920   12.2280 hn        1 0SH      0.484300
@<TRIPOS>BOND
     1    1    2 1   
     2    1   51 1   
     3    1   52 1   
     4    1   53 1   
     5    2    3 1   
     6    2   54 1   
     7    2   55 1   
     8    3    4 1   
     9    3   56 1   
    10    3   57 1   
    11    4    5 1   
    12    4   58 1   
    13    4   59 1   
    14    5    6 1   
    15    5   60 1   
    16    5   61 1   
    17    6    7 1   
    18    6   62 1   
    19    6   63 1   
    20    7    8 1   
    21    7   64 1   
    22    7   65 1   
    23    8    9 1   
    24    8   66 1   
    25    8   67 1   
    26    9   10 1   
    27    9   68 1   
    28    9   69 1   
    29   10   11 1   
    30   10   70 1   
    31   10   71 1   
    32   11   12 1   
    33   11   72 1   
    34   11   73 1   
    35   12   13 1   
    36   12   74 1   
    37   12   75 1   
    38   13   14 1   
    39   13   76 1   
    40   13  128 1   
    41   14   15 1   
    42   14   77 1   
    43   14  129 1   
    44   15   16 1   
    45   15   17 1   
    46   15   78 1   
    47   16   79 1   
    48   17   18 1   
    49   17   19 1   
    50   17   80 1   
    51   18   81 1   
    52   19   20 1   
    53   19   33 1   
    54   19   82 1   
    55   20   21 1   
    56   20   83 1   
    57   20   84 1   
    58   21   22 1   
    59   22   23 1   
    60   22   31 1   
    61   22   85 1   
    62   23   24 1   
    63   24   25 1   
    64   24   27 1   
    65   24   86 1   
    66   25   26 1   
    67   25   87 1   
    68   25   88 1   
    69   26   89 1   
    70   27   28 1   
    71   27   29 1   
    72   27   90 1   
    73   28   91 1   
    74   29   30 1   
    75   29   31 1   
    76   29   92 1   
    77   30   93 1   
    78   31   32 1   
    79   31   94 1   
    80   32   95 1   
    81   33   34 1   
    82   33   96 1   
    83   33  130 1   
    84   34   35 2   
    85   34   36 1   
    86   36   37 1   
    87   36   97 1   
    88   36   98 1   
    89   37   38 1   
    90   37   99 1   
    91   37  100 1   
    92   38   39 1   
    93   38  101 1   
    94   38  102 1   
    95   39   40 1   
    96   39  103 1   
    97   39  104 1   
    98   40   41 1   
    99   40  105 1   
   100   40  106 1   
   101   41   42 1   
   102   41  107 1   
   103   41  108 1   
   104   42   43 1   
   105   42  109 1   
   106   42  110 1   
   107   43   44 1   
   108   43  111 1   
   109   43  112 1   
   110   44   45 1   
   111   44  113 1   
   112   44  114 1   
   113   45   46 1   
   114   45  115 1   
   115   45  116 1   
   116   46   47 1   
   117   46  117 1   
   118   46  118 1   
   119   47   48 1   
   120   47  119 1   
   121   47  120 1   
   122   48   49 1   
   123   48  121 1   
   124   48  122 1   
   125   49   50 1   
   126   49  123 1   
   127   49  124 1   
   128   50  125 1   
   129   50  126 1   
   130   50  127 1   
@<TRIPOS>SUBSTRUCTURE
     1 0SH         1 TEMP              0 ****  ****    0 ROOT
