@<TRIPOS>MOLECULE
0SH
  129   129     1     0     0
SMALL
bcc


@<TRIPOS>ATOM
      1 C18       -17.2970   -7.7650   -1.2450 c3        1 0SH     -0.092100
      2 C17       -16.6880   -6.3870   -1.2280 c3        1 0SH     -0.080400
      3 C16       -15.2090   -6.4370   -0.9040 c3        1 0SH     -0.079400
      4 C15       -14.6010   -5.0510   -0.8890 c3        1 0SH     -0.079400
      5 C14       -13.1240   -5.1020   -0.5650 c3        1 0SH     -0.079400
      6 C13       -12.5160   -3.7160   -0.5490 c3        1 0SH     -0.079400
      7 C12       -11.0380   -3.7680   -0.2260 c3        1 0SH     -0.079400
      8 C11       -10.4300   -2.3810   -0.2100 c3        1 0SH     -0.079400
      9 C10        -8.9530   -2.4330    0.1130 c3        1 0SH     -0.079400
     10 C9         -8.3450   -1.0470    0.1290 c3        1 0SH     -0.079400
     11 C8         -6.8670   -1.0990    0.4520 c3        1 0SH     -0.079400
     12 C7         -6.2600    0.2880    0.4690 c3        1 0SH     -0.078400
     13 C6         -4.7810    0.2340    0.7880 c3        1 0SH     -0.080400
     14 C5         -4.1770    1.6200    0.8170 c3        1 0SH     -0.107400
     15 C4         -2.6710    1.5610    1.0500 c3        1 0SH      0.102100
     16 O4         -2.0170    0.8140    0.0340 oh        1 0SH     -0.600800
     17 C3         -2.0560    2.9730    1.1150 c3        1 0SH      0.088100
     18 O3         -2.9360    3.9080    1.7110 oh        1 0SH     -0.590800
     19 C2         -0.7020    3.0040    1.8820 c3        1 0SH      0.071700
     20 C1         -0.0140    4.3510    1.5730 c3        1 0SH      0.125400
     21 O1A         0.3110    4.3680    0.1800 os        1 0SH     -0.474600
     22 C1A         1.1060    5.4780   -0.2020 c3        1 0SH      0.309900
     23 O6A         2.4100    5.2340    0.2700 os        1 0SH     -0.432600
     24 C5M         3.0880    4.1260   -0.3320 c3        1 0SH      0.106100
     25 C6A         4.5060    4.1600    0.2500 c3        1 0SH      0.142400
     26 O5A         4.4920    3.8990    1.6360 oh        1 0SH     -0.598800
     27 C4A         3.1180    4.2030   -1.8630 c3        1 0SH      0.126100
     28 O4A         3.9440    5.2880   -2.2470 oh        1 0SH     -0.593800
     29 C3A         1.6860    4.3750   -2.3950 c3        1 0SH      0.078100
     30 O3A         1.7910    4.5530   -3.7980 oh        1 0SH     -0.606800
     31 C2A         1.0200    5.5900   -1.7330 c3        1 0SH      0.092100
     32 O2A        -0.3150    5.7200   -2.1710 oh        1 0SH     -0.592800
     33 N2          0.1630    1.8840    1.6230 n         1 0SH     -0.544900
     34 CAA         0.2240    0.7980    2.4830 c         1 0SH      0.663100
     35 OAA        -0.3590    0.8180    3.5860 o         1 0SH     -0.621100
     36 CAB         1.0490   -0.3960    2.0450 c3        1 0SH     -0.151400
     37 CAC         2.5000   -0.0370    1.8110 c3        1 0SH     -0.075400
     38 CAD         3.3140   -1.2760    1.4990 c3        1 0SH     -0.079400
     39 CAE         4.7660   -0.9260    1.2520 c3        1 0SH     -0.079400
     40 CAF         5.5830   -2.1640    0.9490 c3        1 0SH     -0.078400
     41 CAG         7.0350   -1.8150    0.7000 c3        1 0SH     -0.079400
     42 CAH         7.8540   -3.0520    0.3990 c3        1 0SH     -0.078400
     43 CAI         9.3050   -2.7030    0.1490 c3        1 0SH     -0.079400
     44 CAJ        10.1240   -3.9400   -0.1520 c3        1 0SH     -0.079400
     45 CAK        11.5750   -3.5910   -0.4020 c3        1 0SH     -0.079400
     46 CAL        12.3940   -4.8270   -0.7040 c3        1 0SH     -0.078400
     47 CAM        13.8460   -4.4780   -0.9530 c3        1 0SH     -0.079400
     48 CAN        14.6640   -5.7150   -1.2550 c3        1 0SH     -0.079400
     49 CAO        16.1170   -5.3670   -1.5050 c3        1 0SH     -0.080400
     50 CAP        16.9360   -6.5960   -1.8050 c3        1 0SH     -0.092100
     51 H1        -17.1820   -8.2590   -0.2500 hc        1 0SH      0.032700
     52 H2        -18.3860   -7.7050   -1.4850 hc        1 0SH      0.032700
     53 H3        -16.8010   -8.4060   -2.0130 hc        1 0SH      0.032700
     54 H4        -16.8350   -5.8970   -2.2270 hc        1 0SH      0.038700
     55 H5        -17.2150   -5.7510   -0.4680 hc        1 0SH      0.038700
     56 H6        -15.0600   -6.9250    0.0950 hc        1 0SH      0.039700
     57 H7        -14.6800   -7.0710   -1.6640 hc        1 0SH      0.039700
     58 H8        -14.7510   -4.5630   -1.8880 hc        1 0SH      0.039700
     59 H9        -15.1310   -4.4170   -0.1290 hc        1 0SH      0.039700
     60 H10       -12.9740   -5.5900    0.4340 hc        1 0SH      0.039700
     61 H11       -12.5940   -5.7360   -1.3250 hc        1 0SH      0.039700
     62 H12       -12.6650   -3.2280   -1.5490 hc        1 0SH      0.039700
     63 H13       -13.0450   -3.0820    0.2100 hc        1 0SH      0.039700
     64 H14       -10.8890   -4.2550    0.7730 hc        1 0SH      0.039700
     65 H15       -10.5090   -4.4020   -0.9860 hc        1 0SH      0.039700
     66 H16       -10.5800   -1.8940   -1.2100 hc        1 0SH      0.039700
     67 H17       -10.9600   -1.7470    0.5490 hc        1 0SH      0.039700
     68 H18        -8.8030   -2.9210    1.1120 hc        1 0SH      0.040200
     69 H19        -8.4230   -3.0670   -0.6460 hc        1 0SH      0.040200
     70 H20        -8.4950   -0.5590   -0.8700 hc        1 0SH      0.039200
     71 H21        -8.8740   -0.4130    0.8890 hc        1 0SH      0.039200
     72 H22        -6.7170   -1.5870    1.4510 hc        1 0SH      0.041200
     73 H23        -6.3380   -1.7320   -0.3080 hc        1 0SH      0.041200
     74 H24        -6.4130    0.7770   -0.5290 hc        1 0SH      0.039700
     75 H25        -6.7870    0.9200    1.2320 hc        1 0SH      0.039700
     76 H26        -4.6270   -0.2640    1.7820 hc        1 0SH      0.048200
     77 H28        -4.3810    2.1510   -0.1490 hc        1 0SH      0.052700
     78 H30        -2.4440    0.9940    1.9990 h1        1 0SH      0.094700
     79 H31        -2.3510    1.1270   -0.8160 ho        1 0SH      0.400000
     80 H32        -1.9040    3.3650    0.0680 h1        1 0SH      0.080700
     81 H33        -3.1260    3.5970    2.6060 ho        1 0SH      0.405000
     82 H34        -0.9360    3.0110    2.9920 h1        1 0SH      0.092700
     83 H35        -0.7370    5.1820    1.7890 h1        1 0SH      0.056700
     84 H36         0.9210    4.4750    2.1780 h1        1 0SH      0.056700
     85 H37         0.7820    6.4300    0.3060 h2        1 0SH      0.094700
     86 H38         2.5540    3.1820   -0.0290 h1        1 0SH      0.064700
     87 H39         5.1170    3.3350   -0.2030 h1        1 0SH      0.065700
     88 H40         4.9770    5.1550    0.0330 h1        1 0SH      0.065700
     89 H41         3.9650    4.5950    2.0490 ho        1 0SH      0.411000
     90 H42         3.5500    3.2470   -2.2740 h1        1 0SH      0.056700
     91 H43         3.8390    5.3890   -3.2040 ho        1 0SH      0.424000
     92 H44         1.0840    3.4490   -2.1790 h1        1 0SH      0.056700
     93 H45         0.9510    4.9280   -4.0960 ho        1 0SH      0.426000
     94 H46         1.5370    6.5350   -2.0640 h1        1 0SH      0.110700
     95 H47        -0.8300    5.0160   -1.7510 ho        1 0SH      0.418000
     96 H48         0.4380    1.7560    0.6770 hn        1 0SH      0.316500
     97 H49         0.9720   -1.1710    2.8540 hc        1 0SH      0.074200
     98 H50         0.5980   -0.8280    1.1130 hc        1 0SH      0.074200
     99 H51         2.5890    0.6910    0.9620 hc        1 0SH      0.050200
    100 H52         2.9160    0.4680    2.7230 hc        1 0SH      0.050200
    101 H53         3.2420   -1.9980    2.3550 hc        1 0SH      0.040700
    102 H54         2.8900   -1.7890    0.5960 hc        1 0SH      0.040700
    103 H55         4.8390   -0.2070    0.3940 hc        1 0SH      0.043200
    104 H56         5.1870   -0.4070    2.1530 hc        1 0SH      0.043200
    105 H57         5.5120   -2.8810    1.8090 hc        1 0SH      0.039200
    106 H58         5.1610   -2.6830    0.0490 hc        1 0SH      0.039200
    107 H59         7.1070   -1.0970   -0.1600 hc        1 0SH      0.040200
    108 H60         7.4570   -1.2940    1.6000 hc        1 0SH      0.040200
    109 H61         7.7820   -3.7690    1.2590 hc        1 0SH      0.039200
    110 H62         7.4320   -3.5720   -0.5010 hc        1 0SH      0.039200
    111 H63         9.3770   -1.9860   -0.7110 hc        1 0SH      0.040200
    112 H64         9.7270   -2.1820    1.0490 hc        1 0SH      0.040200
    113 H65        10.0520   -4.6570    0.7070 hc        1 0SH      0.039200
    114 H66         9.7020   -4.4600   -1.0520 hc        1 0SH      0.039200
    115 H67        11.6470   -2.8730   -1.2620 hc        1 0SH      0.039700
    116 H68        11.9970   -3.0700    0.4980 hc        1 0SH      0.039700
    117 H69        12.3220   -5.5450    0.1560 hc        1 0SH      0.039700
    118 H70        11.9720   -5.3480   -1.6040 hc        1 0SH      0.039700
    119 H71        13.9170   -3.7610   -1.8130 hc        1 0SH      0.039700
    120 H72        14.2670   -3.9580   -0.0530 hc        1 0SH      0.039700
    121 H73        14.5930   -6.4330   -0.3950 hc        1 0SH      0.039700
    122 H74        14.2430   -6.2350   -2.1550 hc        1 0SH      0.039700
    123 H75        16.1860   -4.6480   -2.3640 hc        1 0SH      0.038700
    124 H76        16.5360   -4.8460   -0.6040 hc        1 0SH      0.038700
    125 H77        18.0020   -6.3170   -1.9860 hc        1 0SH      0.032700
    126 H78        16.8990   -7.3130   -0.9500 hc        1 0SH      0.032700
    127 H79        16.5480   -7.1150   -2.7150 hc        1 0SH      0.032700
    128 H27        -4.2470   -0.3890    0.0220 hc        1 0SH      0.048200
    129 H29        -4.6520    2.2250    1.6330 hc        1 0SH      0.052700
@<TRIPOS>BOND
     1    1    2 1   
     2    1   51 1   
     3    1   52 1   
     4    1   53 1   
     5    2    3 1   
     6    2   54 1   
     7    2   55 1   
     8    3    4 1   
     9    3   56 1   
    10    3   57 1   
    11    4    5 1   
    12    4   58 1   
    13    4   59 1   
    14    5    6 1   
    15    5   60 1   
    16    5   61 1   
    17    6    7 1   
    18    6   62 1   
    19    6   63 1   
    20    7    8 1   
    21    7   64 1   
    22    7   65 1   
    23    8    9 1   
    24    8   66 1   
    25    8   67 1   
    26    9   10 1   
    27    9   68 1   
    28    9   69 1   
    29   10   11 1   
    30   10   70 1   
    31   10   71 1   
    32   11   12 1   
    33   11   72 1   
    34   11   73 1   
    35   12   13 1   
    36   12   74 1   
    37   12   75 1   
    38   13   14 1   
    39   13   76 1   
    40   13  128 1   
    41   14   15 1   
    42   14   77 1   
    43   14  129 1   
    44   15   16 1   
    45   15   17 1   
    46   15   78 1   
    47   16   79 1   
    48   17   18 1   
    49   17   19 1   
    50   17   80 1   
    51   18   81 1   
    52   19   20 1   
    53   19   33 1   
    54   19   82 1   
    55   20   21 1   
    56   20   83 1   
    57   20   84 1   
    58   21   22 1   
    59   22   23 1   
    60   22   31 1   
    61   22   85 1   
    62   23   24 1   
    63   24   25 1   
    64   24   27 1   
    65   24   86 1   
    66   25   26 1   
    67   25   87 1   
    68   25   88 1   
    69   26   89 1   
    70   27   28 1   
    71   27   29 1   
    72   27   90 1   
    73   28   91 1   
    74   29   30 1   
    75   29   31 1   
    76   29   92 1   
    77   30   93 1   
    78   31   32 1   
    79   31   94 1   
    80   32   95 1   
    81   33   34 1   
    82   33   96 1   
    83   34   35 2   
    84   34   36 1   
    85   36   37 1   
    86   36   97 1   
    87   36   98 1   
    88   37   38 1   
    89   37   99 1   
    90   37  100 1   
    91   38   39 1   
    92   38  101 1   
    93   38  102 1   
    94   39   40 1   
    95   39  103 1   
    96   39  104 1   
    97   40   41 1   
    98   40  105 1   
    99   40  106 1   
   100   41   42 1   
   101   41  107 1   
   102   41  108 1   
   103   42   43 1   
   104   42  109 1   
   105   42  110 1   
   106   43   44 1   
   107   43  111 1   
   108   43  112 1   
   109   44   45 1   
   110   44  113 1   
   111   44  114 1   
   112   45   46 1   
   113   45  115 1   
   114   45  116 1   
   115   46   47 1   
   116   46  117 1   
   117   46  118 1   
   118   47   48 1   
   119   47  119 1   
   120   47  120 1   
   121   48   49 1   
   122   48  121 1   
   123   48  122 1   
   124   49   50 1   
   125   49  123 1   
   126   49  124 1   
   127   50  125 1   
   128   50  126 1   
   129   50  127 1   
@<TRIPOS>SUBSTRUCTURE
     1 0SH         1 TEMP              0 ****  ****    0 ROOT
