@<TRIPOS>MOLECULE
0SH
  130   130     1     0     0
SMALL
bcc


@<TRIPOS>ATOM
      1 C18         0.2520    0.0190   -0.1830 c3        1 0SH     -0.093100
      2 C17         1.7460   -0.1620   -0.1040 c3        1 0SH     -0.080400
      3 C16         2.2500   -0.0040    1.3150 c3        1 0SH     -0.079400
      4 C15         3.7510   -0.1870    1.3900 c3        1 0SH     -0.079400
      5 C14         4.2530   -0.0290    2.8090 c3        1 0SH     -0.079400
      6 C13         5.7540   -0.2110    2.8840 c3        1 0SH     -0.079400
      7 C12         6.2560   -0.0530    4.3030 c3        1 0SH     -0.079400
      8 C11         7.7570   -0.2360    4.3780 c3        1 0SH     -0.079400
      9 C10         8.2580   -0.0780    5.7970 c3        1 0SH     -0.079400
     10 C9          9.7590   -0.2620    5.8720 c3        1 0SH     -0.079400
     11 C8         10.2600   -0.1040    7.2920 c3        1 0SH     -0.079400
     12 C7         11.7600   -0.2900    7.3660 c3        1 0SH     -0.079400
     13 C6         12.2600   -0.1330    8.7870 c3        1 0SH     -0.082400
     14 C5         13.7610   -0.3170    8.8570 c3        1 0SH     -0.118400
     15 C4         14.2760   -0.1990   10.2850 c3        1 0SH      0.140100
     16 O4         13.9840   -1.3550   11.0660 oh        1 0SH     -0.669800
     17 C3         15.8150   -0.0500   10.2940 c3        1 0SH      0.140100
     18 O3         16.0950    1.1380    9.5850 oh        1 0SH     -0.569800
     19 C2         16.3650    0.0960   11.7450 c3        1 0SH      0.073500
     20 C1         17.7290    0.8160   11.7350 c3        1 0SH      0.109400
     21 O1A        18.6000    0.1670   10.8190 os        1 0SH     -0.452600
     22 C1A        19.7500   -0.4340   11.3910 c3        1 0SH      0.336900
     23 O6A        19.3270   -1.7450   11.7110 os        1 0SH     -0.464600
     24 C5M        19.0610   -2.5980   10.5880 c3        1 0SH      0.108100
     25 C6A        18.6610   -3.9440   11.2050 c3        1 0SH      0.131400
     26 O5A        17.9590   -3.7060   12.4150 oh        1 0SH     -0.643800
     27 C4A        20.2570   -2.7100    9.6400 c3        1 0SH      0.097100
     28 O4A        21.3080   -3.3670   10.3220 oh        1 0SH     -0.591800
     29 C3A        20.6610   -1.2990    9.1770 c3        1 0SH      0.067100
     30 O3A        21.8950   -1.3590    8.4810 oh        1 0SH     -0.597800
     31 C2A        20.9210   -0.3980   10.3950 c3        1 0SH      0.139100
     32 O2A        21.0900    0.9480   10.0080 oh        1 0SH     -0.581800
     33 N2         16.4390   -1.2310   12.4350 ny        1 0SH     -0.685800
     34 CAA        16.2590   -1.1630   13.9320 c         1 0SH      0.556100
     35 OAA        16.5270   -0.1030   14.4800 o         1 0SH     -0.434100
     36 CAB        15.7690   -2.4370   14.5590 c3        1 0SH     -0.159400
     37 CAC        15.8900   -2.3750   16.0700 c3        1 0SH     -0.081400
     38 CAD        15.3460   -3.6430   16.6920 c3        1 0SH     -0.080400
     39 CAE        15.4690   -3.5970   18.2010 c3        1 0SH     -0.079400
     40 CAF        14.9240   -4.8610   18.8300 c3        1 0SH     -0.079400
     41 CAG        15.0450   -4.8160   20.3380 c3        1 0SH     -0.079400
     42 CAH        14.4980   -6.0790   20.9690 c3        1 0SH     -0.079400
     43 CAI        14.6170   -6.0340   22.4770 c3        1 0SH     -0.079400
     44 CAJ        14.0700   -7.2960   23.1090 c3        1 0SH     -0.079400
     45 CAK        14.1880   -7.2520   24.6170 c3        1 0SH     -0.079400
     46 CAL        13.6400   -8.5140   25.2480 c3        1 0SH     -0.078400
     47 CAM        13.7580   -8.4690   26.7570 c3        1 0SH     -0.079400
     48 CAN        13.2100   -9.7300   27.3890 c3        1 0SH     -0.079400
     49 CAO        13.3270   -9.6860   28.8970 c3        1 0SH     -0.080400
     50 CAP        12.7820  -10.9410   29.5300 c3        1 0SH     -0.093100
     51 H1         -0.2710   -0.7370    0.4510 hc        1 0SH      0.033700
     52 H2         -0.0980   -0.1010   -1.2370 hc        1 0SH      0.033700
     53 H3         -0.0410    1.0360    0.1720 hc        1 0SH      0.033700
     54 H4          2.0230   -1.1790   -0.4880 hc        1 0SH      0.038700
     55 H5          2.2520    0.5900   -0.7650 hc        1 0SH      0.038700
     56 H6          1.9750    1.0130    1.7000 hc        1 0SH      0.039700
     57 H7          1.7460   -0.7560    1.9780 hc        1 0SH      0.039700
     58 H8          4.2550    0.5650    0.7270 hc        1 0SH      0.039700
     59 H9          4.0260   -1.2040    1.0050 hc        1 0SH      0.039700
     60 H10         3.9780    0.9890    3.1940 hc        1 0SH      0.040200
     61 H11         3.7490   -0.7800    3.4720 hc        1 0SH      0.040200
     62 H12         6.2580    0.5400    2.2210 hc        1 0SH      0.040200
     63 H13         6.0290   -1.2280    2.4990 hc        1 0SH      0.040200
     64 H14         5.7520   -0.8050    4.9660 hc        1 0SH      0.040200
     65 H15         5.9810    0.9640    4.6880 hc        1 0SH      0.040200
     66 H16         8.2610    0.5150    3.7150 hc        1 0SH      0.040700
     67 H17         8.0310   -1.2540    3.9930 hc        1 0SH      0.040700
     68 H18         7.7530   -0.8290    6.4600 hc        1 0SH      0.041200
     69 H19         7.9840    0.9400    6.1820 hc        1 0SH      0.041200
     70 H20        10.2630    0.4900    5.2100 hc        1 0SH      0.041700
     71 H21        10.0330   -1.2790    5.4870 hc        1 0SH      0.041700
     72 H22         9.9870    0.9140    7.6760 hc        1 0SH      0.042200
     73 H23         9.7530   -0.8550    7.9550 hc        1 0SH      0.042200
     74 H24        12.2660    0.4630    6.7060 hc        1 0SH      0.045700
     75 H25        12.0330   -1.3070    6.9790 hc        1 0SH      0.045700
     76 H26        11.7470   -0.8830    9.4470 hc        1 0SH      0.043700
     77 H28        14.0460   -1.3180    8.4380 hc        1 0SH      0.069700
     78 H30        13.8130    0.6920   10.7950 h1        1 0SH      0.076700
     79 H31        13.1840   -1.7630   10.7110 ho        1 0SH      0.448000
     80 H32        16.2920   -0.9370    9.7920 h1        1 0SH      0.053700
     81 H33        17.0130    1.0850    9.2790 ho        1 0SH      0.436000
     82 H34        15.6460    0.7460   12.3300 hx        1 0SH      0.124700
     83 H35        18.1530    0.8770   12.7710 h1        1 0SH      0.097200
     84 H36        17.5720    1.8570   11.3330 h1        1 0SH      0.097200
     85 H37        20.0520    0.0320   12.3720 h2        1 0SH      0.108700
     86 H38        18.2000   -2.1540   10.0110 h1        1 0SH      0.043700
     87 H39        19.5690   -4.5800   11.3810 h1        1 0SH      0.085700
     88 H40        17.9390   -4.4770   10.5330 h1        1 0SH      0.085700
     89 H41        18.6260   -3.6130   13.1090 ho        1 0SH      0.428000
     90 H42        19.9620   -3.3320    8.7470 h1        1 0SH      0.058700
     91 H43        22.1300   -3.1600    9.8510 ho        1 0SH      0.435000
     92 H44        19.8550   -0.8540    8.5360 h1        1 0SH      0.071700
     93 H45        21.7090   -1.6770    7.5880 ho        1 0SH      0.425000
     94 H46        21.8390   -0.7760   10.9340 h1        1 0SH      0.085700
     95 H47        21.8540    0.9680    9.4130 ho        1 0SH      0.437000
     96 H48        17.3620   -1.6700   12.2440 hn        1 0SH      0.484300
     97 H49        14.6920   -2.5820   14.2660 hc        1 0SH      0.106200
     98 H50        16.3570   -3.3100   14.1580 hc        1 0SH      0.106200
     99 H51        16.9660   -2.2380   16.3580 hc        1 0SH      0.066700
    100 H52        15.3280   -1.4850   16.4580 hc        1 0SH      0.066700
    101 H53        14.2690   -3.7740   16.4070 hc        1 0SH      0.047200
    102 H54        15.9060   -4.5320   16.2970 hc        1 0SH      0.047200
    103 H55        14.9110   -2.7080   18.5980 hc        1 0SH      0.046700
    104 H56        16.5460   -3.4680   18.4880 hc        1 0SH      0.046700
    105 H57        13.8470   -4.9900   18.5430 hc        1 0SH      0.042200
    106 H58        15.4810   -5.7510   18.4350 hc        1 0SH      0.042200
    107 H59        14.4880   -3.9260   20.7350 hc        1 0SH      0.042700
    108 H60        16.1210   -4.6880   20.6270 hc        1 0SH      0.042700
    109 H61        13.4210   -6.2080   20.6810 hc        1 0SH      0.040700
    110 H62        15.0550   -6.9690   20.5740 hc        1 0SH      0.040700
    111 H63        14.0600   -5.1440   22.8730 hc        1 0SH      0.041200
    112 H64        15.6940   -5.9060   22.7660 hc        1 0SH      0.041200
    113 H65        12.9930   -7.4260   22.8200 hc        1 0SH      0.040200
    114 H66        14.6270   -8.1870   22.7140 hc        1 0SH      0.040200
    115 H67        15.2640   -7.1230   24.9070 hc        1 0SH      0.040700
    116 H68        13.6310   -6.3610   25.0120 hc        1 0SH      0.040700
    117 H69        14.1970   -9.4040   24.8540 hc        1 0SH      0.039700
    118 H70        12.5640   -8.6420   24.9590 hc        1 0SH      0.039700
    119 H71        14.8340   -8.3400   27.0470 hc        1 0SH      0.039700
    120 H72        13.2010   -7.5780   27.1510 hc        1 0SH      0.039700
    121 H73        12.1340   -9.8590   27.0990 hc        1 0SH      0.039700
    122 H74        13.7670  -10.6210   26.9950 hc        1 0SH      0.039700
    123 H75        12.7700   -8.7940   29.2890 hc        1 0SH      0.038700
    124 H76        14.4030   -9.5560   29.1850 hc        1 0SH      0.038700
    125 H77        13.3410  -11.8380   29.1710 hc        1 0SH      0.033367
    126 H78        11.7030  -11.0750   29.2760 hc        1 0SH      0.033367
    127 H79        12.8780  -10.8870   30.6420 hc        1 0SH      0.033367
    128 H27        11.9870    0.8860    9.1710 hc        1 0SH      0.043700
    129 H29        14.2630    0.4710    8.2320 hc        1 0SH      0.069700
    130 H221       15.7140   -1.8570   12.0530 hn        1 0SH      0.484300
@<TRIPOS>BOND
     1    1    2 1   
     2    1   51 1   
     3    1   52 1   
     4    1   53 1   
     5    2    3 1   
     6    2   54 1   
     7    2   55 1   
     8    3    4 1   
     9    3   56 1   
    10    3   57 1   
    11    4    5 1   
    12    4   58 1   
    13    4   59 1   
    14    5    6 1   
    15    5   60 1   
    16    5   61 1   
    17    6    7 1   
    18    6   62 1   
    19    6   63 1   
    20    7    8 1   
    21    7   64 1   
    22    7   65 1   
    23    8    9 1   
    24    8   66 1   
    25    8   67 1   
    26    9   10 1   
    27    9   68 1   
    28    9   69 1   
    29   10   11 1   
    30   10   70 1   
    31   10   71 1   
    32   11   12 1   
    33   11   72 1   
    34   11   73 1   
    35   12   13 1   
    36   12   74 1   
    37   12   75 1   
    38   13   14 1   
    39   13   76 1   
    40   13  128 1   
    41   14   15 1   
    42   14   77 1   
    43   14  129 1   
    44   15   16 1   
    45   15   17 1   
    46   15   78 1   
    47   16   79 1   
    48   17   18 1   
    49   17   19 1   
    50   17   80 1   
    51   18   81 1   
    52   19   20 1   
    53   19   33 1   
    54   19   82 1   
    55   20   21 1   
    56   20   83 1   
    57   20   84 1   
    58   21   22 1   
    59   22   23 1   
    60   22   31 1   
    61   22   85 1   
    62   23   24 1   
    63   24   25 1   
    64   24   27 1   
    65   24   86 1   
    66   25   26 1   
    67   25   87 1   
    68   25   88 1   
    69   26   89 1   
    70   27   28 1   
    71   27   29 1   
    72   27   90 1   
    73   28   91 1   
    74   29   30 1   
    75   29   31 1   
    76   29   92 1   
    77   30   93 1   
    78   31   32 1   
    79   31   94 1   
    80   32   95 1   
    81   33   34 1   
    82   33   96 1   
    83   33  130 1   
    84   34   35 2   
    85   34   36 1   
    86   36   37 1   
    87   36   97 1   
    88   36   98 1   
    89   37   38 1   
    90   37   99 1   
    91   37  100 1   
    92   38   39 1   
    93   38  101 1   
    94   38  102 1   
    95   39   40 1   
    96   39  103 1   
    97   39  104 1   
    98   40   41 1   
    99   40  105 1   
   100   40  106 1   
   101   41   42 1   
   102   41  107 1   
   103   41  108 1   
   104   42   43 1   
   105   42  109 1   
   106   42  110 1   
   107   43   44 1   
   108   43  111 1   
   109   43  112 1   
   110   44   45 1   
   111   44  113 1   
   112   44  114 1   
   113   45   46 1   
   114   45  115 1   
   115   45  116 1   
   116   46   47 1   
   117   46  117 1   
   118   46  118 1   
   119   47   48 1   
   120   47  119 1   
   121   47  120 1   
   122   48   49 1   
   123   48  121 1   
   124   48  122 1   
   125   49   50 1   
   126   49  123 1   
   127   49  124 1   
   128   50  125 1   
   129   50  126 1   
   130   50  127 1   
@<TRIPOS>SUBSTRUCTURE
     1 0SH         1 TEMP              0 ****  ****    0 ROOT
