@<TRIPOS>MOLECULE
0SH
  130   130     1     0     0
SMALL
bcc


@<TRIPOS>ATOM
      1 C18         0.2220   -0.0100   -0.0730 c3        1 0SH     -0.093100
      2 C17         1.7180   -0.1760   -0.0080 c3        1 0SH     -0.080400
      3 C16         2.2320   -0.0330    1.4090 c3        1 0SH     -0.079400
      4 C15         3.7350   -0.2010    1.4700 c3        1 0SH     -0.079400
      5 C14         4.2460   -0.0580    2.8880 c3        1 0SH     -0.079400
      6 C13         5.7500   -0.2260    2.9480 c3        1 0SH     -0.079400
      7 C12         6.2610   -0.0830    4.3660 c3        1 0SH     -0.079400
      8 C11         7.7640   -0.2510    4.4260 c3        1 0SH     -0.079400
      9 C10         8.2750   -0.1090    5.8440 c3        1 0SH     -0.079400
     10 C9          9.7790   -0.2770    5.9040 c3        1 0SH     -0.079400
     11 C8         10.2890   -0.1350    7.3220 c3        1 0SH     -0.079400
     12 C7         11.7930   -0.3040    7.3810 c3        1 0SH     -0.079400
     13 C6         12.3030   -0.1630    8.7990 c3        1 0SH     -0.082400
     14 C5         13.8060   -0.3290    8.8530 c3        1 0SH     -0.118400
     15 C4         14.3320   -0.2300   10.2780 c3        1 0SH      0.139100
     16 O4         14.0560   -1.3990   11.0450 oh        1 0SH     -0.670800
     17 C3         15.8700   -0.0670   10.2760 c3        1 0SH      0.140100
     18 O3         16.1360    1.1300    9.5780 oh        1 0SH     -0.570800
     19 C2         16.4300    0.0750   11.7240 c3        1 0SH      0.075500
     20 C1         17.7930    0.7940   11.7030 c3        1 0SH      0.107400
     21 O1A        18.6430    0.1850   10.7400 os        1 0SH     -0.451600
     22 C1A        19.8130   -0.4310   11.2540 c3        1 0SH      0.303900
     23 O6A        19.3900   -1.7240   11.6360 os        1 0SH     -0.462600
     24 C5M        19.0920   -2.6240   10.5600 c3        1 0SH      0.105100
     25 C6A        18.7410   -3.9520   11.2430 c3        1 0SH      0.130400
     26 O5A        18.0860   -3.6830   12.4730 oh        1 0SH     -0.644800
     27 C4A        20.2460   -2.7660    9.5650 c3        1 0SH      0.129100
     28 O4A        21.3450   -3.3490   10.2370 oh        1 0SH     -0.596800
     29 C3A        20.5930   -1.3710    9.0150 c3        1 0SH      0.118100
     30 O3A        21.7290   -1.5420    8.1920 oh        1 0SH     -0.596800
     31 C2A        20.9180   -0.4230   10.1810 c3        1 0SH      0.095100
     32 O2A        21.0720    0.8600    9.6140 oh        1 0SH     -0.577800
     33 N2         16.5090   -1.2520   12.4140 n4        1 0SH     -0.686800
     34 CAA        16.3270   -1.1830   13.9120 c         1 0SH      0.557100
     35 OAA        16.6030   -0.1250   14.4590 o         1 0SH     -0.436100
     36 CAB        15.8320   -2.4540   14.5380 c3        1 0SH     -0.159400
     37 CAC        15.9170   -2.3790   16.0500 c3        1 0SH     -0.081400
     38 CAD        15.3770   -3.6500   16.6710 c3        1 0SH     -0.080400
     39 CAE        15.4660   -3.5910   18.1810 c3        1 0SH     -0.079400
     40 CAF        14.9260   -4.8590   18.8080 c3        1 0SH     -0.079400
     41 CAG        15.0150   -4.8020   20.3180 c3        1 0SH     -0.079400
     42 CAH        14.4760   -6.0690   20.9460 c3        1 0SH     -0.079400
     43 CAI        14.5650   -6.0130   22.4560 c3        1 0SH     -0.079400
     44 CAJ        14.0260   -7.2800   23.0850 c3        1 0SH     -0.079400
     45 CAK        14.1150   -7.2250   24.5950 c3        1 0SH     -0.079400
     46 CAL        13.5760   -8.4920   25.2240 c3        1 0SH     -0.079400
     47 CAM        13.6660   -8.4360   26.7340 c3        1 0SH     -0.079400
     48 CAN        13.1270   -9.7030   27.3630 c3        1 0SH     -0.079400
     49 CAO        13.2160   -9.6490   28.8730 c3        1 0SH     -0.080400
     50 CAP        12.6810  -10.9080   29.5040 c3        1 0SH     -0.093100
     51 H1         -0.0800    0.9990    0.2990 hc        1 0SH      0.033367
     52 H2         -0.1350   -0.1180   -1.1260 hc        1 0SH      0.033367
     53 H3         -0.2880   -0.7810    0.5530 hc        1 0SH      0.033367
     54 H4          2.2120    0.5910   -0.6620 hc        1 0SH      0.038700
     55 H5          2.0040   -1.1840   -0.4090 hc        1 0SH      0.038700
     56 H6          1.9480    0.9750    1.8120 hc        1 0SH      0.039700
     57 H7          1.7410   -0.8000    2.0650 hc        1 0SH      0.039700
     58 H8          4.2250    0.5660    0.8140 hc        1 0SH      0.039700
     59 H9          4.0170   -1.2090    1.0680 hc        1 0SH      0.039700
     60 H10         3.9640    0.9500    3.2900 hc        1 0SH      0.040200
     61 H11         3.7560   -0.8250    3.5430 hc        1 0SH      0.040200
     62 H12         6.2400    0.5410    2.2920 hc        1 0SH      0.040200
     63 H13         6.0320   -1.2340    2.5460 hc        1 0SH      0.040200
     64 H14         5.9790    0.9250    4.7680 hc        1 0SH      0.040200
     65 H15         5.7700   -0.8500    5.0210 hc        1 0SH      0.040200
     66 H16         8.2550    0.5160    3.7700 hc        1 0SH      0.040700
     67 H17         8.0460   -1.2600    4.0230 hc        1 0SH      0.040700
     68 H18         7.7840   -0.8750    6.4990 hc        1 0SH      0.040700
     69 H19         7.9930    0.9000    6.2460 hc        1 0SH      0.040700
     70 H20        10.2690    0.4900    5.2480 hc        1 0SH      0.042200
     71 H21        10.0600   -1.2850    5.5010 hc        1 0SH      0.042200
     72 H22        10.0080    0.8740    7.7230 hc        1 0SH      0.042200
     73 H23         9.7970   -0.9010    7.9770 hc        1 0SH      0.042200
     74 H24        12.2840    0.4640    6.7270 hc        1 0SH      0.045700
     75 H25        12.0740   -1.3120    6.9760 hc        1 0SH      0.045700
     76 H26        12.0200    0.8460    9.2010 hc        1 0SH      0.043700
     77 H28        14.1000   -1.3180    8.4140 hc        1 0SH      0.070200
     78 H30        13.8650    0.6490   10.8070 h1        1 0SH      0.076700
     79 H31        13.2770   -1.8290   10.6680 ho        1 0SH      0.448000
     80 H32        16.3510   -0.9470    9.7650 h1        1 0SH      0.056700
     81 H33        17.0430    1.0740    9.2400 ho        1 0SH      0.437000
     82 H34        15.7160    0.7250   12.3150 hx        1 0SH      0.124700
     83 H35        17.6200    1.8470   11.3390 h1        1 0SH      0.094200
     84 H36        18.2460    0.8210   12.7280 h1        1 0SH      0.094200
     85 H37        20.1720    0.0510   12.2090 h2        1 0SH      0.091700
     86 H38        18.2010   -2.2140   10.0030 h1        1 0SH      0.042700
     87 H39        18.0010   -4.5210   10.6210 h1        1 0SH      0.086200
     88 H40        19.6660   -4.5650   11.4020 h1        1 0SH      0.086200
     89 H41        18.7790   -3.5520   13.1340 ho        1 0SH      0.429000
     90 H42        19.9280   -3.4310    8.7120 h1        1 0SH      0.073700
     91 H43        22.0880   -3.3430    9.6140 ho        1 0SH      0.442000
     92 H44        19.7340   -0.9560    8.4200 h1        1 0SH      0.068700
     93 H45        21.9690   -0.6660    7.8560 ho        1 0SH      0.438000
     94 H46        21.8690   -0.7690   10.6800 h1        1 0SH      0.087700
     95 H47        21.4910    1.4230   10.2780 ho        1 0SH      0.419000
     96 H48        17.4350   -1.6860   12.2270 hn        1 0SH      0.484300
     97 H49        14.7630   -2.6120   14.2210 hc        1 0SH      0.107200
     98 H50        16.4370   -3.3250   14.1580 hc        1 0SH      0.107200
     99 H51        16.9830   -2.2240   16.3620 hc        1 0SH      0.066700
    100 H52        15.3320   -1.4940   16.4190 hc        1 0SH      0.066700
    101 H53        14.3080   -3.7980   16.3630 hc        1 0SH      0.047200
    102 H54        15.9580   -4.5330   16.2940 hc        1 0SH      0.047200
    103 H55        16.5340   -3.4430   18.4910 hc        1 0SH      0.046700
    104 H56        14.8860   -2.7080   18.5590 hc        1 0SH      0.046700
    105 H57        13.8580   -5.0070   18.5000 hc        1 0SH      0.042200
    106 H58        15.5050   -5.7430   18.4300 hc        1 0SH      0.042200
    107 H59        16.0840   -4.6540   20.6270 hc        1 0SH      0.042200
    108 H60        14.4360   -3.9190   20.6970 hc        1 0SH      0.042200
    109 H61        15.0550   -6.9530   20.5680 hc        1 0SH      0.040700
    110 H62        13.4070   -6.2170   20.6380 hc        1 0SH      0.040700
    111 H63        15.6330   -5.8650   22.7650 hc        1 0SH      0.041200
    112 H64        13.9860   -5.1300   22.8350 hc        1 0SH      0.041200
    113 H65        12.9570   -7.4280   22.7770 hc        1 0SH      0.040200
    114 H66        14.6040   -8.1640   22.7060 hc        1 0SH      0.040200
    115 H67        15.1840   -7.0770   24.9030 hc        1 0SH      0.040200
    116 H68        13.5370   -6.3410   24.9740 hc        1 0SH      0.040200
    117 H69        12.5080   -8.6390   24.9160 hc        1 0SH      0.039700
    118 H70        14.1550   -9.3750   24.8450 hc        1 0SH      0.039700
    119 H71        14.7340   -8.2880   27.0420 hc        1 0SH      0.039700
    120 H72        13.0870   -7.5530   27.1130 hc        1 0SH      0.039700
    121 H73        12.0580   -9.8510   27.0550 hc        1 0SH      0.039700
    122 H74        13.7050  -10.5870   26.9840 hc        1 0SH      0.039700
    123 H75        12.6380   -8.7640   29.2500 hc        1 0SH      0.038700
    124 H76        14.2850   -9.4990   29.1790 hc        1 0SH      0.038700
    125 H77        11.6080  -11.0620   29.2310 hc        1 0SH      0.033367
    126 H78        13.2600  -11.7990   29.1600 hc        1 0SH      0.033367
    127 H79        12.7560  -10.8470   30.6160 hc        1 0SH      0.033367
    128 H27        11.8060   -0.9290    9.4520 hc        1 0SH      0.043700
    129 H29        14.2930    0.4770    8.2380 hc        1 0SH      0.070200
    130 H221       15.7870   -1.8810   12.0310 hn        1 0SH      0.484300
@<TRIPOS>BOND
     1    1    2 1   
     2    1   51 1   
     3    1   52 1   
     4    1   53 1   
     5    2    3 1   
     6    2   54 1   
     7    2   55 1   
     8    3    4 1   
     9    3   56 1   
    10    3   57 1   
    11    4    5 1   
    12    4   58 1   
    13    4   59 1   
    14    5    6 1   
    15    5   60 1   
    16    5   61 1   
    17    6    7 1   
    18    6   62 1   
    19    6   63 1   
    20    7    8 1   
    21    7   64 1   
    22    7   65 1   
    23    8    9 1   
    24    8   66 1   
    25    8   67 1   
    26    9   10 1   
    27    9   68 1   
    28    9   69 1   
    29   10   11 1   
    30   10   70 1   
    31   10   71 1   
    32   11   12 1   
    33   11   72 1   
    34   11   73 1   
    35   12   13 1   
    36   12   74 1   
    37   12   75 1   
    38   13   14 1   
    39   13   76 1   
    40   13  128 1   
    41   14   15 1   
    42   14   77 1   
    43   14  129 1   
    44   15   16 1   
    45   15   17 1   
    46   15   78 1   
    47   16   79 1   
    48   17   18 1   
    49   17   19 1   
    50   17   80 1   
    51   18   81 1   
    52   19   20 1   
    53   19   33 1   
    54   19   82 1   
    55   20   21 1   
    56   20   83 1   
    57   20   84 1   
    58   21   22 1   
    59   22   23 1   
    60   22   31 1   
    61   22   85 1   
    62   23   24 1   
    63   24   25 1   
    64   24   27 1   
    65   24   86 1   
    66   25   26 1   
    67   25   87 1   
    68   25   88 1   
    69   26   89 1   
    70   27   28 1   
    71   27   29 1   
    72   27   90 1   
    73   28   91 1   
    74   29   30 1   
    75   29   31 1   
    76   29   92 1   
    77   30   93 1   
    78   31   32 1   
    79   31   94 1   
    80   32   95 1   
    81   33   34 1   
    82   33   96 1   
    83   33  130 1   
    84   34   35 2   
    85   34   36 1   
    86   36   37 1   
    87   36   97 1   
    88   36   98 1   
    89   37   38 1   
    90   37   99 1   
    91   37  100 1   
    92   38   39 1   
    93   38  101 1   
    94   38  102 1   
    95   39   40 1   
    96   39  103 1   
    97   39  104 1   
    98   40   41 1   
    99   40  105 1   
   100   40  106 1   
   101   41   42 1   
   102   41  107 1   
   103   41  108 1   
   104   42   43 1   
   105   42  109 1   
   106   42  110 1   
   107   43   44 1   
   108   43  111 1   
   109   43  112 1   
   110   44   45 1   
   111   44  113 1   
   112   44  114 1   
   113   45   46 1   
   114   45  115 1   
   115   45  116 1   
   116   46   47 1   
   117   46  117 1   
   118   46  118 1   
   119   47   48 1   
   120   47  119 1   
   121   47  120 1   
   122   48   49 1   
   123   48  121 1   
   124   48  122 1   
   125   49   50 1   
   126   49  123 1   
   127   49  124 1   
   128   50  125 1   
   129   50  126 1   
   130   50  127 1   
@<TRIPOS>SUBSTRUCTURE
     1 0SH         1 TEMP              0 ****  ****    0 ROOT
