@<TRIPOS>MOLECULE
0SJ
   40    43     1     0     0
SMALL
bcc


@<TRIPOS>ATOM
      1 OAB         0.1790    0.6390    0.2950 o         1 0SJ     -0.651500
      2 CAU         1.4050    0.4040    0.2520 c         1 0SJ      0.683700
      3 CAL         2.2770    0.3610    1.4220 cc        1 0SJ     -0.261200
      4 CAF         3.6060    0.1110    1.2940 cd        1 0SJ     -0.031000
      5 CAG         4.1660   -0.1240    0.0060 cd        1 0SJ     -0.250000
      6 CAT         3.3590   -0.0980   -1.1130 cc        1 0SJ      0.075400
      7 NAY         2.0020    0.1640   -1.0140 n         1 0SJ     -0.334000
      8 CAP         1.1470    0.2970   -2.1810 c3        1 0SJ      0.086000
      9 CAV         1.7730   -0.1110   -3.5150 c3        1 0SJ     -0.096700
     10 CAN         1.6880   -1.6280   -3.7560 c3        1 0SJ      0.093000
     11 CAM         3.2220    0.3390   -3.5650 c3        1 0SJ     -0.079400
     12 CAW         3.9630   -0.4000   -2.4620 c3        1 0SJ     -0.054500
     13 CAO         3.8990   -1.9160   -2.7360 c3        1 0SJ      0.090000
     14 NAX         2.5550   -2.4190   -2.9180 n         1 0SJ     -0.468800
     15 CAQ         2.0840   -3.4430   -2.0990 c         1 0SJ      0.675700
     16 OAA         2.8390   -3.9800   -1.2650 o         1 0SJ     -0.585100
     17 CAR         0.6840   -3.9270   -2.2780 ca        1 0SJ     -0.135600
     18 CAH         0.2710   -4.4920   -3.4890 ca        1 0SJ     -0.087000
     19 CAJ        -1.0200   -5.0000   -3.6180 ca        1 0SJ     -0.130000
     20 CAS        -1.8980   -4.9360   -2.5300 ca        1 0SJ      0.031400
     21 Cl1        -3.4740   -5.5490   -2.6870 cl        1 0SJ     -0.085400
     22 CAK        -1.4890   -4.3760   -1.3160 ca        1 0SJ     -0.130000
     23 CAI        -0.1940   -3.8770   -1.1900 ca        1 0SJ     -0.087000
     24 H1          1.7850    0.5460    2.3860 ha        1 0SJ      0.163000
     25 H2          4.2700    0.0810    2.1720 ha        1 0SJ      0.140000
     26 H3          5.2370   -0.3410   -0.0910 ha        1 0SJ      0.148000
     27 H4          0.2150   -0.3120   -1.9940 h1        1 0SJ      0.070200
     28 H5          0.8320    1.3810   -2.2440 h1        1 0SJ      0.070200
     29 H6          1.1820    0.3890   -4.3300 hc        1 0SJ      0.074700
     30 H7          0.6170   -1.9530   -3.6260 h1        1 0SJ      0.056700
     31 H8          1.9820   -1.8190   -4.8300 h1        1 0SJ      0.056700
     32 H9          3.6740    0.0930   -4.5600 hc        1 0SJ      0.058200
     33 H10         3.2940    1.4460   -3.4150 hc        1 0SJ      0.058200
     34 H11         5.0450   -0.0950   -2.4490 hc        1 0SJ      0.081700
     35 H12         4.3980   -2.4660   -1.8880 h1        1 0SJ      0.071700
     36 H13         4.4760   -2.1180   -3.6850 h1        1 0SJ      0.071700
     37 H14         0.9680   -4.5420   -4.3400 ha        1 0SJ      0.152000
     38 H15        -1.3420   -5.4510   -4.5690 ha        1 0SJ      0.153500
     39 H19        -2.1810   -4.3300   -0.4610 ha        1 0SJ      0.153500
     40 H20         0.1430   -3.4500   -0.2320 ha        1 0SJ      0.152000
@<TRIPOS>BOND
     1    1    2 2   
     2    2    3 1   
     3    2    7 1   
     4    3    4 2   
     5    3   24 1   
     6    4    5 1   
     7    4   25 1   
     8    5    6 2   
     9    5   26 1   
    10    6    7 1   
    11    6   12 1   
    12    7    8 1   
    13    8    9 1   
    14    8   27 1   
    15    8   28 1   
    16    9   10 1   
    17    9   11 1   
    18    9   29 1   
    19   10   14 1   
    20   10   30 1   
    21   10   31 1   
    22   11   12 1   
    23   11   32 1   
    24   11   33 1   
    25   12   13 1   
    26   12   34 1   
    27   13   14 1   
    28   13   35 1   
    29   13   36 1   
    30   14   15 1   
    31   15   16 2   
    32   15   17 1   
    33   17   18 ar  
    34   17   23 ar  
    35   18   19 ar  
    36   18   37 1   
    37   19   20 ar  
    38   19   38 1   
    39   20   21 1   
    40   20   22 ar  
    41   22   23 ar  
    42   22   39 1   
    43   23   40 1   
@<TRIPOS>SUBSTRUCTURE
     1 0SJ         1 TEMP              0 ****  ****    0 ROOT
