@<TRIPOS>MOLECULE
0SJ
   40    43     1     0     0
SMALL
bcc


@<TRIPOS>ATOM
      1 OAB         1.3840    2.9860   -1.3950 o         1 0SJ     -0.651500
      2 CAU         2.1420    2.3610   -0.6240 c         1 0SJ      0.683700
      3 CAL         2.9440    2.9820    0.4250 cc        1 0SJ     -0.261200
      4 CAF         3.7550    2.2360    1.2180 cd        1 0SJ     -0.031000
      5 CAG         3.8250    0.8250    1.0390 cd        1 0SJ     -0.250000
      6 CAT         3.0690    0.2150    0.0600 cc        1 0SJ      0.075400
      7 NAY         2.2390    0.9520   -0.7700 n         1 0SJ     -0.334000
      8 CAP         1.5090    0.3510   -1.8730 c3        1 0SJ      0.086000
      9 CAV         1.5090   -1.1770   -1.9190 c3        1 0SJ     -0.096700
     10 CAN         0.4270   -1.7850   -1.0100 c3        1 0SJ      0.093000
     11 CAM         2.8760   -1.7060   -1.5200 c3        1 0SJ     -0.079400
     12 CAW         3.1200   -1.2860   -0.0790 c3        1 0SJ     -0.054500
     13 CAO         2.0480   -1.9320    0.8240 c3        1 0SJ      0.090000
     14 NAX         0.6910   -1.6620    0.4030 n         1 0SJ     -0.468800
     15 CAQ        -0.1980   -1.0530    1.2860 c         1 0SJ      0.675700
     16 OAA         0.1450   -0.8130    2.4600 o         1 0SJ     -0.585100
     17 CAR        -1.5850   -0.7520    0.8240 ca        1 0SJ     -0.135600
     18 CAH        -2.4430   -1.7790    0.4190 ca        1 0SJ     -0.086500
     19 CAJ        -3.7560   -1.4880    0.0550 ca        1 0SJ     -0.130000
     20 CAS        -4.2050   -0.1630    0.0920 ca        1 0SJ      0.031400
     21 CL1        -5.8030    0.1960   -0.3590 cl        1 0SJ     -0.085400
     22 CAK        -3.3510    0.8680    0.4990 ca        1 0SJ     -0.130000
     23 CAI        -2.0410    0.5690    0.8720 ca        1 0SJ     -0.086500
     24 H1          2.8420    4.0720    0.5160 ha        1 0SJ      0.163000
     25 H2          4.3660    2.6990    2.0100 ha        1 0SJ      0.140000
     26 H3          4.4710    0.2250    1.6920 ha        1 0SJ      0.148000
     27 H4          0.4470    0.7320   -1.8290 h1        1 0SJ      0.070200
     28 H5          1.9650    0.7440   -2.8300 h1        1 0SJ      0.070200
     29 H6          1.2670   -1.4820   -2.9740 hc        1 0SJ      0.074700
     30 H7         -0.5630   -1.3130   -1.2640 h1        1 0SJ      0.056700
     31 H8          0.3600   -2.8870   -1.2510 h1        1 0SJ      0.056700
     32 H9          2.9030   -2.8220   -1.6030 hc        1 0SJ      0.058200
     33 H10         3.6680   -1.2880   -2.1910 hc        1 0SJ      0.058200
     34 H11         4.1270   -1.6470    0.2660 hc        1 0SJ      0.081700
     35 H12         2.2040   -3.0490    0.7970 h1        1 0SJ      0.071700
     36 H13         2.1950   -1.5740    1.8840 h1        1 0SJ      0.071700
     37 H14        -2.0860   -2.8200    0.3950 ha        1 0SJ      0.152000
     38 H15        -4.4340   -2.2960   -0.2580 ha        1 0SJ      0.153500
     39 H19        -3.7080    1.9090    0.5310 ha        1 0SJ      0.153500
     40 H20        -1.3670    1.3710    1.2120 ha        1 0SJ      0.152000
@<TRIPOS>BOND
     1    1    2 2   
     2    2    3 1   
     3    2    7 1   
     4    3    4 2   
     5    3   24 1   
     6    4    5 1   
     7    4   25 1   
     8    5    6 2   
     9    5   26 1   
    10    6    7 1   
    11    6   12 1   
    12    7    8 1   
    13    8    9 1   
    14    8   27 1   
    15    8   28 1   
    16    9   10 1   
    17    9   11 1   
    18    9   29 1   
    19   10   14 1   
    20   10   30 1   
    21   10   31 1   
    22   11   12 1   
    23   11   32 1   
    24   11   33 1   
    25   12   13 1   
    26   12   34 1   
    27   13   14 1   
    28   13   35 1   
    29   13   36 1   
    30   14   15 1   
    31   15   16 2   
    32   15   17 1   
    33   17   18 ar  
    34   17   23 ar  
    35   18   19 ar  
    36   18   37 1   
    37   19   20 ar  
    38   19   38 1   
    39   20   21 1   
    40   20   22 ar  
    41   22   23 ar  
    42   22   39 1   
    43   23   40 1   
@<TRIPOS>SUBSTRUCTURE
     1 0SJ         1 TEMP              0 ****  ****    0 ROOT
