@<TRIPOS>MOLECULE
0SJ
   40    43     1     0     0
SMALL
bcc


@<TRIPOS>ATOM
      1 OAB         0.1790    0.6260    0.3050 o         1 0SJ     -0.651500
      2 CAU         1.4050    0.3950    0.2590 c         1 0SJ      0.683700
      3 CAL         2.2800    0.3490    1.4270 cc        1 0SJ     -0.261200
      4 CAF         3.6090    0.1020    1.2960 cd        1 0SJ     -0.031000
      5 CAG         4.1670   -0.1270    0.0060 cd        1 0SJ     -0.250000
      6 CAT         3.3580   -0.0990   -1.1110 cc        1 0SJ      0.075400
      7 NAY         2.0010    0.1600   -1.0100 n         1 0SJ     -0.334000
      8 CAP         1.1440    0.2960   -2.1740 c3        1 0SJ      0.086000
      9 CAV         1.7680   -0.1070   -3.5110 c3        1 0SJ     -0.096700
     10 CAN         1.6850   -1.6230   -3.7570 c3        1 0SJ      0.093000
     11 CAM         3.2170    0.3460   -3.5620 c3        1 0SJ     -0.079400
     12 CAW         3.9610   -0.3950   -2.4620 c3        1 0SJ     -0.054500
     13 CAO         3.8980   -1.9110   -2.7420 c3        1 0SJ      0.090000
     14 NAX         2.5550   -2.4160   -2.9230 n         1 0SJ     -0.468800
     15 CAQ         2.0860   -3.4420   -2.1050 c         1 0SJ      0.675700
     16 OAA         2.8430   -3.9800   -1.2740 o         1 0SJ     -0.585100
     17 CAR         0.6860   -3.9270   -2.2830 ca        1 0SJ     -0.135600
     18 CAH         0.2730   -4.4910   -3.4930 ca        1 0SJ     -0.086500
     19 CAJ        -1.0180   -5.0000   -3.6210 ca        1 0SJ     -0.130000
     20 CAS        -1.8950   -4.9370   -2.5320 ca        1 0SJ      0.031400
     21 CL1        -3.4720   -5.5500   -2.6880 cl        1 0SJ     -0.085400
     22 CAK        -1.4850   -4.3760   -1.3180 ca        1 0SJ     -0.130000
     23 CAI        -0.1900   -3.8770   -1.1940 ca        1 0SJ     -0.086500
     24 H1          1.7880    0.5290    2.3920 ha        1 0SJ      0.163000
     25 H2          4.2740    0.0700    2.1730 ha        1 0SJ      0.140000
     26 H3          5.2380   -0.3420   -0.0930 ha        1 0SJ      0.148000
     27 H4          0.2130   -0.3150   -1.9880 h1        1 0SJ      0.070200
     28 H5          0.8280    1.3790   -2.2330 h1        1 0SJ      0.070200
     29 H6          1.1760    0.3950   -4.3240 hc        1 0SJ      0.074700
     30 H7          0.6160   -1.9500   -3.6270 h1        1 0SJ      0.056700
     31 H8          1.9790   -1.8100   -4.8320 h1        1 0SJ      0.056700
     32 H9          3.2870    1.4520   -3.4080 hc        1 0SJ      0.058200
     33 H10         3.6670    0.1040   -4.5580 hc        1 0SJ      0.058200
     34 H11         5.0420   -0.0890   -2.4500 hc        1 0SJ      0.081700
     35 H12         4.4000   -2.4630   -1.8960 h1        1 0SJ      0.071700
     36 H13         4.4740   -2.1090   -3.6920 h1        1 0SJ      0.071700
     37 H14         0.9680   -4.5400   -4.3450 ha        1 0SJ      0.152000
     38 H15        -1.3420   -5.4500   -4.5710 ha        1 0SJ      0.153500
     39 H19        -2.1760   -4.3310   -0.4620 ha        1 0SJ      0.153500
     40 H20         0.1480   -3.4500   -0.2360 ha        1 0SJ      0.152000
@<TRIPOS>BOND
     1    1    2 2   
     2    2    3 1   
     3    2    7 1   
     4    3    4 2   
     5    3   24 1   
     6    4    5 1   
     7    4   25 1   
     8    5    6 2   
     9    5   26 1   
    10    6    7 1   
    11    6   12 1   
    12    7    8 1   
    13    8    9 1   
    14    8   27 1   
    15    8   28 1   
    16    9   10 1   
    17    9   11 1   
    18    9   29 1   
    19   10   14 1   
    20   10   30 1   
    21   10   31 1   
    22   11   12 1   
    23   11   32 1   
    24   11   33 1   
    25   12   13 1   
    26   12   34 1   
    27   13   14 1   
    28   13   35 1   
    29   13   36 1   
    30   14   15 1   
    31   15   16 2   
    32   15   17 1   
    33   17   18 ar  
    34   17   23 ar  
    35   18   19 ar  
    36   18   37 1   
    37   19   20 ar  
    38   19   38 1   
    39   20   21 1   
    40   20   22 ar  
    41   22   23 ar  
    42   22   39 1   
    43   23   40 1   
@<TRIPOS>SUBSTRUCTURE
     1 0SJ         1 TEMP              0 ****  ****    0 ROOT
