@<TRIPOS>MOLECULE
0SJ
   40    43     1     0     0
SMALL
bcc


@<TRIPOS>ATOM
      1 OAB         0.1810    0.6440    0.2900 o         1 0SJ     -0.651500
      2 CAU         1.4060    0.4080    0.2480 c         1 0SJ      0.683700
      3 CAL         2.2790    0.3660    1.4180 cc        1 0SJ     -0.261200
      4 CAF         3.6070    0.1160    1.2900 cd        1 0SJ     -0.031000
      5 CAG         4.1670   -0.1220    0.0030 cd        1 0SJ     -0.250000
      6 CAT         3.3600   -0.0980   -1.1160 cc        1 0SJ      0.075400
      7 NAY         2.0040    0.1650   -1.0180 n         1 0SJ     -0.334000
      8 CAP         1.1490    0.2970   -2.1850 c3        1 0SJ      0.086000
      9 CAV         1.7750   -0.1140   -3.5180 c3        1 0SJ     -0.096700
     10 CAN         1.6880   -1.6320   -3.7570 c3        1 0SJ      0.093000
     11 CAM         3.2250    0.3340   -3.5690 c3        1 0SJ     -0.079400
     12 CAW         3.9650   -0.4030   -2.4640 c3        1 0SJ     -0.054500
     13 CAO         3.8990   -1.9200   -2.7360 c3        1 0SJ      0.090000
     14 NAX         2.5550   -2.4220   -2.9170 n         1 0SJ     -0.468800
     15 CAQ         2.0820   -3.4430   -2.0950 c         1 0SJ      0.675700
     16 OAA         2.8360   -3.9790   -1.2600 o         1 0SJ     -0.585100
     17 CAR         0.6810   -3.9270   -2.2740 ca        1 0SJ     -0.135600
     18 CAH         0.2690   -4.4940   -3.4830 ca        1 0SJ     -0.086500
     19 CAJ        -1.0230   -5.0010   -3.6110 ca        1 0SJ     -0.130000
     20 CAS        -1.9010   -4.9330   -2.5240 ca        1 0SJ      0.031400
     21 CL1        -3.4790   -5.5440   -2.6800 cl        1 0SJ     -0.085400
     22 CAK        -1.4920   -4.3690   -1.3120 ca        1 0SJ     -0.130000
     23 CAI        -0.1960   -3.8720   -1.1860 ca        1 0SJ     -0.086500
     24 H1          1.7860    0.5530    2.3810 ha        1 0SJ      0.163000
     25 H2          4.2710    0.0860    2.1690 ha        1 0SJ      0.140000
     26 H3          5.2380   -0.3410   -0.0930 ha        1 0SJ      0.148000
     27 H4          0.2160   -0.3110   -1.9980 h1        1 0SJ      0.070200
     28 H5          0.8350    1.3810   -2.2500 h1        1 0SJ      0.070200
     29 H6          1.1850    0.3850   -4.3350 hc        1 0SJ      0.074700
     30 H7          1.9830   -1.8250   -4.8300 h1        1 0SJ      0.056700
     31 H8          0.6170   -1.9560   -3.6270 h1        1 0SJ      0.056700
     32 H9          3.6760    0.0860   -4.5630 hc        1 0SJ      0.058200
     33 H10         3.2970    1.4410   -3.4210 hc        1 0SJ      0.058200
     34 H11         5.0470   -0.1000   -2.4520 hc        1 0SJ      0.081700
     35 H12         4.4760   -2.1240   -3.6840 h1        1 0SJ      0.071700
     36 H13         4.3970   -2.4690   -1.8860 h1        1 0SJ      0.071700
     37 H14         0.9660   -4.5480   -4.3330 ha        1 0SJ      0.152000
     38 H15        -1.3450   -5.4540   -4.5610 ha        1 0SJ      0.153500
     39 H19        -2.1850   -4.3200   -0.4570 ha        1 0SJ      0.153500
     40 H20         0.1400   -3.4430   -0.2290 ha        1 0SJ      0.152000
@<TRIPOS>BOND
     1    1    2 2   
     2    2    3 1   
     3    2    7 1   
     4    3    4 2   
     5    3   24 1   
     6    4    5 1   
     7    4   25 1   
     8    5    6 2   
     9    5   26 1   
    10    6    7 1   
    11    6   12 1   
    12    7    8 1   
    13    8    9 1   
    14    8   27 1   
    15    8   28 1   
    16    9   10 1   
    17    9   11 1   
    18    9   29 1   
    19   10   14 1   
    20   10   30 1   
    21   10   31 1   
    22   11   12 1   
    23   11   32 1   
    24   11   33 1   
    25   12   13 1   
    26   12   34 1   
    27   13   14 1   
    28   13   35 1   
    29   13   36 1   
    30   14   15 1   
    31   15   16 2   
    32   15   17 1   
    33   17   18 ar  
    34   17   23 ar  
    35   18   19 ar  
    36   18   37 1   
    37   19   20 ar  
    38   19   38 1   
    39   20   21 1   
    40   20   22 ar  
    41   22   23 ar  
    42   22   39 1   
    43   23   40 1   
@<TRIPOS>SUBSTRUCTURE
     1 0SJ         1 TEMP              0 ****  ****    0 ROOT
