@<TRIPOS>MOLECULE
0SJ
   40    35     1     0     0
SMALL
bcc


@<TRIPOS>ATOM
      1 OAB        -2.4710    2.0630    1.2650 o         1 0SJ     -0.599500
      2 CAU        -1.2570    2.0630    1.2650 c1        1 0SJ      0.774900
      3 CAL        -0.5030    2.0630    2.5710 c1        1 0SJ     -0.062750
      4 CAF         0.9550    1.9640    2.5670 c1        1 0SJ     -0.062750
      5 CAG         1.6770    1.8900    1.2920 c1        1 0SJ     -0.203500
      6 CAT         0.9020    1.9560   -0.0260 c1        1 0SJ      0.102900
      7 NAY        -0.5180    2.1120   -0.0140 n2        1 0SJ     -0.569600
      8 CAP        -1.0700    2.5770   -1.3440 c3        1 0SJ      0.171800
      9 CAV        -0.6050    1.7800   -2.4870 c3        1 0SJ     -0.096700
     10 CAN        -1.2260    0.3720   -2.3950 c3        1 0SJ      0.026300
     11 CAM         0.9300    1.6390   -2.5240 c3        1 0SJ     -0.079400
     12 CAW         1.4230    1.1450   -1.3030 c3        1 0SJ     -0.086600
     13 CAO         0.9790   -0.3320   -1.1610 c3        1 0SJ      0.039300
     14 NAX        -0.5200   -0.4240   -1.3120 n3        1 0SJ     -0.287400
     15 CAQ        -1.2700   -1.2560   -0.4400 c1        1 0SJ      0.581500
     16 OAA        -2.4760   -1.3280   -0.5620 o         1 0SJ     -0.579500
     17 CAR        -0.5540   -2.1710    0.5300 c1        1 0SJ     -0.080000
     18 CAH        -0.8450   -2.1070    1.8830 c1        1 0SJ     -0.062750
     19 CAJ        -0.2750   -3.0190    2.7580 c1        1 0SJ     -0.062750
     20 CAS         0.5860   -3.9930    2.2800 c1        1 0SJ     -0.080000
     21 CL1         1.2840   -5.1540    3.3770 cl        1 0SJ     -0.007000
     22 CAK         0.8780   -4.0570    0.9270 c1        1 0SJ     -0.058000
     23 CAI         0.3080   -3.1460    0.0520 c1        1 0SJ     -0.058000
     24 H1         -0.9890    2.1130    3.4160 ha        1 0SJ      0.096500
     25 H2          1.4490    1.9640    3.4100 ha        1 0SJ      0.096500
     26 H3          2.6500    1.8240    1.2830 ha        1 0SJ      0.088500
     27 H4         -2.0450    2.5320   -1.3100 h1        1 0SJ      0.075200
     28 H5         -0.8050    3.5060   -1.4840 h1        1 0SJ      0.075200
     29 H6         -0.9050    2.2060   -3.3130 hc        1 0SJ      0.075700
     30 H7         -1.1260   -0.0840   -3.2520 h1        1 0SJ      0.069700
     31 H8         -2.1750    0.4490   -2.1760 h1        1 0SJ      0.069700
     32 H9          1.1770    1.0250   -3.2410 hc        1 0SJ      0.058700
     33 H10         1.3270    2.5130   -2.6990 hc        1 0SJ      0.058700
     34 H11         2.3980    1.1800   -1.3210 hc        1 0SJ      0.080700
     35 H12         1.2390   -0.6670   -0.2820 h1        1 0SJ      0.059700
     36 H13         1.4090   -0.8690   -1.8540 h1        1 0SJ      0.059700
     37 H14        -1.4520   -1.4210    2.2210 ha        1 0SJ      0.096500
     38 H15        -0.4800   -2.9740    3.7120 ha        1 0SJ      0.096500
     39 H19         1.4840   -4.7430    0.5900 ha        1 0SJ      0.090500
     40 H20         0.5130   -3.1910   -0.9010 ha        1 0SJ      0.090500
@<TRIPOS>BOND
     1    1    2 2   
     2    2    7 2   
     3    3    4 3   
     4    3   24 1   
     5    4   25 1   
     6    5    6 3   
     7    5   26 1   
     8    6   12 1   
     9    7    8 1   
    10    8    9 1   
    11    8   27 1   
    12    8   28 1   
    13    9   10 1   
    14    9   11 1   
    15    9   29 1   
    16   10   14 1   
    17   10   30 1   
    18   10   31 1   
    19   11   12 1   
    20   11   32 1   
    21   11   33 1   
    22   12   13 1   
    23   12   34 1   
    24   13   14 1   
    25   13   35 1   
    26   13   36 1   
    27   14   15 2   
    28   15   16 2   
    29   17   23 3   
    30   18   19 3   
    31   18   37 1   
    32   19   38 1   
    33   20   22 3   
    34   22   39 1   
    35   23   40 1   
@<TRIPOS>SUBSTRUCTURE
     1 0SJ         1 TEMP              0 ****  ****    0 ROOT
