@<TRIPOS>MOLECULE
0SK
   46    49     1     0     0
SMALL
bcc


@<TRIPOS>ATOM
      1 NBE        -0.1630   -0.3080   -0.2390 nh        1 0SK     -0.441100
      2 OAE         1.1210   -0.6400   -0.0580 oh        1 0SK     -0.411300
      3 CAX        -0.8640   -0.0850    1.0010 ca        1 0SK      0.052600
      4 CBB        -2.2810    0.0310    0.9730 ca        1 0SK      0.000900
      5 SAV        -3.0460   -0.2210   -0.5140 ss        1 0SK     -0.108100
      6 CAJ        -0.1800    0.1140    2.2100 ca        1 0SK     -0.070000
      7 CAW        -0.8850    0.4340    3.3690 ca        1 0SK     -0.163300
      8 CBG        -0.1220    0.6360    4.6740 c3        1 0SK      0.690200
      9 FAG         0.0840   -0.5210    5.3860 f         1 0SK     -0.232967
     10 FAH         1.1380    1.1620    4.5180 f         1 0SK     -0.232967
     11 FAF        -0.7320    1.4800    5.5690 f         1 0SK     -0.232967
     12 CAK        -2.2710    0.5510    3.3500 ca        1 0SK     -0.028000
     13 CBA        -2.9660    0.3460    2.1520 ca        1 0SK     -0.164600
     14 CAZ        -4.4530    0.4790    2.1900 c         1 0SK      0.715100
     15 OAD        -5.0190    0.9270    3.1990 o         1 0SK     -0.511100
     16 NAR        -5.2420    0.0880    1.0930 nc        1 0SK     -0.708100
     17 CAY        -4.7540   -0.2690   -0.0640 cd        1 0SK      0.685100
     18 NBF        -5.5510   -0.8200   -1.0900 nh        1 0SK     -0.678600
     19 CAM        -6.9820   -0.9830   -0.8630 c3        1 0SK      0.181800
     20 CAO        -7.8250    0.2430   -1.2020 c3        1 0SK     -0.121900
     21 CAL        -5.2650   -0.3680   -2.4470 c3        1 0SK      0.181800
     22 CAN        -6.0250    0.8860   -2.8720 c3        1 0SK     -0.121900
     23 CBH        -7.5290    0.7250   -2.6230 c3        1 0SK      0.347600
     24 OAT        -8.1950    1.9700   -2.8370 os        1 0SK     -0.431600
     25 OAS        -8.0950   -0.1910   -3.5670 os        1 0SK     -0.441600
     26 CAP        -8.8250    0.5130   -4.5730 c3        1 0SK      0.108400
     27 CBD        -8.8930    1.9660   -4.0930 c3        1 0SK      0.118100
     28 CAA        -8.2460    2.9430   -5.0480 c3        1 0SK     -0.112100
     29 H1         -0.6060   -1.0990   -0.7180 hn        1 0SK      0.393800
     30 H2          1.6220    0.1750   -0.2590 ho        1 0SK      0.432000
     31 H3          0.9190    0.0120    2.2470 ha        1 0SK      0.168000
     32 H4         -2.8330    0.8110    4.2660 ha        1 0SK      0.184000
     33 H5         -7.1760   -1.2860    0.2030 h1        1 0SK      0.076950
     34 H6         -7.2980   -1.8350   -1.5340 h1        1 0SK      0.076950
     35 H7         -8.9080   -0.0270   -1.1190 hc        1 0SK      0.075450
     36 H8         -7.6170    1.0840   -0.4920 hc        1 0SK      0.075450
     37 H9         -4.1590   -0.1930   -2.5820 h1        1 0SK      0.076950
     38 H10        -5.5680   -1.2190   -3.1250 h1        1 0SK      0.076950
     39 H11        -5.8440    1.0670   -3.9620 hc        1 0SK      0.075450
     40 H12        -5.6710    1.7840   -2.3040 hc        1 0SK      0.075450
     41 H13        -9.8310    0.0280   -4.6380 h1        1 0SK      0.060200
     42 H14        -8.2760    0.4040   -5.5420 h1        1 0SK      0.060200
     43 H15        -9.9450    2.2820   -3.8530 h1        1 0SK      0.075700
     44 H16        -8.8160    2.9650   -6.0070 hc        1 0SK      0.048700
     45 H17        -8.2420    3.9660   -4.6010 hc        1 0SK      0.048700
     46 H18        -7.1900    2.6470   -5.2580 hc        1 0SK      0.048700
@<TRIPOS>BOND
     1    1    2 1   
     2    1    3 1   
     3    1   29 1   
     4    2   30 1   
     5    3    4 ar  
     6    3    6 ar  
     7    4    5 1   
     8    4   13 ar  
     9    5   17 1   
    10    6    7 ar  
    11    6   31 1   
    12    7    8 1   
    13    7   12 ar  
    14    8    9 1   
    15    8   10 1   
    16    8   11 1   
    17   12   13 ar  
    18   12   32 1   
    19   13   14 1   
    20   14   15 2   
    21   14   16 1   
    22   16   17 2   
    23   17   18 1   
    24   18   19 1   
    25   18   21 1   
    26   19   20 1   
    27   19   33 1   
    28   19   34 1   
    29   20   23 1   
    30   20   35 1   
    31   20   36 1   
    32   21   22 1   
    33   21   37 1   
    34   21   38 1   
    35   22   23 1   
    36   22   39 1   
    37   22   40 1   
    38   23   24 1   
    39   23   25 1   
    40   24   27 1   
    41   25   26 1   
    42   26   27 1   
    43   26   41 1   
    44   26   42 1   
    45   27   28 1   
    46   27   43 1   
    47   28   44 1   
    48   28   45 1   
    49   28   46 1   
@<TRIPOS>SUBSTRUCTURE
     1 0SK         1 TEMP              0 ****  ****    0 ROOT
