@<TRIPOS>MOLECULE
0SK
   46    49     1     0     0
SMALL
bcc


@<TRIPOS>ATOM
      1 NBE         2.2140    2.9610   -0.5840 nh        1 0SK     -0.439100
      2 OAE         3.0860    3.8450   -0.0820 oh        1 0SK     -0.411300
      3 CAX         2.4800    1.6100   -0.1570 ca        1 0SK      0.051600
      4 CBB         1.5010    0.6090   -0.4100 ca        1 0SK      0.000900
      5 SAV         0.0440    1.1140   -1.1030 ss        1 0SK     -0.101100
      6 CAJ         3.7110    1.2440    0.4050 ca        1 0SK     -0.070000
      7 CAW         3.9770   -0.0930    0.7020 ca        1 0SK     -0.163300
      8 CBG         5.3200   -0.4670    1.3210 c3        1 0SK      0.690200
      9 FAG         5.7380   -1.7460    1.0490 f         1 0SK     -0.232967
     10 FAH         6.3680    0.3250    0.9190 f         1 0SK     -0.232967
     11 FAF         5.3450   -0.3870    2.6920 f         1 0SK     -0.232967
     12 CAK         3.0250   -1.0780    0.4590 ca        1 0SK     -0.027000
     13 CBA         1.7860   -0.7240   -0.0920 ca        1 0SK     -0.164600
     14 CAZ         0.7950   -1.8190   -0.3060 c         1 0SK      0.715100
     15 OAD         1.1180   -3.0040   -0.1250 o         1 0SK     -0.510100
     16 NAR        -0.5300   -1.5320   -0.6780 nc        1 0SK     -0.708100
     17 CAY        -0.9390   -0.3520   -1.0590 cd        1 0SK      0.685100
     18 NBF        -2.2190   -0.1310   -1.6130 nh        1 0SK     -0.681600
     19 CAM        -3.1130   -1.2680   -1.7970 c3        1 0SK      0.182300
     20 CAO        -3.9740   -1.6060   -0.5830 c3        1 0SK     -0.121400
     21 CAL        -2.9330    1.0540   -1.1530 c3        1 0SK      0.182300
     22 CAN        -3.7930    0.8360    0.0890 c3        1 0SK     -0.121400
     23 CBH        -4.7270   -0.3660   -0.0940 c3        1 0SK      0.347600
     24 OAT        -5.3720   -0.6750    1.1420 os        1 0SK     -0.432600
     25 OAS        -5.7740   -0.0480   -1.0170 os        1 0SK     -0.441600
     26 CAP        -7.0010    0.1840   -0.3210 c3        1 0SK      0.108400
     27 CBD        -6.7380   -0.2300    1.1300 c3        1 0SK      0.118100
     28 CAA        -6.9230    0.8990    2.1170 c3        1 0SK     -0.112100
     29 H1          1.2900    3.2310   -0.2350 hn        1 0SK      0.390800
     30 H2          3.6950    4.0440   -0.8210 ho        1 0SK      0.433000
     31 H3          4.4740    2.0130    0.6180 ha        1 0SK      0.168000
     32 H4          3.2320   -2.1390    0.6890 ha        1 0SK      0.184000
     33 H5         -3.7930   -0.9790   -2.6510 h1        1 0SK      0.076950
     34 H6         -2.5290   -2.1780   -2.1050 h1        1 0SK      0.076950
     35 H7         -4.7100   -2.3990   -0.8690 hc        1 0SK      0.074450
     36 H8         -3.3470   -1.9950    0.2600 hc        1 0SK      0.074450
     37 H9         -2.2090    1.8960   -0.9580 h1        1 0SK      0.076950
     38 H10        -3.6050    1.3600   -2.0070 h1        1 0SK      0.076950
     39 H11        -3.1580    0.6490    0.9920 hc        1 0SK      0.074450
     40 H12        -4.4030    1.7560    0.2740 hc        1 0SK      0.074450
     41 H13        -7.2560    1.2690   -0.4200 h1        1 0SK      0.060200
     42 H14        -7.7770   -0.4470   -0.8210 h1        1 0SK      0.060200
     43 H15        -7.3480   -1.1250    1.4300 h1        1 0SK      0.075700
     44 H16        -6.2890    1.7750    1.8370 hc        1 0SK      0.048700
     45 H17        -7.9930    1.2140    2.1320 hc        1 0SK      0.048700
     46 H18        -6.6260    0.5620    3.1400 hc        1 0SK      0.048700
@<TRIPOS>BOND
     1    1    2 1   
     2    1    3 1   
     3    1   29 1   
     4    2   30 1   
     5    3    4 ar  
     6    3    6 ar  
     7    4    5 1   
     8    4   13 ar  
     9    5   17 1   
    10    6    7 ar  
    11    6   31 1   
    12    7    8 1   
    13    7   12 ar  
    14    8    9 1   
    15    8   10 1   
    16    8   11 1   
    17   12   13 ar  
    18   12   32 1   
    19   13   14 1   
    20   14   15 2   
    21   14   16 1   
    22   16   17 2   
    23   17   18 1   
    24   18   19 1   
    25   18   21 1   
    26   19   20 1   
    27   19   33 1   
    28   19   34 1   
    29   20   23 1   
    30   20   35 1   
    31   20   36 1   
    32   21   22 1   
    33   21   37 1   
    34   21   38 1   
    35   22   23 1   
    36   22   39 1   
    37   22   40 1   
    38   23   24 1   
    39   23   25 1   
    40   24   27 1   
    41   25   26 1   
    42   26   27 1   
    43   26   41 1   
    44   26   42 1   
    45   27   28 1   
    46   27   43 1   
    47   28   44 1   
    48   28   45 1   
    49   28   46 1   
@<TRIPOS>SUBSTRUCTURE
     1 0SK         1 TEMP              0 ****  ****    0 ROOT
