@<TRIPOS>MOLECULE
0SK
   47    50     1     0     0
SMALL
bcc


@<TRIPOS>ATOM
      1 NBE        -0.0810   -0.1690   -0.1370 n4        1 0SK     -0.405900
      2 OAE         1.0090   -0.9380    0.1280 oh        1 0SK     -0.352300
      3 CAX        -0.8200    0.0700    1.1230 ca        1 0SK     -0.070400
      4 CBB        -2.2280    0.2160    1.0520 ca        1 0SK      0.067900
      5 SAV        -2.9680    0.1720   -0.4650 ss        1 0SK     -0.278100
      6 CAJ        -0.1310    0.1250    2.3410 ca        1 0SK      0.011000
      7 CAW        -0.8580    0.3330    3.5130 ca        1 0SK     -0.176300
      8 CBG        -0.1140    0.3920    4.8520 c3        1 0SK      0.696200
      9 FAG         0.0600   -0.8390    5.4300 f         1 0SK     -0.213633
     10 FAH         1.1500    0.9160    4.7510 f         1 0SK     -0.213633
     11 FAF        -0.7430    1.1520    5.8030 f         1 0SK     -0.213633
     12 CAK        -2.2460    0.4670    3.4760 ca        1 0SK      0.043000
     13 CBA        -2.9250    0.4060    2.2510 ca        1 0SK     -0.168600
     14 CAZ        -4.4180    0.5530    2.2810 c         1 0SK      0.725100
     15 OAD        -4.9780    0.9630    3.3030 o         1 0SK     -0.456100
     16 NAR        -5.1850    0.2020    1.1590 nc        1 0SK     -0.686100
     17 CAY        -4.7280   -0.0500   -0.0250 cd        1 0SK      0.790100
     18 NBF        -5.4460   -0.5860   -1.0870 nh        1 0SK     -0.674600
     19 CAM        -6.8720   -0.8690   -0.9140 c3        1 0SK      0.185300
     20 CAO        -7.7890    0.2860   -1.2960 c3        1 0SK     -0.124900
     21 CAL        -5.1360   -0.1060   -2.4320 c3        1 0SK      0.185300
     22 CAN        -5.9780    1.0840   -2.8820 c3        1 0SK     -0.124900
     23 CBH        -7.4740    0.7830   -2.7110 c3        1 0SK      0.351600
     24 OAT        -8.2280    1.9620   -2.9710 os        1 0SK     -0.430600
     25 OAS        -7.8820   -0.1930   -3.6700 os        1 0SK     -0.447600
     26 CAP        -8.8240    0.3620   -4.5940 c3        1 0SK      0.108400
     27 CBD        -9.0270    1.8150   -4.1600 c3        1 0SK      0.120100
     28 CAA        -8.5790    2.8210   -5.1960 c3        1 0SK     -0.112100
     29 H1         -0.7270   -0.6450   -0.8080 hn        1 0SK      0.475300
     30 H2          1.3990   -1.2320   -0.7270 ho        1 0SK      0.471000
     31 H3          0.9680    0.0020    2.3890 ha        1 0SK      0.192000
     32 H4         -2.8240    0.6330    4.4100 ha        1 0SK      0.213000
     33 H5         -7.0830   -1.7440   -1.5980 h1        1 0SK      0.082700
     34 H6         -7.0830   -1.1880    0.1440 h1        1 0SK      0.082700
     35 H7         -7.6830    1.1450   -0.5840 hc        1 0SK      0.081950
     36 H8         -8.8500   -0.0710   -1.2550 hc        1 0SK      0.081950
     37 H9         -4.0420    0.1580   -2.5170 h1        1 0SK      0.082700
     38 H10        -5.3410   -0.9770   -3.1220 h1        1 0SK      0.082700
     39 H11        -5.7630    1.2880   -3.9620 hc        1 0SK      0.081950
     40 H12        -5.7360    2.0050   -2.2950 hc        1 0SK      0.081950
     41 H13        -9.7590   -0.2480   -4.5150 h1        1 0SK      0.068700
     42 H14        -8.3800    0.2700   -5.6170 h1        1 0SK      0.068700
     43 H15       -10.0850    2.0160   -3.8400 h1        1 0SK      0.083700
     44 H16        -8.6520    3.8540   -4.7790 hc        1 0SK      0.053033
     45 H17        -7.5200    2.6340   -5.4960 hc        1 0SK      0.053033
     46 H18        -9.2330    2.7450   -6.0970 hc        1 0SK      0.053033
     47 HBE2        0.2220    0.7500   -0.5170 hn        1 0SK      0.475300
@<TRIPOS>BOND
     1    1    2 1   
     2    1    3 1   
     3    1   29 1   
     4    1   47 1   
     5    2   30 1   
     6    3    4 ar  
     7    3    6 ar  
     8    4    5 1   
     9    4   13 ar  
    10    5   17 1   
    11    6    7 ar  
    12    6   31 1   
    13    7    8 1   
    14    7   12 ar  
    15    8    9 1   
    16    8   10 1   
    17    8   11 1   
    18   12   13 ar  
    19   12   32 1   
    20   13   14 1   
    21   14   15 2   
    22   14   16 1   
    23   16   17 2   
    24   17   18 1   
    25   18   19 1   
    26   18   21 1   
    27   19   20 1   
    28   19   33 1   
    29   19   34 1   
    30   20   23 1   
    31   20   35 1   
    32   20   36 1   
    33   21   22 1   
    34   21   37 1   
    35   21   38 1   
    36   22   23 1   
    37   22   39 1   
    38   22   40 1   
    39   23   24 1   
    40   23   25 1   
    41   24   27 1   
    42   25   26 1   
    43   26   27 1   
    44   26   41 1   
    45   26   42 1   
    46   27   28 1   
    47   27   43 1   
    48   28   44 1   
    49   28   45 1   
    50   28   46 1   
@<TRIPOS>SUBSTRUCTURE
     1 0SK         1 TEMP              0 ****  ****    0 ROOT
