@<TRIPOS>MOLECULE
0SK
   46    41     1     0     0
SMALL
bcc


@<TRIPOS>ATOM
      1 NBE         2.5840    2.5060    3.0540 n3        1 0SK     -0.101000
      2 OAE         2.4730    3.6440    3.8310 oh        1 0SK     -0.263000
      3 CAX         2.3940    1.2260    3.6420 c1        1 0SK     -0.032000
      4 CBB         1.8180    0.1820    2.8880 c1        1 0SK     -0.183500
      5 SAV         1.1780    0.4820    1.3910 s         1 0SK      0.333000
      6 CAJ         2.8690    0.9760    4.9210 c1        1 0SK     -0.071000
      7 CAW         2.7760   -0.3030    5.4600 c1        1 0SK     -0.157000
      8 CBG         3.2630   -0.5660    6.8600 c2        1 0SK      0.469000
      9 FAG         4.5700   -0.8520    6.8310 f         1 0SK     -0.162000
     10 FAH         3.0600    0.5200    7.6150 f         1 0SK     -0.162000
     11 FAF         2.5900   -1.6030    7.3780 f         1 0SK     -0.162000
     12 CAK         2.2070   -1.3330    4.7160 c1        1 0SK     -0.027000
     13 CBA         1.7270   -1.0830    3.4240 c1        1 0SK     -0.183500
     14 CAZ         1.1330   -2.3430    2.4970 c1        1 0SK      0.321000
     15 OAD         1.1970   -3.4850    2.9160 o         1 0SK     -0.278000
     16 NAR         0.3830   -2.0460    1.1490 n1        1 0SK     -0.299000
     17 CAY         0.4500   -0.7430    0.5630 c1        1 0SK      0.045000
     18 NBF        -0.2800   -0.4590   -0.6750 n2        1 0SK     -0.233000
     19 CAM        -1.7190   -0.7450   -0.7570 c3        1 0SK     -0.038500
     20 CAO        -2.4080    0.0540   -1.8490 c3        1 0SK     -0.176500
     21 CAL         0.3970   -0.5870   -1.9690 c3        1 0SK     -0.038500
     22 CAN        -0.2870    0.2130   -3.0640 c3        1 0SK     -0.176500
     23 CBH        -1.7300   -0.0740   -3.1480 c3        1 0SK      0.204000
     24 OAT        -1.9930    0.8690   -3.9450 os        1 0SK     -0.290000
     25 OAS        -2.1790   -1.3530   -3.8830 os        1 0SK     -0.296000
     26 CAP        -2.9670   -0.8890   -5.0340 c3        1 0SK     -0.042000
     27 CBD        -3.1730    0.3800   -4.8180 c3        1 0SK      0.007000
     28 CAA        -3.1920    1.1400   -6.1450 c3        1 0SK     -0.230000
     29 H1          2.8700    2.5710    2.1910 hn        1 0SK      0.186000
     30 H2          2.4390    4.3630    3.3040 ho        1 0SK      0.232000
     31 H3          3.3300    1.6780    5.4140 ha        1 0SK      0.168000
     32 H4          2.1430   -2.2300    5.0950 ha        1 0SK      0.185000
     33 H5         -2.1340   -0.5300    0.1010 h1        1 0SK      0.105250
     34 H6         -1.8420   -1.7000   -0.9390 h1        1 0SK      0.105250
     35 H7         -2.4200    0.9980   -1.5900 hc        1 0SK      0.112500
     36 H8         -3.3330   -0.2630   -1.9390 hc        1 0SK      0.112500
     37 H9          1.3170   -0.2730   -1.8770 h1        1 0SK      0.105250
     38 H10         0.4090   -1.5340   -2.2290 h1        1 0SK      0.105250
     39 H11        -0.1650    1.1650   -2.8840 hc        1 0SK      0.112500
     40 H12         0.1310   -0.0040   -3.9260 hc        1 0SK      0.112500
     41 H13        -3.8220   -1.3700   -5.0790 h1        1 0SK      0.100000
     42 H14        -2.4590   -1.0150   -5.8680 h1        1 0SK      0.100000
     43 H15        -4.0170    0.5070   -4.3440 h1        1 0SK      0.115000
     44 H16        -3.4220    2.0760   -5.9810 hc        1 0SK      0.088000
     45 H17        -2.3100    1.0900   -6.5620 hc        1 0SK      0.088000
     46 H18        -3.8550    0.7430   -6.7370 hc        1 0SK      0.088000
@<TRIPOS>BOND
     1    1    2 1   
     2    1    3 1   
     3    1   29 1   
     4    2   30 1   
     5    3    6 1   
     6    4   13 1   
     7    5   17 1   
     8    6   31 1   
     9    7   12 1   
    10    8    9 1   
    11    8   10 1   
    12    8   11 1   
    13   12   32 1   
    14   14   15 1   
    15   16   17 1   
    16   18   19 1   
    17   18   21 1   
    18   19   20 1   
    19   19   33 1   
    20   19   34 1   
    21   20   23 1   
    22   20   35 1   
    23   20   36 1   
    24   21   22 1   
    25   21   37 1   
    26   21   38 1   
    27   22   23 1   
    28   22   39 1   
    29   22   40 1   
    30   23   24 1   
    31   23   25 1   
    32   24   27 1   
    33   25   26 1   
    34   26   27 1   
    35   26   41 1   
    36   26   42 1   
    37   27   28 1   
    38   27   43 1   
    39   28   44 1   
    40   28   45 1   
    41   28   46 1   
@<TRIPOS>SUBSTRUCTURE
     1 0SK         1 TEMP              0 ****  ****    0 ROOT
