@<TRIPOS>MOLECULE
0SK
   46    49     1     0     0
SMALL
bcc


@<TRIPOS>ATOM
      1 NBE        -0.1650   -0.3110   -0.2330 nu        1 0SK     -0.441100
      2 OAE         1.1190   -0.6430   -0.0500 oh        1 0SK     -0.411300
      3 CAX        -0.8680   -0.0930    1.0070 ca        1 0SK      0.052600
      4 CBB        -2.2850    0.0240    0.9770 ca        1 0SK      0.000900
      5 SAV        -3.0470   -0.2220   -0.5130 ss        1 0SK     -0.108100
      6 CAJ        -0.1860    0.1020    2.2180 ca        1 0SK     -0.070000
      7 CAW        -0.8940    0.4180    3.3770 ca        1 0SK     -0.163300
      8 CBG        -0.1330    0.6160    4.6840 c3        1 0SK      0.690200
      9 FAG         0.0710   -0.5440    5.3930 f         1 0SK     -0.232967
     10 FAH         1.1270    1.1410    4.5320 f         1 0SK     -0.232967
     11 FAF        -0.7450    1.4560    5.5800 f         1 0SK     -0.232967
     12 CAK        -2.2800    0.5350    3.3550 ca        1 0SK     -0.028000
     13 CBA        -2.9730    0.3350    2.1550 ca        1 0SK     -0.164600
     14 CAZ        -4.4590    0.4680    2.1900 c         1 0SK      0.715100
     15 OAD        -5.0270    0.9120    3.2000 o         1 0SK     -0.511100
     16 NAR        -5.2460    0.0810    1.0910 nc        1 0SK     -0.708100
     17 CAY        -4.7560   -0.2720   -0.0670 cd        1 0SK      0.685100
     18 NBF        -5.5510   -0.8190   -1.0960 nh        1 0SK     -0.678600
     19 CAM        -6.9820   -0.9810   -0.8730 c3        1 0SK      0.181800
     20 CAO        -7.8240    0.2460   -1.2090 c3        1 0SK     -0.121900
     21 CAL        -5.2620   -0.3620   -2.4520 c3        1 0SK      0.181800
     22 CAN        -6.0200    0.8950   -2.8730 c3        1 0SK     -0.121900
     23 CBH        -7.5250    0.7330   -2.6280 c3        1 0SK      0.347600
     24 OAT        -8.1900    1.9800   -2.8390 os        1 0SK     -0.431600
     25 OAS        -8.0890   -0.1790   -3.5760 os        1 0SK     -0.441600
     26 CAP        -8.8170    0.5290   -4.5810 c3        1 0SK      0.108400
     27 CBD        -8.8850    1.9810   -4.0960 c3        1 0SK      0.118100
     28 CAA        -8.2350    2.9600   -5.0460 c3        1 0SK     -0.112100
     29 H1         -0.6070   -1.1000   -0.7150 hn        1 0SK      0.393800
     30 H2          1.6210    0.1730   -0.2470 ho        1 0SK      0.432000
     31 H3          0.9130    0.0000    2.2570 ha        1 0SK      0.168000
     32 H4         -2.8440    0.7920    4.2710 ha        1 0SK      0.184000
     33 H5         -7.2970   -1.8310   -1.5480 h1        1 0SK      0.076950
     34 H6         -7.1790   -1.2880    0.1910 h1        1 0SK      0.076950
     35 H7         -7.6170    1.0850   -0.4950 hc        1 0SK      0.075450
     36 H8         -8.9080   -0.0240   -1.1290 hc        1 0SK      0.075450
     37 H9         -5.5640   -1.2100   -3.1340 h1        1 0SK      0.076950
     38 H10        -4.1560   -0.1880   -2.5840 h1        1 0SK      0.076950
     39 H11        -5.6670    1.7900   -2.3010 hc        1 0SK      0.075450
     40 H12        -5.8370    1.0790   -3.9620 hc        1 0SK      0.075450
     41 H13        -9.8230    0.0450   -4.6500 h1        1 0SK      0.060200
     42 H14        -8.2650    0.4230   -5.5490 h1        1 0SK      0.060200
     43 H15        -9.9370    2.2960   -3.8580 h1        1 0SK      0.075700
     44 H16        -8.8030    2.9860   -6.0060 hc        1 0SK      0.048700
     45 H17        -8.2310    3.9820   -4.5950 hc        1 0SK      0.048700
     46 H18        -7.1780    2.6640   -5.2550 hc        1 0SK      0.048700
@<TRIPOS>BOND
     1    1    2 1   
     2    1    3 1   
     3    1   29 1   
     4    2   30 1   
     5    3    4 ar  
     6    3    6 ar  
     7    4    5 1   
     8    4   13 ar  
     9    5   17 1   
    10    6    7 ar  
    11    6   31 1   
    12    7    8 1   
    13    7   12 ar  
    14    8    9 1   
    15    8   10 1   
    16    8   11 1   
    17   12   13 ar  
    18   12   32 1   
    19   13   14 1   
    20   14   15 2   
    21   14   16 1   
    22   16   17 2   
    23   17   18 1   
    24   18   19 1   
    25   18   21 1   
    26   19   20 1   
    27   19   33 1   
    28   19   34 1   
    29   20   23 1   
    30   20   35 1   
    31   20   36 1   
    32   21   22 1   
    33   21   37 1   
    34   21   38 1   
    35   22   23 1   
    36   22   39 1   
    37   22   40 1   
    38   23   24 1   
    39   23   25 1   
    40   24   27 1   
    41   25   26 1   
    42   26   27 1   
    43   26   41 1   
    44   26   42 1   
    45   27   28 1   
    46   27   43 1   
    47   28   44 1   
    48   28   45 1   
    49   28   46 1   
@<TRIPOS>SUBSTRUCTURE
     1 0SK         1 TEMP              0 ****  ****    0 ROOT
