@<TRIPOS>MOLECULE
0SL
   38    40     1     0     0
SMALL
bcc


@<TRIPOS>ATOM
      1 CAK        -0.0020   -0.2350    0.1190 ca        1 0SL      0.002000
      2 CAS         1.4090   -0.1080    0.0140 ca        1 0SL     -0.072000
      3 CAI         2.2680   -0.3950    1.1100 ca        1 0SL     -0.100000
      4 CAF         3.6280   -0.2610    0.9820 ca        1 0SL     -0.149000
      5 CAE         4.1910    0.1660   -0.2460 ca        1 0SL     -0.121000
      6 CAH         3.3850    0.4480   -1.3200 ca        1 0SL     -0.128000
      7 CAR         1.9720    0.3170   -1.2170 ca        1 0SL      0.003000
      8 CAJ         1.1080    0.6000   -2.3080 ca        1 0SL     -0.143000
      9 CAG        -0.2510    0.4640   -2.1730 ca        1 0SL     -0.031000
     10 CAQ        -0.8280    0.0420   -0.9480 ca        1 0SL     -0.337500
     11 SAV        -2.5260   -0.1510   -0.8200 sy        1 0SL      1.493200
     12 OAB        -2.9300   -1.0220   -1.8570 o         1 0SL     -0.666300
     13 OAC        -2.7810   -0.6380    0.4940 o         1 0SL     -0.666300
     14 NAU        -3.0940    1.3340   -1.0070 n3        1 0SL     -0.820500
     15 CAO        -3.1970    1.9520   -2.3190 c3        1 0SL      0.222800
     16 CAN        -3.3800    2.1950    0.1130 c3        1 0SL      0.230800
     17 CAL        -4.6540    3.0240   -0.0520 c3        1 0SL     -0.084400
     18 CAM        -4.6370    3.7730   -1.3670 c3        1 0SL     -0.059400
     19 CAT        -4.4340    2.8210   -2.5280 c3        1 0SL     -0.193700
     20 CAP        -4.2900    3.6260   -3.8490 c         1 0SL      0.920600
     21 OAD        -3.2020    3.5430   -4.4860 o         1 0SL     -0.837800
     22 OAA        -5.2820    4.3160   -4.2090 o         1 0SL     -0.837800
     23 H1         -0.4350   -0.5680    1.0800 ha        1 0SL      0.155000
     24 H2          1.8190   -0.7240    2.0590 ha        1 0SL      0.132000
     25 H3          4.2960   -0.4800    1.8270 ha        1 0SL      0.125000
     26 H4          5.2840    0.2670   -0.3230 ha        1 0SL      0.125000
     27 H5          3.8130    0.7820   -2.2780 ha        1 0SL      0.133000
     28 H6          1.5470    0.9340   -3.2600 ha        1 0SL      0.139000
     29 H7         -0.9190    0.6870   -3.0260 ha        1 0SL      0.164000
     30 H8         -2.2860    2.5970   -2.4930 h1        1 0SL      0.061700
     31 H9         -3.2060    1.1360   -3.0980 h1        1 0SL      0.061700
     32 H10        -3.4720    1.5620    1.0440 h1        1 0SL      0.036200
     33 H11        -2.5150    2.9070    0.2570 h1        1 0SL      0.036200
     34 H12        -4.7160    3.7390    0.8080 hc        1 0SL      0.032700
     35 H13        -5.5520    2.3550   -0.0080 hc        1 0SL      0.032700
     36 H14        -3.8090    4.5300   -1.3580 hc        1 0SL      0.048200
     37 H15        -5.5990    4.3270   -1.5160 hc        1 0SL      0.048200
     38 H16        -5.3410    2.1670   -2.6300 hc        1 0SL      0.045700
@<TRIPOS>BOND
     1    1    2 ar  
     2    1   10 ar  
     3    1   23 1   
     4    2    3 ar  
     5    2    7 ar  
     6    3    4 ar  
     7    3   24 1   
     8    4    5 ar  
     9    4   25 1   
    10    5    6 ar  
    11    5   26 1   
    12    6    7 ar  
    13    6   27 1   
    14    7    8 ar  
    15    8    9 ar  
    16    8   28 1   
    17    9   10 ar  
    18    9   29 1   
    19   10   11 1   
    20   11   12 2   
    21   11   13 2   
    22   11   14 1   
    23   14   15 1   
    24   14   16 1   
    25   15   19 1   
    26   15   30 1   
    27   15   31 1   
    28   16   17 1   
    29   16   32 1   
    30   16   33 1   
    31   17   18 1   
    32   17   34 1   
    33   17   35 1   
    34   18   19 1   
    35   18   36 1   
    36   18   37 1   
    37   19   20 1   
    38   19   38 1   
    39   20   21 1   
    40   20   22 1   
@<TRIPOS>SUBSTRUCTURE
     1 0SL         1 TEMP              0 ****  ****    0 ROOT
