@<TRIPOS>MOLECULE
0SL
   38    40     1     0     0
SMALL
bcc


@<TRIPOS>ATOM
      1 CAK        -0.0050   -0.2360    0.1220 ca        1 0SL      0.002000
      2 CAS         1.4050   -0.1160    0.0110 ca        1 0SL     -0.072000
      3 CAI         2.2680   -0.4020    1.1050 ca        1 0SL     -0.100000
      4 CAF         3.6280   -0.2750    0.9720 ca        1 0SL     -0.149000
      5 CAE         4.1890    0.1430   -0.2610 ca        1 0SL     -0.121000
      6 CAH         3.3800    0.4240   -1.3330 ca        1 0SL     -0.128000
      7 CAR         1.9660    0.3010   -1.2240 ca        1 0SL      0.003000
      8 CAJ         1.1000    0.5820   -2.3130 ca        1 0SL     -0.143000
      9 CAG        -0.2590    0.4540   -2.1730 ca        1 0SL     -0.031000
     10 CAQ        -0.8340    0.0400   -0.9430 ca        1 0SL     -0.337500
     11 SAV        -2.5330   -0.1430   -0.8080 sy        1 0SL      1.493200
     12 OAB        -2.9440   -1.0170   -1.8400 o         1 0SL     -0.666300
     13 OAC        -2.7850   -0.6240    0.5090 o         1 0SL     -0.666300
     14 NAU        -3.0930    1.3430   -1.0000 n3        1 0SL     -0.820500
     15 CAO        -3.1990    1.9560   -2.3140 c3        1 0SL      0.222800
     16 CAN        -3.3710    2.2110    0.1170 c3        1 0SL      0.230800
     17 CAL        -4.6420    3.0450   -0.0480 c3        1 0SL     -0.084400
     18 CAM        -4.6260    3.7880   -1.3660 c3        1 0SL     -0.059400
     19 CAT        -4.4330    2.8290   -2.5230 c3        1 0SL     -0.193700
     20 CAP        -4.2900    3.6270   -3.8490 c         1 0SL      0.920600
     21 OAD        -3.2050    3.5370   -4.4890 o         1 0SL     -0.837800
     22 OAA        -5.2810    4.3200   -4.2080 o         1 0SL     -0.837800
     23 H1         -0.4360   -0.5620    1.0860 ha        1 0SL      0.155000
     24 H2          1.8200   -0.7250    2.0570 ha        1 0SL      0.132000
     25 H3          4.2980   -0.4940    1.8150 ha        1 0SL      0.125000
     26 H4          5.2810    0.2390   -0.3420 ha        1 0SL      0.125000
     27 H5          3.8050    0.7510   -2.2930 ha        1 0SL      0.133000
     28 H6          1.5370    0.9100   -3.2690 ha        1 0SL      0.139000
     29 H7         -0.9290    0.6760   -3.0240 ha        1 0SL      0.164000
     30 H8         -2.2850    2.5960   -2.4950 h1        1 0SL      0.061700
     31 H9         -3.2150    1.1360   -3.0900 h1        1 0SL      0.061700
     32 H10        -2.5020    2.9200    0.2540 h1        1 0SL      0.036200
     33 H11        -3.4620    1.5830    1.0510 h1        1 0SL      0.036200
     34 H12        -5.5430    2.3810    0.0030 hc        1 0SL      0.032700
     35 H13        -4.6970    3.7640    0.8090 hc        1 0SL      0.032700
     36 H14        -5.5870    4.3460   -1.5140 hc        1 0SL      0.048200
     37 H15        -3.7960    4.5410   -1.3640 hc        1 0SL      0.048200
     38 H16        -5.3430    2.1790   -2.6180 hc        1 0SL      0.045700
@<TRIPOS>BOND
     1    1    2 ar  
     2    1   10 ar  
     3    1   23 1   
     4    2    3 ar  
     5    2    7 ar  
     6    3    4 ar  
     7    3   24 1   
     8    4    5 ar  
     9    4   25 1   
    10    5    6 ar  
    11    5   26 1   
    12    6    7 ar  
    13    6   27 1   
    14    7    8 ar  
    15    8    9 ar  
    16    8   28 1   
    17    9   10 ar  
    18    9   29 1   
    19   10   11 1   
    20   11   12 2   
    21   11   13 2   
    22   11   14 1   
    23   14   15 1   
    24   14   16 1   
    25   15   19 1   
    26   15   30 1   
    27   15   31 1   
    28   16   17 1   
    29   16   32 1   
    30   16   33 1   
    31   17   18 1   
    32   17   34 1   
    33   17   35 1   
    34   18   19 1   
    35   18   36 1   
    36   18   37 1   
    37   19   20 1   
    38   19   38 1   
    39   20   21 1   
    40   20   22 1   
@<TRIPOS>SUBSTRUCTURE
     1 0SL         1 TEMP              0 ****  ****    0 ROOT
