@<TRIPOS>MOLECULE
0SL
   38    34     1     0     0
SMALL
bcc


@<TRIPOS>ATOM
      1 CAK         1.6800    0.1850    1.4690 c1        1 0SL     -0.059000
      2 CAS         3.0750    0.2880    1.4700 c1        1 0SL     -0.036000
      3 CAI         3.7700    0.5210    2.6840 c1        1 0SL     -0.124500
      4 CAF         5.1580    0.6730    2.6730 c1        1 0SL     -0.124500
      5 CAE         5.8630    0.5950    1.4640 c1        1 0SL     -0.124500
      6 CAH         5.1830    0.3670    0.2770 c1        1 0SL     -0.124500
      7 CAR         3.7710    0.2110    0.2830 c1        1 0SL     -0.036000
      8 CAJ         3.0850    0.0320   -0.9170 c1        1 0SL     -0.059000
      9 CAG         1.6950   -0.0700   -0.9180 c1        1 0SL     -0.046000
     10 CAQ         0.9970    0.0060    0.2700 c1        1 0SL     -0.830000
     11 SAV        -0.5480   -0.2480    1.1360 s4        1 0SL      2.046800
     12 OAB        -0.8000    0.7990    2.0570 o         1 0SL     -0.557900
     13 OAC        -0.4720   -1.3950    2.0250 o         1 0SL     -0.557900
     14 NAU        -1.8160   -0.4130    0.0310 n2        1 0SL     -0.826000
     15 CAO        -2.7190    0.7220   -0.2460 c3        1 0SL     -0.017000
     16 CAN        -2.4370   -1.7040   -0.1720 c3        1 0SL     -0.005000
     17 CAL        -3.0890   -1.8450   -1.5110 c3        1 0SL     -0.177000
     18 CAM        -4.0220   -0.7400   -1.8170 c3        1 0SL     -0.133000
     19 CAT        -3.3810    0.6420   -1.6520 c3        1 0SL     -0.203000
     20 CAP        -4.3850    1.7930   -1.8990 c2        1 0SL      0.343000
     21 OAD        -5.3030    2.0280   -1.0500 o         1 0SL     -0.576000
     22 OAA        -4.3740    2.4080   -2.9980 o         1 0SL     -0.576000
     23 H1          1.1760    0.3130    2.3100 ha        1 0SL      0.160500
     24 H2          3.2700    0.5770    3.5400 ha        1 0SL      0.142250
     25 H3          5.6240    0.8640    3.4870 ha        1 0SL      0.142250
     26 H4          6.8080    0.6990    1.4570 ha        1 0SL      0.142250
     27 H5          5.6860    0.3110   -0.5830 ha        1 0SL      0.142250
     28 H6          3.5880   -0.0230   -1.7710 ha        1 0SL      0.160500
     29 H7          1.2190   -0.2780   -1.7540 ha        1 0SL      0.150000
     30 H8         -3.4080    0.7370    0.4190 h1        1 0SL      0.102000
     31 H9         -2.2020    1.5610   -0.1860 h1        1 0SL      0.102000
     32 H10        -1.7430   -2.4090   -0.0790 h1        1 0SL      0.083000
     33 H11        -3.1370   -1.8410    0.5440 h1        1 0SL      0.083000
     34 H12        -2.3940   -1.8660   -2.1980 hc        1 0SL      0.070000
     35 H13        -3.5730   -2.6750   -1.5350 hc        1 0SL      0.070000
     36 H14        -4.8030   -0.8060   -1.2120 hc        1 0SL      0.087000
     37 H15        -4.3250   -0.8340   -2.7290 hc        1 0SL      0.087000
     38 H16        -2.7150    0.8120   -2.3690 hc        1 0SL      0.079000
@<TRIPOS>BOND
     1    1    2 1   
     2    1   23 1   
     3    2    7 1   
     4    3    4 1   
     5    3   24 1   
     6    4   25 1   
     7    5    6 1   
     8    5   26 1   
     9    6   27 1   
    10    7    8 1   
    11    8   28 1   
    12    9   10 1   
    13    9   29 1   
    14   10   11 1   
    15   11   12 1   
    16   11   13 1   
    17   14   15 1   
    18   14   16 1   
    19   15   19 1   
    20   15   30 1   
    21   15   31 1   
    22   16   17 1   
    23   16   32 1   
    24   16   33 1   
    25   17   18 1   
    26   17   34 1   
    27   17   35 1   
    28   18   19 1   
    29   18   36 1   
    30   18   37 1   
    31   19   20 1   
    32   19   38 1   
    33   20   21 1   
    34   20   22 1   
@<TRIPOS>SUBSTRUCTURE
     1 0SL         1 TEMP              0 ****  ****    0 ROOT
