@<TRIPOS>MOLECULE
0SL
   38    40     1     0     0
SMALL
bcc


@<TRIPOS>ATOM
      1 CAK         0.0070   -0.2290    0.1120 ca        1 0SL      0.002000
      2 CAS         1.4160   -0.0990    0.0010 ca        1 0SL     -0.072000
      3 CAI         2.2810   -0.3830    1.0940 ca        1 0SL     -0.100000
      4 CAF         3.6400   -0.2450    0.9610 ca        1 0SL     -0.149000
      5 CAE         4.1970    0.1820   -0.2700 ca        1 0SL     -0.121000
      6 CAH         3.3860    0.4620   -1.3410 ca        1 0SL     -0.128000
      7 CAR         1.9740    0.3270   -1.2320 ca        1 0SL      0.003000
      8 CAJ         1.1050    0.6070   -2.3200 ca        1 0SL     -0.143000
      9 CAG        -0.2540    0.4680   -2.1790 ca        1 0SL     -0.031000
     10 CAQ        -0.8250    0.0450   -0.9510 ca        1 0SL     -0.337500
     11 SAV        -2.5220   -0.1520   -0.8170 sy        1 0SL      1.493200
     12 OAB        -2.9270   -1.0250   -1.8510 o         1 0SL     -0.666300
     13 OAC        -2.7710   -0.6390    0.4990 o         1 0SL     -0.666300
     14 NAU        -3.0940    1.3310   -1.0030 n3        1 0SL     -0.820500
     15 CAO        -3.2050    1.9480   -2.3140 c3        1 0SL      0.222800
     16 CAN        -3.3780    2.1920    0.1180 c3        1 0SL      0.230800
     17 CAL        -4.6550    3.0170   -0.0430 c3        1 0SL     -0.084400
     18 CAM        -4.6460    3.7650   -1.3580 c3        1 0SL     -0.059400
     19 CAT        -4.4460    2.8120   -2.5190 c3        1 0SL     -0.193700
     20 CAP        -4.3100    3.6160   -3.8420 c         1 0SL      0.920600
     21 OAD        -3.2240    3.5370   -4.4830 o         1 0SL     -0.837800
     22 OAA        -5.3060    4.3020   -4.1990 o         1 0SL     -0.837800
     23 H1         -0.4220   -0.5630    1.0750 ha        1 0SL      0.155000
     24 H2          1.8360   -0.7130    2.0450 ha        1 0SL      0.132000
     25 H3          4.3120   -0.4630    1.8030 ha        1 0SL      0.125000
     26 H4          5.2890    0.2860   -0.3520 ha        1 0SL      0.125000
     27 H5          3.8090    0.7960   -2.3000 ha        1 0SL      0.133000
     28 H6          1.5380    0.9420   -3.2740 ha        1 0SL      0.139000
     29 H7         -0.9260    0.6890   -3.0290 ha        1 0SL      0.164000
     30 H8         -3.2150    1.1310   -3.0930 h1        1 0SL      0.061700
     31 H9         -2.2960    2.5950   -2.4940 h1        1 0SL      0.061700
     32 H10        -2.5140    2.9080    0.2570 h1        1 0SL      0.036200
     33 H11        -3.4640    1.5600    1.0500 h1        1 0SL      0.036200
     34 H12        -4.7160    3.7330    0.8170 hc        1 0SL      0.032700
     35 H13        -5.5510    2.3450    0.0060 hc        1 0SL      0.032700
     36 H14        -3.8210    4.5250   -1.3540 hc        1 0SL      0.048200
     37 H15        -5.6110    4.3160   -1.5040 hc        1 0SL      0.048200
     38 H16        -5.3510    2.1550   -2.6160 hc        1 0SL      0.045700
@<TRIPOS>BOND
     1    1    2 ar  
     2    1   10 ar  
     3    1   23 1   
     4    2    3 ar  
     5    2    7 ar  
     6    3    4 ar  
     7    3   24 1   
     8    4    5 ar  
     9    4   25 1   
    10    5    6 ar  
    11    5   26 1   
    12    6    7 ar  
    13    6   27 1   
    14    7    8 ar  
    15    8    9 ar  
    16    8   28 1   
    17    9   10 ar  
    18    9   29 1   
    19   10   11 1   
    20   11   12 2   
    21   11   13 2   
    22   11   14 1   
    23   14   15 1   
    24   14   16 1   
    25   15   19 1   
    26   15   30 1   
    27   15   31 1   
    28   16   17 1   
    29   16   32 1   
    30   16   33 1   
    31   17   18 1   
    32   17   34 1   
    33   17   35 1   
    34   18   19 1   
    35   18   36 1   
    36   18   37 1   
    37   19   20 1   
    38   19   38 1   
    39   20   21 1   
    40   20   22 1   
@<TRIPOS>SUBSTRUCTURE
     1 0SL         1 TEMP              0 ****  ****    0 ROOT
