@<TRIPOS>MOLECULE
0SL
   38    40     1     0     0
SMALL
bcc


@<TRIPOS>ATOM
      1 CAK         2.3120    1.0330    0.2030 ca        1 0SL      0.002000
      2 CAS         3.4510    0.3070   -0.2320 ca        1 0SL     -0.072000
      3 CAI         4.6300    0.9640   -0.6800 ca        1 0SL     -0.100000
      4 CAF         5.7170    0.2370   -1.0990 ca        1 0SL     -0.149000
      5 CAE         5.6750   -1.1790   -1.0890 ca        1 0SL     -0.121000
      6 CAH         4.5510   -1.8390   -0.6610 ca        1 0SL     -0.128000
      7 CAR         3.4100   -1.1110   -0.2210 ca        1 0SL      0.003000
      8 CAJ         2.2310   -1.7620    0.2300 ca        1 0SL     -0.143000
      9 CAG         1.1480   -1.0290    0.6470 ca        1 0SL     -0.031000
     10 CAQ         1.1750    0.3900    0.6390 ca        1 0SL     -0.337500
     11 SAV        -0.1810    1.2770    1.1970 sy        1 0SL      1.493200
     12 OAB        -0.4760    0.8180    2.5010 o         1 0SL     -0.666300
     13 OAC         0.1760    2.6540    1.1220 o         1 0SL     -0.666300
     14 NAU        -1.3320    0.9190    0.1430 n3        1 0SL     -0.820500
     15 CAO        -2.0530   -0.3420    0.1990 c3        1 0SL      0.222800
     16 CAN        -1.6060    1.7450   -1.0060 c3        1 0SL      0.230800
     17 CAL        -3.0950    1.9000   -1.3160 c3        1 0SL     -0.084400
     18 CAM        -3.7670    0.5470   -1.4030 c3        1 0SL     -0.059400
     19 CAT        -3.5390   -0.2510   -0.1360 c3        1 0SL     -0.193700
     20 CAP        -4.1250   -1.6810   -0.3020 c         1 0SL      0.920600
     21 OAD        -3.3340   -2.6640   -0.2450 o         1 0SL     -0.837800
     22 OAA        -5.3700   -1.7710   -0.4820 o         1 0SL     -0.837800
     23 H1          2.3500    2.1380    0.1930 ha        1 0SL      0.155000
     24 H2          4.6500    2.0650   -0.6830 ha        1 0SL      0.132000
     25 H3          6.6300    0.7420   -1.4460 ha        1 0SL      0.125000
     26 H4          6.5580   -1.7390   -1.4310 ha        1 0SL      0.125000
     27 H5          4.5080   -2.9380   -0.6510 ha        1 0SL      0.133000
     28 H6          2.1990   -2.8620    0.2340 ha        1 0SL      0.139000
     29 H7          0.2310   -1.5410    0.9950 ha        1 0SL      0.164000
     30 H8         -1.5770   -1.0690   -0.5230 h1        1 0SL      0.061700
     31 H9         -1.9540   -0.7630    1.2410 h1        1 0SL      0.061700
     32 H10        -1.1580    2.7670   -0.8350 h1        1 0SL      0.036200
     33 H11        -1.1060    1.2890   -1.9110 h1        1 0SL      0.036200
     34 H12        -3.5870    2.5180   -0.5210 hc        1 0SL      0.032700
     35 H13        -3.1910    2.4510   -2.2870 hc        1 0SL      0.032700
     36 H14        -4.8690    0.6650   -1.5650 hc        1 0SL      0.048200
     37 H15        -3.3570   -0.0210   -2.2800 hc        1 0SL      0.048200
     38 H16        -4.0870    0.2400    0.7110 hc        1 0SL      0.045700
@<TRIPOS>BOND
     1    1    2 ar  
     2    1   10 ar  
     3    1   23 1   
     4    2    3 ar  
     5    2    7 ar  
     6    3    4 ar  
     7    3   24 1   
     8    4    5 ar  
     9    4   25 1   
    10    5    6 ar  
    11    5   26 1   
    12    6    7 ar  
    13    6   27 1   
    14    7    8 ar  
    15    8    9 ar  
    16    8   28 1   
    17    9   10 ar  
    18    9   29 1   
    19   10   11 1   
    20   11   12 2   
    21   11   13 2   
    22   11   14 1   
    23   14   15 1   
    24   14   16 1   
    25   15   19 1   
    26   15   30 1   
    27   15   31 1   
    28   16   17 1   
    29   16   32 1   
    30   16   33 1   
    31   17   18 1   
    32   17   34 1   
    33   17   35 1   
    34   18   19 1   
    35   18   36 1   
    36   18   37 1   
    37   19   20 1   
    38   19   38 1   
    39   20   21 1   
    40   20   22 1   
@<TRIPOS>SUBSTRUCTURE
     1 0SL         1 TEMP              0 ****  ****    0 ROOT
