@<TRIPOS>MOLECULE
0SM
   93    92     1     0     0
SMALL
bcc


@<TRIPOS>ATOM
      1 C1          0.1380   -0.9720    0.3820 c3        1 0SM      0.144400
      2 C3          3.2690   -1.0150    2.6820 c3        1 0SM     -0.118100
      3 C4         -3.4840   -3.5870    2.0670 c3        1 0SM      0.194400
      4 C5         -3.2800   -3.6090    3.5950 c3        1 0SM      0.092800
      5 C6         -3.8530   -1.2200    3.8950 c3        1 0SM      0.083433
      6 C7         -2.9720   -2.5270    5.7400 c3        1 0SM      0.083433
      7 C8         -1.5110   -1.9130    3.9050 c3        1 0SM      0.083433
      8 C11         3.5320   -1.8180   -0.6130 c         1 0SM      0.656100
      9 C12         4.0630   -3.0010   -1.4040 c3        1 0SM     -0.149400
     10 C13         5.4060   -2.6820   -2.0220 c3        1 0SM     -0.073400
     11 C14         5.9240   -3.8550   -2.8260 c3        1 0SM     -0.079400
     12 C15         7.2690   -3.5410   -3.4450 c3        1 0SM     -0.078400
     13 C16         7.7900   -4.7120   -4.2500 c3        1 0SM     -0.079400
     14 C17         9.1360   -4.3970   -4.8670 c3        1 0SM     -0.079400
     15 C18         9.6580   -5.5680   -5.6720 c3        1 0SM     -0.079400
     16 C19        11.0040   -5.2540   -6.2900 c3        1 0SM     -0.079400
     17 C20        11.5260   -6.4250   -7.0940 c3        1 0SM     -0.079400
     18 C21        12.8720   -6.1110   -7.7110 c3        1 0SM     -0.079400
     19 C22        13.3950   -7.2820   -8.5160 c3        1 0SM     -0.079400
     20 C23        14.7410   -6.9680   -9.1330 c3        1 0SM     -0.079400
     21 C24        15.2630   -8.1390   -9.9370 c3        1 0SM     -0.079400
     22 C25        16.6090   -7.8260  -10.5540 c3        1 0SM     -0.079400
     23 C26        17.1320   -8.9970  -11.3580 c3        1 0SM     -0.079400
     24 C27        18.4780   -8.6840  -11.9760 c3        1 0SM     -0.080400
     25 C28        19.0030   -9.8470  -12.7770 c3        1 0SM     -0.092100
     26 N          -2.9060   -2.3120    4.2630 n4        1 0SM     -0.584800
     27 O2          1.0300   -1.8590    2.9430 oh        1 0SM     -0.639800
     28 O11         4.1280   -0.7220   -0.5700 o         1 0SM     -0.621100
     29 O1P        -2.2640   -2.7420   -1.0330 o         1 0SM     -0.820000
     30 O2P        -2.6060   -1.2010    1.0940 o         1 0SM     -0.820000
     31 O3P        -0.3840   -2.2480    0.6400 os        1 0SM     -0.581200
     32 NBQ         2.3620   -2.0220    0.0940 n         1 0SM     -0.561900
     33 O4P        -2.2700   -3.5880    1.4090 os        1 0SM     -0.561200
     34 CBV         1.6450   -0.9390    0.7210 c3        1 0SM      0.064700
     35 P          -2.0000   -2.3290    0.3430 p5        1 0SM      1.440800
     36 CBU         1.8160   -0.8910    2.2630 c3        1 0SM      0.143100
     37 H11C       -0.0230   -0.7340   -0.7050 h1        1 0SM      0.047200
     38 H12C       -0.4070   -0.2200    1.0160 h1        1 0SM      0.047200
     39 HBV         2.0630    0.0390    0.3270 h1        1 0SM      0.086700
     40 H31C        3.5980   -2.0810    2.6390 hc        1 0SM      0.045367
     41 H32C        3.9160   -0.4110    2.0010 hc        1 0SM      0.045367
     42 H33C        3.3950   -0.6540    3.7300 hc        1 0SM      0.045367
     43 HBU         1.4020    0.0990    2.6140 h1        1 0SM      0.053700
     44 H41C       -4.1270   -2.7180    1.7580 h1        1 0SM      0.056200
     45 H42C       -4.0200   -4.5570    1.8380 h1        1 0SM      0.056200
     46 H51C       -4.2420   -3.9540    4.0680 hx        1 0SM      0.080700
     47 H52C       -2.4580   -4.3440    3.8230 hx        1 0SM      0.080700
     48 H61C       -4.9030   -1.5970    3.9880 hx        1 0SM      0.099922
     49 H62C       -3.6540   -0.8810    2.8310 hx        1 0SM      0.099922
     50 H63C       -3.6940   -0.3530    4.5870 hx        1 0SM      0.099922
     51 H71C       -4.0280   -2.7530    6.0410 hx        1 0SM      0.099922
     52 H72C       -2.6240   -1.6000    6.2660 hx        1 0SM      0.099922
     53 H73C       -2.3070   -3.3850    6.0210 hx        1 0SM      0.099922
     54 H81C       -0.7980   -2.7230    4.2090 hx        1 0SM      0.099922
     55 H82C       -1.2540   -0.9560    4.4250 hx        1 0SM      0.099922
     56 H83C       -1.4420   -1.7600    2.7840 hx        1 0SM      0.099922
     57 H121        4.1570   -3.8920   -0.7280 hc        1 0SM      0.064700
     58 H122        3.3230   -3.2580   -2.2080 hc        1 0SM      0.064700
     59 HBQ         1.8410   -2.8580   -0.0520 hn        1 0SM      0.326500
     60 H131        5.3090   -1.7770   -2.6790 hc        1 0SM      0.058200
     61 H132        6.1370   -2.4160   -1.2130 hc        1 0SM      0.058200
     62 H141        5.1900   -4.1130   -3.6340 hc        1 0SM      0.038200
     63 H142        6.0160   -4.7560   -2.1640 hc        1 0SM      0.038200
     64 H151        8.0030   -3.2820   -2.6360 hc        1 0SM      0.041700
     65 H152        7.1760   -2.6390   -4.1070 hc        1 0SM      0.041700
     66 H161        7.8820   -5.6130   -3.5870 hc        1 0SM      0.038700
     67 H162        7.0560   -4.9690   -5.0580 hc        1 0SM      0.038700
     68 H171        9.0440   -3.4960   -5.5300 hc        1 0SM      0.040200
     69 H172        9.8700   -4.1390   -4.0590 hc        1 0SM      0.040200
     70 H181        8.9240   -5.8250   -6.4810 hc        1 0SM      0.039200
     71 H182        9.7490   -6.4690   -5.0100 hc        1 0SM      0.039200
     72 H191       10.9130   -4.3530   -6.9520 hc        1 0SM      0.039700
     73 H192       11.7380   -4.9960   -5.4810 hc        1 0SM      0.039700
     74 H201       10.7930   -6.6830   -7.9030 hc        1 0SM      0.039200
     75 H202       11.6170   -7.3260   -6.4320 hc        1 0SM      0.039200
     76 H211       12.7810   -5.2100   -8.3740 hc        1 0SM      0.039700
     77 H212       13.6060   -5.8530   -6.9020 hc        1 0SM      0.039700
     78 H221       12.6610   -7.5400   -9.3250 hc        1 0SM      0.039200
     79 H222       13.4850   -8.1830   -7.8530 hc        1 0SM      0.039200
     80 H231       15.4740   -6.7100   -8.3240 hc        1 0SM      0.039700
     81 H232       14.6500   -6.0680   -9.7960 hc        1 0SM      0.039700
     82 H241       14.5300   -8.3970  -10.7460 hc        1 0SM      0.039700
     83 H242       15.3540   -9.0400   -9.2740 hc        1 0SM      0.039700
     84 H251       16.5180   -6.9250  -11.2170 hc        1 0SM      0.039200
     85 H252       17.3430   -7.5680   -9.7450 hc        1 0SM      0.039200
     86 H261       17.2230   -9.8970  -10.6950 hc        1 0SM      0.039700
     87 H262       16.3990   -9.2550  -12.1670 hc        1 0SM      0.039700
     88 H271       19.2100   -8.4250  -11.1650 hc        1 0SM      0.038700
     89 H272       18.3850   -7.7820  -12.6370 hc        1 0SM      0.038700
     90 H281       19.9950   -9.5960  -13.2230 hc        1 0SM      0.032367
     91 H282       18.2990  -10.1050  -13.6050 hc        1 0SM      0.032367
     92 H283       19.1250  -10.7490  -12.1300 hc        1 0SM      0.032367
     93 H2          0.9570   -2.6360    2.3730 ho        1 0SM      0.428000
@<TRIPOS>BOND
     1    1   31 1   
     2    1   34 1   
     3    1   37 1   
     4    1   38 1   
     5    2   36 1   
     6    2   40 1   
     7    2   41 1   
     8    2   42 1   
     9    3    4 1   
    10    3   33 1   
    11    3   44 1   
    12    3   45 1   
    13    4   26 1   
    14    4   46 1   
    15    4   47 1   
    16    5   26 1   
    17    5   48 1   
    18    5   49 1   
    19    5   50 1   
    20    6   26 1   
    21    6   51 1   
    22    6   52 1   
    23    6   53 1   
    24    7   26 1   
    25    7   54 1   
    26    7   55 1   
    27    7   56 1   
    28    8    9 1   
    29    8   28 2   
    30    8   32 1   
    31    9   10 1   
    32    9   57 1   
    33    9   58 1   
    34   10   11 1   
    35   10   60 1   
    36   10   61 1   
    37   11   12 1   
    38   11   62 1   
    39   11   63 1   
    40   12   13 1   
    41   12   64 1   
    42   12   65 1   
    43   13   14 1   
    44   13   66 1   
    45   13   67 1   
    46   14   15 1   
    47   14   68 1   
    48   14   69 1   
    49   15   16 1   
    50   15   70 1   
    51   15   71 1   
    52   16   17 1   
    53   16   72 1   
    54   16   73 1   
    55   17   18 1   
    56   17   74 1   
    57   17   75 1   
    58   18   19 1   
    59   18   76 1   
    60   18   77 1   
    61   19   20 1   
    62   19   78 1   
    63   19   79 1   
    64   20   21 1   
    65   20   80 1   
    66   20   81 1   
    67   21   22 1   
    68   21   82 1   
    69   21   83 1   
    70   22   23 1   
    71   22   84 1   
    72   22   85 1   
    73   23   24 1   
    74   23   86 1   
    75   23   87 1   
    76   24   25 1   
    77   24   88 1   
    78   24   89 1   
    79   25   90 1   
    80   25   91 1   
    81   25   92 1   
    82   27   36 1   
    83   27   93 1   
    84   29   35 1   
    85   30   35 1   
    86   31   35 1   
    87   32   34 1   
    88   32   59 1   
    89   33   35 1   
    90   34   36 1   
    91   34   39 1   
    92   36   43 1   
@<TRIPOS>SUBSTRUCTURE
     1 0SM         1 TEMP              0 ****  ****    0 ROOT
