@<TRIPOS>MOLECULE
0SM
   93    91     1     0     0
SMALL
bcc


@<TRIPOS>ATOM
      1 C1         -4.6960    2.8790    4.1150 c3        1 0SM      0.006000
      2 C3         -1.5930    3.4810    5.9150 c3        1 0SM     -0.244000
      3 C4         -6.1480    5.9680    0.2810 c3        1 0SM      0.037000
      4 C5         -6.2550    7.5080    0.1610 c3        1 0SM     -0.136000
      5 C6         -5.2710    7.7980   -2.0140 c3        1 0SM     -0.199667
      6 C7         -7.0010    9.2300   -1.3330 c3        1 0SM     -0.199667
      7 C8         -7.4550    7.0070   -1.8380 c3        1 0SM     -0.199667
      8 C11        -2.7650    0.0810    3.7080 c1        1 0SM      0.312000
      9 C12        -2.3950   -1.3800    4.0470 c2        1 0SM     -0.184000
     10 C13        -2.5390   -2.2740    2.7570 c3        1 0SM     -0.159000
     11 C14        -1.1920   -3.0160    2.4860 c3        1 0SM     -0.156000
     12 C15        -1.4250   -4.1560    1.4700 c3        1 0SM     -0.158000
     13 C16        -0.5880   -3.8840    0.1800 c3        1 0SM     -0.159000
     14 C17         0.1960   -5.1310   -0.1870 c3        1 0SM     -0.157000
     15 C18         0.7480   -4.9870   -1.6170 c3        1 0SM     -0.157000
     16 C19         2.2810   -5.0670   -1.5850 c3        1 0SM     -0.157000
     17 C20         2.8150   -5.1260   -3.0110 c3        1 0SM     -0.159000
     18 C21         4.0480   -4.2380   -3.1330 c3        1 0SM     -0.157000
     19 C22         5.1750   -5.0260   -3.7720 c3        1 0SM     -0.157000
     20 C23         6.3150   -4.0640   -4.1730 c3        1 0SM     -0.156000
     21 C24         7.6740   -4.6870   -3.7870 c3        1 0SM     -0.158000
     22 C25         8.8110   -3.7660   -4.2480 c3        1 0SM     -0.158000
     23 C26        10.0630   -4.0030   -3.3600 c3        1 0SM     -0.158000
     24 C27        11.3040   -3.3950   -4.0490 c3        1 0SM     -0.159000
     25 C28        12.4760   -3.4110   -3.0930 c3        1 0SM     -0.211000
     26 N          -6.5030    7.8870   -1.2740 n4        1 0SM      0.053000
     27 O2         -3.1110    1.9640    6.9340 oh        1 0SM     -0.343000
     28 O11        -2.5880    0.5070    2.5820 o         1 0SM     -0.436000
     29 O1P        -6.4340    3.3440    1.4130 o         1 0SM     -0.815000
     30 O2P        -6.7760    4.8320    3.3530 o         1 0SM     -0.815000
     31 O3P        -4.4990    3.7590    3.0220 os        1 0SM     -0.745000
     32 NBQ        -3.4010    0.9220    4.7090 n3        1 0SM     -0.353000
     33 O4P        -5.3550    5.6310    1.4340 os        1 0SM     -0.728000
     34 CBV        -3.3370    2.3410    4.5920 c3        1 0SM      0.006000
     35 P          -5.7890    4.3890    2.3070 p5        1 0SM      1.910000
     36 CBU        -3.0010    2.9460    5.9390 c3        1 0SM      0.016000
     37 H11C       -5.1300    3.3610    4.8470 h1        1 0SM      0.094500
     38 H12C       -5.2660    2.1270    3.8330 h1        1 0SM      0.094500
     39 HBV        -2.6420    2.5840    3.9420 h1        1 0SM      0.116000
     40 H31C       -1.4060    3.9370    6.7520 hc        1 0SM      0.080667
     41 H32C       -0.9600    2.7350    5.7990 hc        1 0SM      0.080667
     42 H33C       -1.4940    4.1210    5.1590 hc        1 0SM      0.080667
     43 HBU        -3.6210    3.6740    6.1310 h1        1 0SM      0.117000
     44 H41C       -7.0330    5.5890    0.3760 h1        1 0SM      0.100000
     45 H42C       -5.7280    5.6100   -0.5160 h1        1 0SM      0.100000
     46 H51C       -7.0030    7.8290    0.7190 hx        1 0SM      0.120500
     47 H52C       -5.4090    7.9240    0.4720 hx        1 0SM      0.120500
     48 H61C       -5.0500    6.8570   -2.1700 hx        1 0SM      0.139444
     49 H62C       -4.5580    8.2180   -1.5060 hx        1 0SM      0.139444
     50 H63C       -5.3740    8.2650   -2.8880 hx        1 0SM      0.139444
     51 H71C       -6.3850    9.8260   -0.8680 hx        1 0SM      0.139444
     52 H72C       -7.0830    9.5130   -2.2830 hx        1 0SM      0.139444
     53 H73C       -7.8780    9.2700   -0.9060 hx        1 0SM      0.139444
     54 H81C       -8.1290    6.7840   -1.1680 hx        1 0SM      0.139444
     55 H82C       -7.0070    6.1870   -2.1370 hx        1 0SM      0.139444
     56 H83C       -7.8900    7.4440   -2.6090 hx        1 0SM      0.139444
     57 H121       -3.0000   -1.7180    4.7520 ha        1 0SM      0.108000
     58 H122       -1.4710   -1.4160    4.3660 ha        1 0SM      0.108000
     59 HBQ        -3.8400    0.5450    5.4030 hn        1 0SM      0.240000
     60 H131       -3.2600   -2.9380    2.8940 hc        1 0SM      0.090500
     61 H132       -2.7600   -1.7080    1.9910 hc        1 0SM      0.090500
     62 H141       -0.8510   -3.3900    3.3250 hc        1 0SM      0.079500
     63 H142       -0.5440   -2.3890    2.1260 hc        1 0SM      0.079500
     64 H151       -2.3730   -4.1990    1.2410 hc        1 0SM      0.081500
     65 H152       -1.1420   -5.0190    1.8710 hc        1 0SM      0.081500
     66 H161       -1.1890   -3.6490   -0.5550 hc        1 0SM      0.080000
     67 H162        0.0320   -3.1450    0.3440 hc        1 0SM      0.080000
     68 H171        0.9340   -5.2460    0.4370 hc        1 0SM      0.079500
     69 H172       -0.3910   -5.9080   -0.1430 hc        1 0SM      0.079500
     70 H181        0.3930   -5.7130   -2.1820 hc        1 0SM      0.081000
     71 H182        0.4720   -4.1110   -1.9910 hc        1 0SM      0.081000
     72 H191        2.6380   -4.2790   -1.1360 hc        1 0SM      0.078000
     73 H192        2.5530   -5.8630   -1.1050 hc        1 0SM      0.078000
     74 H201        3.0570   -6.0550   -3.2320 hc        1 0SM      0.079500
     75 H202        2.1180   -4.8090   -3.6370 hc        1 0SM      0.079500
     76 H211        3.8370   -3.4640   -3.6880 hc        1 0SM      0.078000
     77 H212        4.3210   -3.9380   -2.2510 hc        1 0SM      0.078000
     78 H221        4.8390   -5.4870   -4.5720 hc        1 0SM      0.079000
     79 H222        5.5150   -5.6870   -3.1320 hc        1 0SM      0.079000
     80 H231        6.2890   -3.9130   -5.1370 hc        1 0SM      0.077500
     81 H232        6.2020   -3.2090   -3.7030 hc        1 0SM      0.077500
     82 H241        7.7660   -5.5610   -4.2210 hc        1 0SM      0.080000
     83 H242        7.7170   -4.7980   -2.8150 hc        1 0SM      0.080000
     84 H251        8.5290   -2.8410   -4.1690 hc        1 0SM      0.078000
     85 H252        9.0300   -3.9610   -5.1770 hc        1 0SM      0.078000
     86 H261        9.9310   -3.5740   -2.4860 hc        1 0SM      0.079000
     87 H262       10.2000   -4.9790   -3.2320 hc        1 0SM      0.079000
     88 H271       11.1120   -2.4790   -4.3090 hc        1 0SM      0.077500
     89 H272       11.5260   -3.9230   -4.8500 hc        1 0SM      0.077500
     90 H281       12.4860   -4.2600   -2.6010 hc        1 0SM      0.072000
     91 H282       12.3920   -2.6710   -2.4650 hc        1 0SM      0.072000
     92 H283       13.3160   -3.3160   -3.6020 hc        1 0SM      0.072000
     93 H2         -3.1310    2.3530    7.7330 ho        1 0SM      0.205000
@<TRIPOS>BOND
     1    1   31 1   
     2    1   34 1   
     3    1   37 1   
     4    1   38 1   
     5    2   36 1   
     6    2   40 1   
     7    2   41 1   
     8    2   42 1   
     9    3    4 1   
    10    3   33 1   
    11    3   44 1   
    12    3   45 1   
    13    4   26 1   
    14    4   46 1   
    15    4   47 1   
    16    5   26 1   
    17    5   48 1   
    18    5   49 1   
    19    5   50 1   
    20    6   26 1   
    21    6   51 1   
    22    6   52 1   
    23    6   53 1   
    24    7   26 1   
    25    7   54 1   
    26    7   55 1   
    27    7   56 1   
    28    8   28 1   
    29    8   32 1   
    30    9   10 1   
    31    9   57 1   
    32    9   58 1   
    33   10   11 1   
    34   10   60 1   
    35   10   61 1   
    36   11   12 1   
    37   11   62 1   
    38   11   63 1   
    39   12   13 1   
    40   12   64 1   
    41   12   65 1   
    42   13   14 1   
    43   13   66 1   
    44   13   67 1   
    45   14   15 1   
    46   14   68 1   
    47   14   69 1   
    48   15   16 1   
    49   15   70 1   
    50   15   71 1   
    51   16   17 1   
    52   16   72 1   
    53   16   73 1   
    54   17   18 1   
    55   17   74 1   
    56   17   75 1   
    57   18   19 1   
    58   18   76 1   
    59   18   77 1   
    60   19   20 1   
    61   19   78 1   
    62   19   79 1   
    63   20   21 1   
    64   20   80 1   
    65   20   81 1   
    66   21   22 1   
    67   21   82 1   
    68   21   83 1   
    69   22   23 1   
    70   22   84 1   
    71   22   85 1   
    72   23   24 1   
    73   23   86 1   
    74   23   87 1   
    75   24   25 1   
    76   24   88 1   
    77   24   89 1   
    78   25   90 1   
    79   25   91 1   
    80   25   92 1   
    81   27   36 1   
    82   27   93 1   
    83   29   35 1   
    84   30   35 1   
    85   31   35 1   
    86   32   34 1   
    87   32   59 1   
    88   33   35 1   
    89   34   36 1   
    90   34   39 1   
    91   36   43 1   
@<TRIPOS>SUBSTRUCTURE
     1 0SM         1 TEMP              0 ****  ****    0 ROOT
