@<TRIPOS>MOLECULE
0SM
   93    92     1     0     0
SMALL
bcc


@<TRIPOS>ATOM
      1 C1         -5.8650    1.1950   -0.4210 c3        1 0SM      0.144400
      2 C3         -4.6700    0.9160    3.2650 c3        1 0SM     -0.118100
      3 C4         -8.9430   -2.2320   -1.6760 c3        1 0SM      0.194400
      4 C5         -9.6270   -2.6520   -0.3600 c3        1 0SM      0.092800
      5 C6        -10.8880   -0.5370   -0.1190 c3        1 0SM      0.083433
      6 C7        -10.8690   -2.1820    1.6650 c3        1 0SM      0.083433
      7 C8         -8.8660   -0.8970    1.2020 c3        1 0SM      0.083433
      8 C11        -2.4150    1.1080    0.7250 c         1 0SM      0.656100
      9 C12        -1.2390    0.2720    0.2520 c3        1 0SM     -0.149400
     10 C13         0.0750    0.9260    0.6200 c3        1 0SM     -0.073400
     11 C14         1.2460    0.1010    0.1300 c3        1 0SM     -0.079400
     12 C15         2.5620    0.7510    0.4980 c3        1 0SM     -0.078400
     13 C16         3.7360   -0.0700    0.0090 c3        1 0SM     -0.079400
     14 C17         5.0520    0.5800    0.3770 c3        1 0SM     -0.079400
     15 C18         6.2260   -0.2410   -0.1110 c3        1 0SM     -0.079400
     16 C19         7.5430    0.4100    0.2560 c3        1 0SM     -0.079400
     17 C20         8.7170   -0.4110   -0.2320 c3        1 0SM     -0.079400
     18 C21        10.0330    0.2390    0.1350 c3        1 0SM     -0.079400
     19 C22        11.2070   -0.5820   -0.3530 c3        1 0SM     -0.079400
     20 C23        12.5240    0.0690    0.0140 c3        1 0SM     -0.079400
     21 C24        13.6980   -0.7520   -0.4740 c3        1 0SM     -0.079400
     22 C25        15.0140   -0.1010   -0.1070 c3        1 0SM     -0.079400
     23 C26        16.1880   -0.9220   -0.5960 c3        1 0SM     -0.079400
     24 C27        17.5060   -0.2730   -0.2290 c3        1 0SM     -0.080400
     25 C28        18.6770   -1.0860   -0.7130 c3        1 0SM     -0.092100
     26 N         -10.0540   -1.5570    0.5800 n4        1 0SM     -0.584800
     27 O2         -6.3470   -0.2490    1.9920 oh        1 0SM     -0.639800
     28 O11        -2.2670    2.2160    1.2810 o         1 0SM     -0.621100
     29 O1P        -6.4890   -0.4050   -3.2410 o         1 0SM     -0.820500
     30 O2P        -8.3560    0.4240   -1.5550 o         1 0SM     -0.820500
     31 O3P        -6.0740   -0.1580   -0.7230 os        1 0SM     -0.581200
     32 NBQ        -3.6730    0.5640    0.5420 n         1 0SM     -0.561900
     33 O4P        -7.6230   -1.8910   -1.4580 os        1 0SM     -0.561200
     34 CBV        -4.8780    1.3270    0.7600 c3        1 0SM      0.064700
     35 P          -7.1580   -0.3610   -1.9440 p5        1 0SM      1.440800
     36 CBU        -5.6120    0.9640    2.0780 c3        1 0SM      0.143100
     37 H11C       -5.4510    1.7050   -1.3340 h1        1 0SM      0.047200
     38 H12C       -6.8490    1.6630   -0.1420 h1        1 0SM      0.047200
     39 HBV        -4.5940    2.4210    0.8490 h1        1 0SM      0.086700
     40 H31C       -3.9460    1.7650    3.2130 hc        1 0SM      0.045367
     41 H32C       -5.2510    0.9830    4.2160 hc        1 0SM      0.045367
     42 H33C       -4.0990   -0.0430    3.2730 hc        1 0SM      0.045367
     43 HBU        -6.4010    1.7540    2.2490 h1        1 0SM      0.053700
     44 H41C       -8.9750   -3.1600   -2.3230 h1        1 0SM      0.056200
     45 H42C       -9.5110   -1.4010   -2.1790 h1        1 0SM      0.056200
     46 H51C      -10.5530   -3.2370   -0.6220 hx        1 0SM      0.080700
     47 H52C       -8.9080   -3.3090    0.2070 hx        1 0SM      0.080700
     48 H61C      -11.6640   -1.0580   -0.7360 hx        1 0SM      0.099922
     49 H62C      -11.3820    0.1150    0.6470 hx        1 0SM      0.099922
     50 H63C      -10.2320    0.1080   -0.7810 hx        1 0SM      0.099922
     51 H71C      -10.2710   -2.9910    2.1610 hx        1 0SM      0.099922
     52 H72C      -11.1370   -1.4010    2.4240 hx        1 0SM      0.099922
     53 H73C      -11.8050   -2.6180    1.2290 hx        1 0SM      0.099922
     54 H81C       -8.2300   -0.4290    0.3890 hx        1 0SM      0.099922
     55 H82C       -9.2110   -0.0980    1.9060 hx        1 0SM      0.099922
     56 H83C       -8.2560   -1.6600    1.7510 hx        1 0SM      0.099922
     57 H121       -1.2970   -0.7500    0.7110 hc        1 0SM      0.064700
     58 H122       -1.3070    0.1510   -0.8620 hc        1 0SM      0.064700
     59 HBQ        -3.7750   -0.2570   -0.0100 hn        1 0SM      0.326500
     60 H131        0.1160    1.9560    0.1760 hc        1 0SM      0.058200
     61 H132        0.1310    1.0520    1.7330 hc        1 0SM      0.058200
     62 H141        1.1970   -0.9270    0.5770 hc        1 0SM      0.038200
     63 H142        1.1840   -0.0190   -0.9840 hc        1 0SM      0.038200
     64 H151        2.6100    1.7800    0.0520 hc        1 0SM      0.041700
     65 H152        2.6240    0.8720    1.6120 hc        1 0SM      0.041700
     66 H161        3.6870   -1.0980    0.4550 hc        1 0SM      0.038700
     67 H162        3.6740   -0.1900   -1.1050 hc        1 0SM      0.038700
     68 H171        5.1010    1.6090   -0.0690 hc        1 0SM      0.040200
     69 H172        5.1140    0.7000    1.4910 hc        1 0SM      0.040200
     70 H181        6.1780   -1.2690    0.3340 hc        1 0SM      0.039200
     71 H182        6.1640   -0.3600   -1.2250 hc        1 0SM      0.039200
     72 H191        7.5910    1.4380   -0.1900 hc        1 0SM      0.039700
     73 H192        7.6050    0.5290    1.3700 hc        1 0SM      0.039700
     74 H201        8.6680   -1.4400    0.2130 hc        1 0SM      0.039200
     75 H202        8.6550   -0.5310   -1.3460 hc        1 0SM      0.039200
     76 H211       10.0820    1.2680   -0.3100 hc        1 0SM      0.039700
     77 H212       10.0950    0.3590    1.2490 hc        1 0SM      0.039700
     78 H221       11.1590   -1.6100    0.0920 hc        1 0SM      0.039200
     79 H222       11.1450   -0.7010   -1.4670 hc        1 0SM      0.039200
     80 H231       12.5720    1.0970   -0.4320 hc        1 0SM      0.039700
     81 H232       12.5860    0.1890    1.1280 hc        1 0SM      0.039700
     82 H241       13.6490   -1.7800   -0.0290 hc        1 0SM      0.039700
     83 H242       13.6350   -0.8720   -1.5880 hc        1 0SM      0.039700
     84 H251       15.0630    0.9270   -0.5530 hc        1 0SM      0.039200
     85 H252       15.0760    0.0180    1.0070 hc        1 0SM      0.039200
     86 H261       16.1400   -1.9500   -0.1500 hc        1 0SM      0.039700
     87 H262       16.1260   -1.0420   -1.7090 hc        1 0SM      0.039700
     88 H271       17.5510    0.7560   -0.6740 hc        1 0SM      0.038700
     89 H272       17.5650   -0.1520    0.8850 hc        1 0SM      0.038700
     90 H281       18.6630   -2.1070   -0.2610 hc        1 0SM      0.032367
     91 H282       18.6490   -1.1960   -1.8250 hc        1 0SM      0.032367
     92 H283       19.6380   -0.5900   -0.4330 hc        1 0SM      0.032367
     93 H2         -5.8780   -0.8390    1.3870 ho        1 0SM      0.428000
@<TRIPOS>BOND
     1    1   31 1   
     2    1   34 1   
     3    1   37 1   
     4    1   38 1   
     5    2   36 1   
     6    2   40 1   
     7    2   41 1   
     8    2   42 1   
     9    3    4 1   
    10    3   33 1   
    11    3   44 1   
    12    3   45 1   
    13    4   26 1   
    14    4   46 1   
    15    4   47 1   
    16    5   26 1   
    17    5   48 1   
    18    5   49 1   
    19    5   50 1   
    20    6   26 1   
    21    6   51 1   
    22    6   52 1   
    23    6   53 1   
    24    7   26 1   
    25    7   54 1   
    26    7   55 1   
    27    7   56 1   
    28    8    9 1   
    29    8   28 2   
    30    8   32 1   
    31    9   10 1   
    32    9   57 1   
    33    9   58 1   
    34   10   11 1   
    35   10   60 1   
    36   10   61 1   
    37   11   12 1   
    38   11   62 1   
    39   11   63 1   
    40   12   13 1   
    41   12   64 1   
    42   12   65 1   
    43   13   14 1   
    44   13   66 1   
    45   13   67 1   
    46   14   15 1   
    47   14   68 1   
    48   14   69 1   
    49   15   16 1   
    50   15   70 1   
    51   15   71 1   
    52   16   17 1   
    53   16   72 1   
    54   16   73 1   
    55   17   18 1   
    56   17   74 1   
    57   17   75 1   
    58   18   19 1   
    59   18   76 1   
    60   18   77 1   
    61   19   20 1   
    62   19   78 1   
    63   19   79 1   
    64   20   21 1   
    65   20   80 1   
    66   20   81 1   
    67   21   22 1   
    68   21   82 1   
    69   21   83 1   
    70   22   23 1   
    71   22   84 1   
    72   22   85 1   
    73   23   24 1   
    74   23   86 1   
    75   23   87 1   
    76   24   25 1   
    77   24   88 1   
    78   24   89 1   
    79   25   90 1   
    80   25   91 1   
    81   25   92 1   
    82   27   36 1   
    83   27   93 1   
    84   29   35 1   
    85   30   35 1   
    86   31   35 1   
    87   32   34 1   
    88   32   59 1   
    89   33   35 1   
    90   34   36 1   
    91   34   39 1   
    92   36   43 1   
@<TRIPOS>SUBSTRUCTURE
     1 0SM         1 TEMP              0 ****  ****    0 ROOT
