@<TRIPOS>MOLECULE
0SN
   60    62     1     0     0
SMALL
bcc


@<TRIPOS>ATOM
      1 C23        -4.6440   -1.3300   -2.2310 ca        1 0SN     -0.142000
      2 C27        -4.3100   -1.3810    0.1550 ca        1 0SN     -0.142000
      3 C24        -5.9420   -0.8650   -2.0300 ca        1 0SN     -0.146000
      4 C26        -5.6000   -0.9100    0.3580 ca        1 0SN     -0.146000
      5 C5          7.0220   -1.4070   -0.9450 ca        1 0SN     -0.056000
      6 C6          5.7720   -0.9080   -0.6470 ca        1 0SN     -0.171000
      7 C8          6.7120    0.6460    0.9920 ca        1 0SN     -0.137000
      8 C22        -3.8110   -1.5850   -1.1390 ca        1 0SN     -0.159300
      9 C25        -6.4380   -0.6350   -0.7380 ca        1 0SN     -0.004300
     10 C4          8.1530   -0.8910   -0.2820 ca        1 0SN      0.044400
     11 C7          5.5900    0.1230    0.3270 ca        1 0SN      0.093600
     12 C9          7.9760    0.1470    0.6900 ca        1 0SN     -0.050100
     13 C2         10.2800   -0.5940    0.3110 cc        1 0SN      0.350200
     14 C12         3.8890    1.6980    1.2490 c         1 0SN      0.664100
     15 C17         1.0560   -0.3830   -0.8320 c         1 0SN      0.668100
     16 C30        -8.0060    0.5890    1.8310 c         1 0SN      0.929100
     17 C33       -10.0100   -0.4970    0.5710 c         1 0SN      0.929100
     18 C1         11.7490   -0.7340    0.3910 c3        1 0SN     -0.112400
     19 C21        -2.4110   -2.0460   -1.3340 c3        1 0SN     -0.008100
     20 C28        -7.8090   -0.0840   -0.5630 c3        1 0SN     -0.041100
     21 C14         2.3960    1.9620    1.3450 c3        1 0SN     -0.180400
     22 C19        -0.0050   -1.4490   -1.0020 c3        1 0SN     -0.149400
     23 C20        -1.4310   -0.9520   -0.9430 c3        1 0SN     -0.089400
     24 C15         1.6520    1.8730    0.0060 c3        1 0SN      0.092000
     25 C29        -8.4820   -0.4120    0.7620 c3        1 0SN     -0.264700
     26 N3          9.4830   -1.2940   -0.4780 nd        1 0SN     -0.520100
     27 N11         4.2800    0.5420    0.5910 n         1 0SN     -0.466100
     28 N16         0.7580    0.7590   -0.1210 n         1 0SN     -0.572900
     29 O13         4.6970    2.4810    1.7880 o         1 0SN     -0.609100
     30 O18         2.2050   -0.5500   -1.3090 o         1 0SN     -0.673100
     31 O31        -8.2150    1.8310    1.7070 o         1 0SN     -0.880300
     32 O34       -10.5310   -0.0920   -0.5160 o         1 0SN     -0.880300
     33 O32        -7.2980    0.1320    2.7910 o         1 0SN     -0.880300
     34 O35       -10.7070   -1.0650    1.4640 o         1 0SN     -0.880300
     35 S10         9.4840    0.5820    1.3250 ss        1 0SN     -0.074100
     36 H23        -4.2740   -1.4960   -3.2530 ha        1 0SN      0.098000
     37 H24        -6.5910   -0.6710   -2.8970 ha        1 0SN      0.173500
     38 H27        -3.6680   -1.5940    1.0220 ha        1 0SN      0.098000
     39 H26        -5.9890   -0.7280    1.3870 ha        1 0SN      0.173500
     40 H8          6.6050    1.4480    1.7420 ha        1 0SN      0.178000
     41 H211       -2.2200   -2.9560   -0.7030 hc        1 0SN      0.028700
     42 H212       -2.2370   -2.3390   -2.4030 hc        1 0SN      0.028700
     43 H281       -7.7520    1.0380   -0.6480 hc        1 0SN      0.068700
     44 H282       -8.4630   -0.4410   -1.4050 hc        1 0SN      0.068700
     45 H11         3.5650    0.0320    0.1050 hn        1 0SN      0.354500
     46 H11C       12.2170   -0.5230   -0.6040 hc        1 0SN      0.054700
     47 H12C       12.1630   -0.0160    1.1410 hc        1 0SN      0.054700
     48 H13C       12.0280   -1.7730    0.6970 hc        1 0SN      0.054700
     49 H141        1.9690    1.2560    2.1060 hc        1 0SN      0.086200
     50 H142        2.2790    3.0020    1.7520 hc        1 0SN      0.086200
     51 H191        0.1860   -1.9450   -1.9920 hc        1 0SN      0.074200
     52 H192        0.1670   -2.2180   -0.2020 hc        1 0SN      0.074200
     53 H16        -0.1550    0.8650    0.2570 hn        1 0SN      0.333500
     54 H29        -8.1630   -1.4360    1.1030 hc        1 0SN      0.030700
     55 H201       -1.5650   -0.0770   -1.6310 hc        1 0SN      0.053700
     56 H202       -1.6860   -0.6100    0.0960 hc        1 0SN      0.053700
     57 H151        1.0390    2.8160   -0.1040 h1        1 0SN      0.065200
     58 H152        2.3900    1.8500   -0.8470 h1        1 0SN      0.065200
     59 H5          7.1420   -2.2010   -1.6970 ha        1 0SN      0.147000
     60 H6          4.8900   -1.3090   -1.1770 ha        1 0SN      0.160000
@<TRIPOS>BOND
     1    1    3 ar  
     2    1    8 ar  
     3    1   36 1   
     4    2    4 ar  
     5    2    8 ar  
     6    2   38 1   
     7    3    9 ar  
     8    3   37 1   
     9    4    9 ar  
    10    4   39 1   
    11    5    6 ar  
    12    5   10 ar  
    13    5   59 1   
    14    6   11 ar  
    15    6   60 1   
    16    7   11 ar  
    17    7   12 ar  
    18    7   40 1   
    19    8   19 1   
    20    9   20 1   
    21   10   12 ar  
    22   10   26 1   
    23   11   27 1   
    24   12   35 1   
    25   13   18 1   
    26   13   26 2   
    27   13   35 1   
    28   14   21 1   
    29   14   27 1   
    30   14   29 2   
    31   15   22 1   
    32   15   28 1   
    33   15   30 2   
    34   16   25 1   
    35   16   31 1   
    36   16   33 1   
    37   17   25 1   
    38   17   32 1   
    39   17   34 1   
    40   18   46 1   
    41   18   47 1   
    42   18   48 1   
    43   19   23 1   
    44   19   41 1   
    45   19   42 1   
    46   20   25 1   
    47   20   43 1   
    48   20   44 1   
    49   21   24 1   
    50   21   49 1   
    51   21   50 1   
    52   22   23 1   
    53   22   51 1   
    54   22   52 1   
    55   23   55 1   
    56   23   56 1   
    57   24   28 1   
    58   24   57 1   
    59   24   58 1   
    60   25   54 1   
    61   27   45 1   
    62   28   53 1   
@<TRIPOS>SUBSTRUCTURE
     1 0SN         1 TEMP              0 ****  ****    0 ROOT
