@<TRIPOS>MOLECULE
0SO
   69    70     1     0     0
SMALL
bcc


@<TRIPOS>ATOM
      1 O27         2.5910    0.6050   -0.3830 o         1 0SO     -0.425000
      2 C25         1.4110    0.5390   -0.6810 c         1 0SO      0.657100
      3 O26         0.2990    0.5140    0.0150 os        1 0SO     -0.425900
      4 C28         0.3600    0.6600    1.5600 c3        1 0SO      0.235800
      5 C31        -1.1170    0.5990    1.8760 c3        1 0SO     -0.141767
      6 C30         1.1390   -0.5130    2.0930 c3        1 0SO     -0.141767
      7 C29         0.9850    1.9970    1.8620 c3        1 0SO     -0.141767
      8 N24         1.0440    0.4710   -2.1900 n4        1 0SO     -0.675800
      9 C23         2.0960   -0.2350   -2.9630 c3        1 0SO      0.106800
     10 C22         1.9610   -0.0860   -4.4820 c3        1 0SO     -0.133400
     11 C21         3.1420   -0.8160   -5.1240 c3        1 0SO      0.113800
     12 N19         3.1490   -0.7060   -6.6280 n4        1 0SO     -0.641800
     13 C18         4.3780   -1.3440   -7.2140 c         1 0SO      0.472100
     14 O20         5.3440   -1.5960   -6.5160 o         1 0SO     -0.292100
     15 N17         4.3710   -1.6550   -8.6910 n4        1 0SO     -0.426200
     16 C11         3.1470   -1.3030   -9.3350 cc        1 0SO     -0.310700
     17 C12         1.9310   -2.0640   -9.3990 cd        1 0SO     -0.217300
     18 C10         1.0940   -1.3270  -10.2860 cd        1 0SO      0.374600
     19 C13        -0.3000   -1.6790  -10.7220 c3        1 0SO     -0.089300
     20 C16        -0.3170   -1.8730  -12.2360 c3        1 0SO     -0.098100
     21 C15        -0.7360   -2.9710  -10.0440 c3        1 0SO     -0.098100
     22 C14        -1.2540   -0.5530  -10.3420 c3        1 0SO     -0.098100
     23 N9          1.7710   -0.1950  -10.7320 nc        1 0SO     -0.365800
     24 N8          2.9620   -0.1680  -10.1850 na        1 0SO      0.278300
     25 C4          4.0240    0.7370  -10.5270 ca        1 0SO     -0.116200
     26 C2          4.2330    1.1020  -11.8700 ca        1 0SO     -0.115500
     27 C6          4.8430    1.2790   -9.5110 ca        1 0SO     -0.115500
     28 C5          5.8700    2.1470   -9.8480 ca        1 0SO     -0.100500
     29 C3          6.1020    2.5070  -11.1900 ca        1 0SO      0.013700
     30 C7          7.1900    3.4440  -11.5410 c3        1 0SO     -0.092800
     31 C1          5.2710    1.9790  -12.1850 ca        1 0SO     -0.100500
     32 H1         -1.6690    1.4360    1.3830 hc        1 0SO      0.085367
     33 H2         -1.2380    0.6930    2.9860 hc        1 0SO      0.085367
     34 H3         -1.5580   -0.3730    1.5490 hc        1 0SO      0.085367
     35 H4          1.1080   -0.4850    3.2130 hc        1 0SO      0.085367
     36 H5          0.6900   -1.4790    1.7560 hc        1 0SO      0.085367
     37 H6          2.2090   -0.4680    1.7740 hc        1 0SO      0.085367
     38 H7          2.0560    2.0250    1.5440 hc        1 0SO      0.085367
     39 H8          0.4260    2.8250    1.3630 hc        1 0SO      0.085367
     40 H9          0.9480    2.1680    2.9700 hc        1 0SO      0.085367
     41 H10         2.0530   -1.3270   -2.6750 hx        1 0SO      0.133700
     42 H11         1.9710    1.0020   -4.7660 hc        1 0SO      0.095200
     43 H12         0.9880   -0.5280   -4.8300 hc        1 0SO      0.095200
     44 H13         3.1100   -1.9160   -4.8650 hx        1 0SO      0.140200
     45 H14         4.1180   -0.3860   -4.7440 hx        1 0SO      0.140200
     46 H15         3.1390    0.2910   -6.9070 hn        1 0SO      0.498800
     47 H16         4.5330   -2.6790   -8.7980 hn        1 0SO      0.531300
     48 H17         1.7060   -3.0180   -8.9260 ha        1 0SO      0.204000
     49 H18         0.4070   -2.6660  -12.5410 hc        1 0SO      0.058256
     50 H19        -0.0640   -0.9210  -12.7620 hc        1 0SO      0.058256
     51 H20        -1.3420   -2.1880  -12.5550 hc        1 0SO      0.058256
     52 H21        -1.7790   -3.2210  -10.3640 hc        1 0SO      0.058256
     53 H22        -0.7260   -2.8620   -8.9340 hc        1 0SO      0.058256
     54 H23        -0.0710   -3.8190  -10.3380 hc        1 0SO      0.058256
     55 H24        -0.9880    0.3930  -10.8710 hc        1 0SO      0.058256
     56 H25        -1.2370   -0.3760   -9.2410 hc        1 0SO      0.058256
     57 H26        -2.2950   -0.8370  -10.6390 hc        1 0SO      0.058256
     58 H27         3.5890    0.7130  -12.6800 ha        1 0SO      0.128000
     59 H28         4.6380    1.0820   -8.4480 ha        1 0SO      0.128000
     60 H29         6.5090    2.5780   -9.0580 ha        1 0SO      0.182000
     61 H30         7.9250    3.5560  -10.7060 hc        1 0SO      0.087033
     62 H31         7.7380    3.0940  -12.4530 hc        1 0SO      0.087033
     63 H32         6.7600    4.4560  -11.7670 hc        1 0SO      0.087033
     64 H33         5.4330    2.2650  -13.2420 ha        1 0SO      0.182000
     65 H34         0.1360   -0.0020   -2.2810 hn        1 0SO      0.468800
     66 H35         3.0980    0.1750   -2.6230 hx        1 0SO      0.133700
     67 H242        0.9390    1.4370   -2.5180 hn        1 0SO      0.468800
     68 H192        2.3010   -1.1520   -7.0260 hn        1 0SO      0.498800
     69 H172        5.1780   -1.1360   -9.1210 hn        1 0SO      0.531300
@<TRIPOS>BOND
     1    1    2 2   
     2    2    3 1   
     3    2    8 1   
     4    3    4 1   
     5    4    5 1   
     6    4    6 1   
     7    4    7 1   
     8    5   32 1   
     9    5   33 1   
    10    5   34 1   
    11    6   35 1   
    12    6   36 1   
    13    6   37 1   
    14    7   38 1   
    15    7   39 1   
    16    7   40 1   
    17    8    9 1   
    18    8   65 1   
    19    8   67 1   
    20    9   10 1   
    21    9   41 1   
    22    9   66 1   
    23   10   11 1   
    24   10   42 1   
    25   10   43 1   
    26   11   12 1   
    27   11   44 1   
    28   11   45 1   
    29   12   13 1   
    30   12   46 1   
    31   12   68 1   
    32   13   14 2   
    33   13   15 1   
    34   15   16 1   
    35   15   47 1   
    36   15   69 1   
    37   16   17 2   
    38   16   24 1   
    39   17   18 1   
    40   17   48 1   
    41   18   19 1   
    42   18   23 2   
    43   19   20 1   
    44   19   21 1   
    45   19   22 1   
    46   20   49 1   
    47   20   50 1   
    48   20   51 1   
    49   21   52 1   
    50   21   53 1   
    51   21   54 1   
    52   22   55 1   
    53   22   56 1   
    54   22   57 1   
    55   23   24 1   
    56   24   25 1   
    57   25   26 ar  
    58   25   27 ar  
    59   26   31 ar  
    60   26   58 1   
    61   27   28 ar  
    62   27   59 1   
    63   28   29 ar  
    64   28   60 1   
    65   29   30 1   
    66   29   31 ar  
    67   30   61 1   
    68   30   62 1   
    69   30   63 1   
    70   31   64 1   
@<TRIPOS>SUBSTRUCTURE
     1 0SO         1 TEMP              0 ****  ****    0 ROOT
