@<TRIPOS>MOLECULE
0SO
   68    69     1     0     0
SMALL
bcc


@<TRIPOS>ATOM
      1 O27         0.3750   -1.3110   -0.4960 o         1 0SO     -0.423000
      2 C25         1.2590   -0.5540   -0.1320 c         1 0SO      0.646100
      3 O26         1.4250    0.1450    0.9780 os        1 0SO     -0.422900
      4 C28         0.4070    0.0110    2.1060 c3        1 0SO      0.218800
      5 C31         1.0160    0.9480    3.1310 c3        1 0SO     -0.136433
      6 C30        -0.9290    0.4900    1.5930 c3        1 0SO     -0.136433
      7 C29         0.3940   -1.4280    2.5610 c3        1 0SO     -0.136433
      8 N24         2.4530   -0.2950   -1.0590 n4        1 0SO     -0.662800
      9 C23         2.0170   -0.2050   -2.4790 c3        1 0SO      0.107800
     10 C22         3.1800   -0.1840   -3.4700 c3        1 0SO     -0.134400
     11 C21         2.5950   -0.0890   -4.8790 c3        1 0SO      0.106800
     12 N19         3.6240    0.0060   -5.9470 n4        1 0SO     -0.689800
     13 C18         2.9230    0.3990   -7.3060 c         1 0SO      0.639100
     14 O20         2.6260    1.5890   -7.3210 o         1 0SO     -0.441100
     15 N17         2.6330   -0.6420   -8.1590 n         1 0SO     -0.334100
     16 C11         2.0630   -0.3390   -9.4110 cc        1 0SO     -0.136700
     17 C12         0.6900   -0.2990   -9.7520 cd        1 0SO     -0.185300
     18 C10         0.6740   -0.0330  -11.1690 cd        1 0SO      0.332600
     19 C13        -0.5440    0.0980  -12.0350 c3        1 0SO     -0.079300
     20 C16        -0.5030   -0.9570  -13.1350 c3        1 0SO     -0.091767
     21 C15        -1.7990   -0.1030  -11.1950 c3        1 0SO     -0.091767
     22 C14        -0.5760    1.4870  -12.6620 c3        1 0SO     -0.091767
     23 N9          1.9580    0.0910  -11.6370 nc        1 0SO     -0.417800
     24 N8          2.7880   -0.0680  -10.6100 na        1 0SO      0.182300
     25 C4          4.2130   -0.0310  -10.7160 ca        1 0SO     -0.045200
     26 C2          4.8780   -0.8810  -11.6190 ca        1 0SO     -0.120500
     27 C6          4.9500    0.8910   -9.9460 ca        1 0SO     -0.120500
     28 C5          6.3350    0.9350  -10.0670 ca        1 0SO     -0.125500
     29 C3          7.0070    0.0850  -10.9550 ca        1 0SO     -0.036300
     30 C7          8.4770    0.1630  -11.1060 c3        1 0SO     -0.072800
     31 C1          6.2650   -0.8190  -11.7260 ca        1 0SO     -0.125500
     32 H1          2.0360    0.6050    3.4280 hc        1 0SO      0.080367
     33 H2          1.0830    1.9880    2.7300 hc        1 0SO      0.080367
     34 H3          0.3570    0.9500    4.0350 hc        1 0SO      0.080367
     35 H4         -1.6560    0.5080    2.4440 hc        1 0SO      0.080367
     36 H5         -1.3280   -0.1960    0.8060 hc        1 0SO      0.080367
     37 H6         -0.8490    1.5240    1.1780 hc        1 0SO      0.080367
     38 H7         -0.0150   -2.0990    1.7650 hc        1 0SO      0.080367
     39 H8         -0.2640   -1.5140    3.4630 hc        1 0SO      0.080367
     40 H9          1.4200   -1.7670    2.8410 hc        1 0SO      0.080367
     41 H10         1.3450   -1.0930   -2.6870 hx        1 0SO      0.129700
     42 H11         3.7970   -1.1170   -3.3680 hc        1 0SO      0.086700
     43 H12         3.8480    0.6970   -3.2660 hc        1 0SO      0.086700
     44 H13         1.9550   -0.9950   -5.0950 hx        1 0SO      0.125700
     45 H14         1.9440    0.8340   -4.9600 hx        1 0SO      0.125700
     46 H15         4.1490   -0.8670   -6.0170 hn        1 0SO      0.456800
     47 H16         3.2080   -1.4640   -8.1420 hn        1 0SO      0.348500
     48 H17        -0.1660   -0.4510   -9.1020 ha        1 0SO      0.183000
     49 H18         0.3780   -0.7970  -13.8020 hc        1 0SO      0.047811
     50 H19        -1.4310   -0.8870  -13.7530 hc        1 0SO      0.047811
     51 H20        -0.4440   -1.9810  -12.6950 hc        1 0SO      0.047811
     52 H21        -2.7010   -0.0050  -11.8460 hc        1 0SO      0.047811
     53 H22        -1.8060   -1.1190  -10.7320 hc        1 0SO      0.047811
     54 H23        -1.8600    0.6660  -10.3880 hc        1 0SO      0.047811
     55 H24         0.3080    1.6400  -13.3270 hc        1 0SO      0.047811
     56 H25        -1.5030    1.5980  -13.2750 hc        1 0SO      0.047811
     57 H26        -0.5740    2.2740  -11.8710 hc        1 0SO      0.047811
     58 H27         4.3110   -1.5790  -12.2580 ha        1 0SO      0.150000
     59 H28         4.4360    1.6110   -9.2910 ha        1 0SO      0.150000
     60 H29         6.9080    1.6720   -9.4830 ha        1 0SO      0.155000
     61 H30         8.9570    0.6010  -10.1970 hc        1 0SO      0.064033
     62 H31         8.7310    0.8150  -11.9820 hc        1 0SO      0.064033
     63 H32         8.9160   -0.8490  -11.2900 hc        1 0SO      0.064033
     64 H33         6.7830   -1.4800  -12.4410 ha        1 0SO      0.155000
     65 H34         2.9200    0.5720   -0.7640 hn        1 0SO      0.469800
     66 H35         1.3980    0.7350   -2.5850 hx        1 0SO      0.129700
     67 H242        3.1100   -1.0750   -0.9390 hn        1 0SO      0.469800
     68 H192        4.2790    0.7680   -5.7320 hn        1 0SO      0.456800
@<TRIPOS>BOND
     1    1    2 2   
     2    2    3 1   
     3    2    8 1   
     4    3    4 1   
     5    4    5 1   
     6    4    6 1   
     7    4    7 1   
     8    5   32 1   
     9    5   33 1   
    10    5   34 1   
    11    6   35 1   
    12    6   36 1   
    13    6   37 1   
    14    7   38 1   
    15    7   39 1   
    16    7   40 1   
    17    8    9 1   
    18    8   65 1   
    19    8   67 1   
    20    9   10 1   
    21    9   41 1   
    22    9   66 1   
    23   10   11 1   
    24   10   42 1   
    25   10   43 1   
    26   11   12 1   
    27   11   44 1   
    28   11   45 1   
    29   12   13 1   
    30   12   46 1   
    31   12   68 1   
    32   13   14 2   
    33   13   15 1   
    34   15   16 1   
    35   15   47 1   
    36   16   17 2   
    37   16   24 1   
    38   17   18 1   
    39   17   48 1   
    40   18   19 1   
    41   18   23 2   
    42   19   20 1   
    43   19   21 1   
    44   19   22 1   
    45   20   49 1   
    46   20   50 1   
    47   20   51 1   
    48   21   52 1   
    49   21   53 1   
    50   21   54 1   
    51   22   55 1   
    52   22   56 1   
    53   22   57 1   
    54   23   24 1   
    55   24   25 1   
    56   25   26 ar  
    57   25   27 ar  
    58   26   31 ar  
    59   26   58 1   
    60   27   28 ar  
    61   27   59 1   
    62   28   29 ar  
    63   28   60 1   
    64   29   30 1   
    65   29   31 ar  
    66   30   61 1   
    67   30   62 1   
    68   30   63 1   
    69   31   64 1   
@<TRIPOS>SUBSTRUCTURE
     1 0SO         1 TEMP              0 ****  ****    0 ROOT
