@<TRIPOS>MOLECULE
0SO
   66    61     1     0     0
SMALL
bcc


@<TRIPOS>ATOM
      1 O27        -2.2740    0.5730    6.5400 o         1 0SO     -0.400000
      2 C25        -1.0610    0.5850    6.5210 c1        1 0SO      0.386000
      3 O26        -0.3310    0.4950    7.7390 o         1 0SO     -0.290000
      4 C28        -1.0950    0.8320    8.9020 c3        1 0SO      0.114000
      5 C31        -0.2160    0.7260   10.1310 c3        1 0SO     -0.231667
      6 C30        -1.6150    2.2570    8.7710 c3        1 0SO     -0.231667
      7 C29        -2.2750   -0.1310    9.0360 c3        1 0SO     -0.231667
      8 N24        -0.3560    0.6020    5.2540 n3        1 0SO     -0.326000
      9 C23        -1.0680    0.3170    4.0240 c3        1 0SO     -0.032000
     10 C22        -0.0510    0.0550    2.8880 c3        1 0SO     -0.232000
     11 C21        -0.7980   -0.0030    1.5250 c3        1 0SO     -0.039000
     12 N19         0.1680   -0.1510    0.4480 n         1 0SO     -0.339000
     13 C18        -0.2910   -0.2660   -0.9390 c2        1 0SO      0.367000
     14 O20        -1.4740   -0.4070   -1.1770 o         1 0SO     -0.363000
     15 N17         0.6760   -0.3090   -2.0200 n         1 0SO     -0.282000
     16 C11         0.2290   -0.5220   -3.3970 c2        1 0SO      0.050000
     17 C12        -1.0470   -0.8180   -3.7930 c1        1 0SO     -0.211000
     18 C10        -1.0470   -0.9380   -5.1600 c1        1 0SO     -0.091000
     19 C13        -2.2650   -1.2690   -6.0390 c2        1 0SO      0.019000
     20 C16        -1.9030   -1.0740   -7.4980 c3        1 0SO     -0.202333
     21 C15        -2.6770   -2.7040   -5.8100 c3        1 0SO     -0.202333
     22 C14        -3.4110   -0.3540   -5.6770 c3        1 0SO     -0.202333
     23 N9          0.2140   -0.7180   -5.5990 n2        1 0SO     -0.061000
     24 N8          1.0080   -0.4590   -4.5050 n2        1 0SO     -0.118000
     25 C4          2.3800   -0.0780   -4.5410 c1        1 0SO     -0.006500
     26 C2          2.7250    1.2650   -4.6000 c2        1 0SO     -0.114000
     27 C6          3.3700   -1.0490   -4.5200 c1        1 0SO     -0.138000
     28 C5          4.7050   -0.6780   -4.5580 c1        1 0SO     -0.138000
     29 C3          5.0510    0.6660   -4.6170 c1        1 0SO     -0.006500
     30 C7          6.5130    1.0700   -4.7470 c2        1 0SO     -0.182000
     31 C1          4.0600    1.6360   -4.6380 c2        1 0SO     -0.114000
     32 H1          0.5580    1.3210   10.0310 hc        1 0SO      0.091000
     33 H2          0.0920   -0.1970   10.2340 hc        1 0SO      0.091000
     34 H3         -0.7300    0.9890   10.9230 hc        1 0SO      0.091000
     35 H4         -0.9910    2.7830    8.2270 hc        1 0SO      0.091000
     36 H5         -1.6920    2.6620    9.6660 hc        1 0SO      0.091000
     37 H6         -2.4920    2.2450    8.3420 hc        1 0SO      0.091000
     38 H7         -1.9910   -1.0360    8.7790 hc        1 0SO      0.091000
     39 H8         -3.0020    0.1610    8.4500 hc        1 0SO      0.091000
     40 H9         -2.5880   -0.1390    9.9700 hc        1 0SO      0.091000
     41 H10        -1.6310    1.0820    3.7880 h1        1 0SO      0.110500
     42 H11         0.6090    0.7770    2.8680 hc        1 0SO      0.094500
     43 H12         0.4020   -0.7950    3.0460 hc        1 0SO      0.094500
     44 H13        -1.3070    0.8260    1.3960 h1        1 0SO      0.112500
     45 H14        -1.4100   -0.7640    1.5220 h1        1 0SO      0.112500
     46 H15         1.0600   -0.1760    0.6360 hn        1 0SO      0.205000
     47 H16         1.5640   -0.2040   -1.8400 hn        1 0SO      0.225000
     48 H17        -1.8060   -0.9870   -3.2030 DU        1 0SO      0.191000
     49 H18        -2.6790   -1.2900   -8.0580 hc        1 0SO      0.078556
     50 H19        -1.1570   -1.6640   -7.7310 hc        1 0SO      0.078556
     51 H20        -1.6410   -0.1420   -7.6480 hc        1 0SO      0.078556
     52 H21        -1.8860   -3.2830   -5.8630 hc        1 0SO      0.078556
     53 H22        -3.0830   -2.7880   -4.9280 hc        1 0SO      0.078556
     54 H23        -3.3260   -2.9720   -6.4960 hc        1 0SO      0.078556
     55 H24        -4.1450   -0.4780   -6.3190 hc        1 0SO      0.078556
     56 H25        -3.7250   -0.5670   -4.7770 hc        1 0SO      0.078556
     57 H26        -3.1070    0.5770   -5.7050 hc        1 0SO      0.078556
     58 H27         2.0270    1.9490   -4.6140 ha        1 0SO      0.148500
     59 H28         3.1270   -1.9940   -4.4780 ha        1 0SO      0.142000
     60 H29         5.4020   -1.3620   -4.5440 ha        1 0SO      0.142000
     61 H30         6.5890    1.8260   -5.3640 ha        1 0SO      0.087333
     62 H31         6.8600    1.3300   -3.8660 ha        1 0SO      0.087333
     63 H32         7.0330    0.3120   -5.0920 ha        1 0SO      0.087333
     64 H33         4.3030    2.5790   -4.6790 ha        1 0SO      0.148500
     65 H34         0.5460    0.7460    5.2360 hn        1 0SO      0.226000
     66 H35        -1.6280   -0.4740    4.1480 h1        1 0SO      0.110500
@<TRIPOS>BOND
     1    1    2 1   
     2    2    8 1   
     3    3    4 1   
     4    4    5 1   
     5    4    6 1   
     6    4    7 1   
     7    5   32 1   
     8    5   33 1   
     9    5   34 1   
    10    6   35 1   
    11    6   36 1   
    12    6   37 1   
    13    7   38 1   
    14    7   39 1   
    15    7   40 1   
    16    8    9 1   
    17    8   65 1   
    18    9   10 1   
    19    9   41 1   
    20    9   66 1   
    21   10   11 1   
    22   10   42 1   
    23   10   43 1   
    24   11   12 1   
    25   11   44 1   
    26   11   45 1   
    27   12   13 1   
    28   12   46 1   
    29   13   14 1   
    30   13   15 1   
    31   15   16 1   
    32   15   47 1   
    33   16   17 1   
    34   16   24 1   
    35   17   18 1   
    36   18   23 1   
    37   19   20 1   
    38   19   21 1   
    39   19   22 1   
    40   20   49 1   
    41   20   50 1   
    42   20   51 1   
    43   21   52 1   
    44   21   53 1   
    45   21   54 1   
    46   22   55 1   
    47   22   56 1   
    48   22   57 1   
    49   23   24 1   
    50   25   26 1   
    51   25   27 1   
    52   26   31 1   
    53   26   58 1   
    54   27   59 1   
    55   28   29 1   
    56   28   60 1   
    57   29   31 1   
    58   30   61 1   
    59   30   62 1   
    60   30   63 1   
    61   31   64 1   
@<TRIPOS>SUBSTRUCTURE
     1 0SO         1 TEMP              0 ****  ****    0 ROOT
