@<TRIPOS>MOLECULE
0SO
   66    67     1     0     0
SMALL
bcc


@<TRIPOS>ATOM
      1 O27        -6.5070   -0.4000   -1.0420 o         1 0SO     -0.587000
      2 C25        -6.4340   -0.3100    0.1950 c         1 0SO      0.732100
      3 O26        -7.2820    0.5090    0.9010 os        1 0SO     -0.452900
      4 C28        -8.4320    1.0900    0.2330 c3        1 0SO      0.185800
      5 C31        -9.1570    1.8050    1.3720 c3        1 0SO     -0.113767
      6 C30        -7.9870    2.0900   -0.8210 c3        1 0SO     -0.113767
      7 C29        -9.3170    0.0070   -0.3620 c3        1 0SO     -0.113767
      8 N24        -5.5770   -1.0110    1.0360 n         1 0SO     -0.518900
      9 C23        -4.3780   -1.5910    0.4910 c3        1 0SO      0.081000
     10 C22        -3.1690   -0.6530    0.4330 c3        1 0SO     -0.127400
     11 C21        -1.9700   -1.4370   -0.0990 c3        1 0SO      0.087000
     12 N19        -0.7890   -0.6160   -0.2200 n         1 0SO     -0.553900
     13 C18         0.4660   -1.2500   -0.2150 c         1 0SO      0.753100
     14 O20         0.5850   -2.4370    0.1630 o         1 0SO     -0.605100
     15 N17         1.5860   -0.4980   -0.6680 n         1 0SO     -0.428100
     16 C11         2.8760   -0.9160   -0.3230 cc        1 0SO      0.018300
     17 C12         3.3850   -2.2150   -0.1460 cd        1 0SO     -0.274300
     18 C10         4.7840   -2.0300    0.1950 cd        1 0SO      0.332600
     19 C13         5.7290   -3.1550    0.4850 c3        1 0SO     -0.076300
     20 C16         7.1350   -2.6550    0.7890 c3        1 0SO     -0.084767
     21 C15         5.2060   -3.9340    1.6880 c3        1 0SO     -0.084767
     22 C14         5.7810   -4.0740   -0.7320 c3        1 0SO     -0.084767
     23 N9          5.0960   -0.7070    0.2160 nc        1 0SO     -0.494800
     24 N8          3.9640   -0.0220   -0.0450 na        1 0SO      0.120300
     25 C4          3.9590    1.3720   -0.3350 ca        1 0SO      0.007800
     26 C2          4.4810    2.2800    0.6090 ca        1 0SO     -0.128000
     27 C6          3.4380    1.8610   -1.5490 ca        1 0SO     -0.128000
     28 C5          3.4080    3.2310   -1.7890 ca        1 0SO     -0.124000
     29 C3          3.9100    4.1370   -0.8490 ca        1 0SO     -0.074300
     30 C7          3.8920    5.5920   -1.1210 c3        1 0SO     -0.055800
     31 C1          4.4500    3.6460    0.3450 ca        1 0SO     -0.124000
     32 H1         -9.4580    1.0710    2.1570 hc        1 0SO      0.051922
     33 H2         -8.4890    2.5700    1.8330 hc        1 0SO      0.051922
     34 H3        -10.0670    2.3050    0.9660 hc        1 0SO      0.051922
     35 H4         -8.8750    2.6480   -1.2010 hc        1 0SO      0.051922
     36 H5         -7.2630    2.8150   -0.3790 hc        1 0SO      0.051922
     37 H6         -7.4940    1.5640   -1.6750 hc        1 0SO      0.051922
     38 H7         -9.5490   -0.7650    0.4090 hc        1 0SO      0.051922
     39 H8        -10.2710    0.4630   -0.7180 hc        1 0SO      0.051922
     40 H9         -8.8060   -0.4850   -1.2240 hc        1 0SO      0.051922
     41 H10        -4.1220   -2.4780    1.1390 h1        1 0SO      0.072700
     42 H11        -3.3970    0.2170   -0.2360 hc        1 0SO      0.054200
     43 H12        -2.9400   -0.2470    1.4530 hc        1 0SO      0.054200
     44 H13        -1.7380   -2.2900    0.6020 h1        1 0SO      0.060200
     45 H14        -2.2420   -1.8830   -1.1010 h1        1 0SO      0.060200
     46 H15        -0.9010    0.2140   -0.7560 hn        1 0SO      0.297500
     47 H16         1.4690    0.4910   -0.7550 hn        1 0SO      0.310500
     48 H17         2.8360   -3.1490   -0.2190 ha        1 0SO      0.192000
     49 H18         7.1290   -1.9900    1.6860 hc        1 0SO      0.039144
     50 H19         7.8050   -3.5240    0.9940 hc        1 0SO      0.039144
     51 H20         7.5450   -2.0840   -0.0780 hc        1 0SO      0.039144
     52 H21         4.1720   -4.3060    1.4900 hc        1 0SO      0.039144
     53 H22         5.8700   -4.8080    1.8910 hc        1 0SO      0.039144
     54 H23         5.1840   -3.2810    2.5930 hc        1 0SO      0.039144
     55 H24         6.1820   -3.5240   -1.6160 hc        1 0SO      0.039144
     56 H25         6.4450   -4.9460   -0.5190 hc        1 0SO      0.039144
     57 H26         4.7590   -4.4510   -0.9770 hc        1 0SO      0.039144
     58 H27         4.9210    1.9130    1.5500 ha        1 0SO      0.152500
     59 H28         3.0770    1.1680   -2.3260 ha        1 0SO      0.152500
     60 H29         2.9950    3.6040   -2.7390 ha        1 0SO      0.138000
     61 H30         3.7570    6.1730   -0.1750 hc        1 0SO      0.048033
     62 H31         4.8610    5.9030   -1.5870 hc        1 0SO      0.048033
     63 H32         3.0650    5.8600   -1.8230 hc        1 0SO      0.048033
     64 H33         4.8590    4.3480    1.0870 ha        1 0SO      0.138000
     65 H34        -5.5250   -0.6830    1.9760 hn        1 0SO      0.311500
     66 H35        -4.6050   -1.9630   -0.5500 h1        1 0SO      0.072700
@<TRIPOS>BOND
     1    1    2 2   
     2    2    3 1   
     3    2    8 1   
     4    3    4 1   
     5    4    5 1   
     6    4    6 1   
     7    4    7 1   
     8    5   32 1   
     9    5   33 1   
    10    5   34 1   
    11    6   35 1   
    12    6   36 1   
    13    6   37 1   
    14    7   38 1   
    15    7   39 1   
    16    7   40 1   
    17    8    9 1   
    18    8   65 1   
    19    9   10 1   
    20    9   41 1   
    21    9   66 1   
    22   10   11 1   
    23   10   42 1   
    24   10   43 1   
    25   11   12 1   
    26   11   44 1   
    27   11   45 1   
    28   12   13 1   
    29   12   46 1   
    30   13   14 2   
    31   13   15 1   
    32   15   16 1   
    33   15   47 1   
    34   16   17 2   
    35   16   24 1   
    36   17   18 1   
    37   17   48 1   
    38   18   19 1   
    39   18   23 2   
    40   19   20 1   
    41   19   21 1   
    42   19   22 1   
    43   20   49 1   
    44   20   50 1   
    45   20   51 1   
    46   21   52 1   
    47   21   53 1   
    48   21   54 1   
    49   22   55 1   
    50   22   56 1   
    51   22   57 1   
    52   23   24 1   
    53   24   25 1   
    54   25   26 ar  
    55   25   27 ar  
    56   26   31 ar  
    57   26   58 1   
    58   27   28 ar  
    59   27   59 1   
    60   28   29 ar  
    61   28   60 1   
    62   29   30 1   
    63   29   31 ar  
    64   30   61 1   
    65   30   62 1   
    66   30   63 1   
    67   31   64 1   
@<TRIPOS>SUBSTRUCTURE
     1 0SO         1 TEMP              0 ****  ****    0 ROOT
