@<TRIPOS>MOLECULE
0SO
   68    69     1     0     0
SMALL
bcc


@<TRIPOS>ATOM
      1 O27         0.3860   -1.3170   -0.5040 o         1 0SO     -0.423000
      2 C25         1.2640   -0.5540   -0.1360 c         1 0SO      0.646100
      3 O26         1.4230    0.1410    0.9770 os        1 0SO     -0.422900
      4 C28         0.4040   -0.0050    2.1030 c3        1 0SO      0.218800
      5 C31         1.0040    0.9330    3.1320 c3        1 0SO     -0.136433
      6 C30        -0.9350    0.4660    1.5890 c3        1 0SO     -0.136433
      7 C29         0.4010   -1.4460    2.5520 c3        1 0SO     -0.136433
      8 N24         2.4570   -0.2830   -1.0600 ny        1 0SO     -0.662800
      9 C23         2.0230   -0.1930   -2.4810 c3        1 0SO      0.107800
     10 C22         3.1880   -0.1610   -3.4690 c3        1 0SO     -0.134400
     11 C21         2.6050   -0.0690   -4.8800 c3        1 0SO      0.106800
     12 N19         3.6350    0.0350   -5.9460 ny        1 0SO     -0.689800
     13 C18         2.9330    0.4220   -7.3050 c         1 0SO      0.639100
     14 O20         2.6400    1.6130   -7.3280 o         1 0SO     -0.440100
     15 N17         2.6380   -0.6230   -8.1520 ns        1 0SO     -0.334100
     16 C11         2.0660   -0.3260   -9.4040 cc        1 0SO     -0.136700
     17 C12         0.6930   -0.2810   -9.7420 cd        1 0SO     -0.185300
     18 C10         0.6750   -0.0250  -11.1610 cd        1 0SO      0.332600
     19 C13        -0.5440    0.1060  -12.0250 c3        1 0SO     -0.079300
     20 C16        -0.5110   -0.9570  -13.1180 c3        1 0SO     -0.091767
     21 C15        -1.7980   -0.0810  -11.1810 c3        1 0SO     -0.091767
     22 C14        -0.5700    1.4910  -12.6630 c3        1 0SO     -0.091767
     23 N9          1.9590    0.0890  -11.6320 nc        1 0SO     -0.417800
     24 N8          2.7900   -0.0670  -10.6060 na        1 0SO      0.182300
     25 C4          4.2150   -0.0380  -10.7150 ca        1 0SO     -0.045200
     26 C2          4.8740   -0.8970  -11.6150 ca        1 0SO     -0.120500
     27 C6          4.9590    0.8850   -9.9530 ca        1 0SO     -0.120500
     28 C5          6.3430    0.9220  -10.0770 ca        1 0SO     -0.125500
     29 C3          7.0090    0.0620  -10.9610 ca        1 0SO     -0.036300
     30 C7          8.4790    0.1330  -11.1150 c3        1 0SO     -0.072800
     31 C1          6.2610   -0.8420  -11.7240 ca        1 0SO     -0.125500
     32 H1          0.3430    0.9270    4.0350 hc        1 0SO      0.080367
     33 H2          2.0260    0.5970    3.4300 hc        1 0SO      0.080367
     34 H3          1.0650    1.9750    2.7350 hc        1 0SO      0.080367
     35 H4         -1.3270   -0.2210    0.8000 hc        1 0SO      0.080367
     36 H5         -1.6630    0.4750    2.4400 hc        1 0SO      0.080367
     37 H6         -0.8620    1.5020    1.1780 hc        1 0SO      0.080367
     38 H7          1.4300   -1.7780    2.8330 hc        1 0SO      0.080367
     39 H8         -0.2570   -1.5400    3.4540 hc        1 0SO      0.080367
     40 H9         -0.0010   -2.1160    1.7540 hc        1 0SO      0.080367
     41 H10         1.3590   -1.0860   -2.6920 hx        1 0SO      0.129700
     42 H11         3.8120   -1.0900   -3.3680 hc        1 0SO      0.086700
     43 H12         3.8490    0.7250   -3.2630 hc        1 0SO      0.086700
     44 H13         1.9470    0.8500   -4.9600 hx        1 0SO      0.125700
     45 H14         1.9720   -0.9780   -5.0980 hx        1 0SO      0.125700
     46 H15         4.2820    0.8030   -5.7290 hn        1 0SO      0.456800
     47 H16         3.2110   -1.4460   -8.1310 hn        1 0SO      0.348500
     48 H17        -0.1620   -0.4240   -9.0900 ha        1 0SO      0.183000
     49 H18         0.3690   -0.8070  -13.7880 hc        1 0SO      0.047700
     50 H19        -0.4570   -1.9780  -12.6710 hc        1 0SO      0.047700
     51 H20        -1.4400   -0.8870  -13.7340 hc        1 0SO      0.047700
     52 H21        -1.8540    0.6940  -10.3800 hc        1 0SO      0.047700
     53 H22        -2.7010    0.0170  -11.8310 hc        1 0SO      0.047700
     54 H23        -1.8100   -1.0940  -10.7110 hc        1 0SO      0.047700
     55 H24        -1.4980    1.6030  -13.2740 hc        1 0SO      0.047700
     56 H25        -0.5610    2.2840  -11.8780 hc        1 0SO      0.047700
     57 H26         0.3130    1.6340  -13.3310 hc        1 0SO      0.047700
     58 H27         4.3030   -1.5950  -12.2490 ha        1 0SO      0.150000
     59 H28         4.4490    1.6120   -9.3000 ha        1 0SO      0.150000
     60 H29         6.9210    1.6590   -9.4980 ha        1 0SO      0.155000
     61 H30         8.9120   -0.8830  -11.2940 hc        1 0SO      0.064033
     62 H31         8.7350    0.7780  -11.9950 hc        1 0SO      0.064033
     63 H32         8.9630    0.5730  -10.2090 hc        1 0SO      0.064033
     64 H33         6.7740   -1.5100  -12.4370 ha        1 0SO      0.155000
     65 H34         3.1210   -1.0580   -0.9400 hn        1 0SO      0.469800
     66 H35         1.3970    0.7430   -2.5860 hx        1 0SO      0.129700
     67 H242        2.9170    0.5870   -0.7620 hn        1 0SO      0.469800
     68 H192        4.1680   -0.8320   -6.0140 hn        1 0SO      0.456800
@<TRIPOS>BOND
     1    1    2 2   
     2    2    3 1   
     3    2    8 1   
     4    3    4 1   
     5    4    5 1   
     6    4    6 1   
     7    4    7 1   
     8    5   32 1   
     9    5   33 1   
    10    5   34 1   
    11    6   35 1   
    12    6   36 1   
    13    6   37 1   
    14    7   38 1   
    15    7   39 1   
    16    7   40 1   
    17    8    9 1   
    18    8   65 1   
    19    8   67 1   
    20    9   10 1   
    21    9   41 1   
    22    9   66 1   
    23   10   11 1   
    24   10   42 1   
    25   10   43 1   
    26   11   12 1   
    27   11   44 1   
    28   11   45 1   
    29   12   13 1   
    30   12   46 1   
    31   12   68 1   
    32   13   14 2   
    33   13   15 1   
    34   15   16 1   
    35   15   47 1   
    36   16   17 2   
    37   16   24 1   
    38   17   18 1   
    39   17   48 1   
    40   18   19 1   
    41   18   23 2   
    42   19   20 1   
    43   19   21 1   
    44   19   22 1   
    45   20   49 1   
    46   20   50 1   
    47   20   51 1   
    48   21   52 1   
    49   21   53 1   
    50   21   54 1   
    51   22   55 1   
    52   22   56 1   
    53   22   57 1   
    54   23   24 1   
    55   24   25 1   
    56   25   26 ar  
    57   25   27 ar  
    58   26   31 ar  
    59   26   58 1   
    60   27   28 ar  
    61   27   59 1   
    62   28   29 ar  
    63   28   60 1   
    64   29   30 1   
    65   29   31 ar  
    66   30   61 1   
    67   30   62 1   
    68   30   63 1   
    69   31   64 1   
@<TRIPOS>SUBSTRUCTURE
     1 0SO         1 TEMP              0 ****  ****    0 ROOT
