@<TRIPOS>MOLECULE
0SQ
   40    34     1     0     0
SMALL
bcc


@<TRIPOS>ATOM
      1 O14        -0.3940    2.1380    2.9700 o         1 0SQ     -0.368000
      2 C12         0.6190    1.4750    3.0640 c1        1 0SQ      0.374000
      3 N13         1.3580    1.4770    4.2750 n2        1 0SQ     -0.408000
      4 N11         1.1010    0.7530    1.9410 n3        1 0SQ     -0.282000
      5 C1          0.3980    0.8060    0.7080 c2        1 0SQ      0.051000
      6 C3         -0.0270    1.9380    0.0760 c1        1 0SQ     -0.211000
      7 C5         -0.6000    1.5700   -1.1070 c1        1 0SQ     -0.090000
      8 C6         -1.1560    2.5080   -2.1550 c2        1 0SQ      0.019000
      9 C9         -1.5520    1.7160   -3.3810 c3        1 0SQ     -0.202667
     10 C8         -0.1010    3.5250   -2.5310 c3        1 0SQ     -0.202667
     11 C7         -2.3690    3.2210   -1.6010 c3        1 0SQ     -0.202667
     12 N4         -0.5280    0.2260   -1.2030 n2        1 0SQ     -0.062000
     13 N2          0.0920   -0.2490   -0.0760 n2        1 0SQ     -0.119000
     14 C10         0.3380   -1.6120    0.2280 c1        1 0SQ      0.054000
     15 C19        -0.6220   -2.3580    0.8940 c1        1 0SQ     -0.138000
     16 C18        -0.3760   -3.6870    1.2010 c1        1 0SQ     -0.138000
     17 C17         0.8290   -4.2700    0.8430 c1        1 0SQ     -0.067000
     18 C20         1.1170   -5.7060    1.2210 c3        1 0SQ     -0.181000
     19 C15         1.7890   -3.5240    0.1770 c1        1 0SQ     -0.124000
     20 C16         1.5430   -2.1950   -0.1300 c1        1 0SQ     -0.104000
     21 H1          1.9380    0.7940    4.4580 hn        1 0SQ      0.219500
     22 H2          1.2750    2.1740    4.8600 hn        1 0SQ      0.219500
     23 H3          1.8550    0.2450    2.0140 hn        1 0SQ      0.225000
     24 H4          0.0340    2.8480    0.4250 DU        1 0SQ      0.192000
     25 H5         -1.7980    2.3320   -4.1030 hc        1 0SQ      0.078333
     26 H6         -2.3180    1.1420   -3.1660 hc        1 0SQ      0.078333
     27 H7         -0.7980    1.1600   -3.6690 hc        1 0SQ      0.078333
     28 H8         -0.3890    4.0140   -3.3300 hc        1 0SQ      0.078333
     29 H9          0.7440    3.0660   -2.7160 hc        1 0SQ      0.078333
     30 H10         0.0240    4.1550   -1.7910 hc        1 0SQ      0.078333
     31 H11        -3.0310    2.5600   -1.3080 hc        1 0SQ      0.078333
     32 H12        -2.1030    3.7760   -0.8390 hc        1 0SQ      0.078333
     33 H13        -2.7610    3.7890   -2.2970 hc        1 0SQ      0.078333
     34 H14        -1.4700   -1.9470    1.1470 ha        1 0SQ      0.142000
     35 H15        -1.0520   -4.2120    1.6700 ha        1 0SQ      0.142000
     36 H16         1.9590   -5.9900    0.8080 hc        1 0SQ      0.087000
     37 H17         0.3880   -6.2790    0.9050 hc        1 0SQ      0.087000
     38 H18         1.1890   -5.7780    2.1960 hc        1 0SQ      0.087000
     39 H19         2.6380   -3.9340   -0.0760 ha        1 0SQ      0.139000
     40 H20         2.2190   -1.6690   -0.5990 ha        1 0SQ      0.157000
@<TRIPOS>BOND
     1    1    2 1   
     2    2    4 1   
     3    3   21 1   
     4    3   22 1   
     5    4    5 1   
     6    4   23 1   
     7    5    6 1   
     8    5   13 1   
     9    6    7 1   
    10    7   12 1   
    11    8    9 1   
    12    8   10 1   
    13    8   11 1   
    14    9   25 1   
    15    9   26 1   
    16    9   27 1   
    17   10   28 1   
    18   10   29 1   
    19   10   30 1   
    20   11   31 1   
    21   11   32 1   
    22   11   33 1   
    23   12   13 1   
    24   14   20 1   
    25   15   16 1   
    26   15   34 1   
    27   16   35 1   
    28   17   18 1   
    29   17   19 1   
    30   18   36 1   
    31   18   37 1   
    32   18   38 1   
    33   19   39 1   
    34   20   40 1   
@<TRIPOS>SUBSTRUCTURE
     1 0SQ         1 TEMP              0 ****  ****    0 ROOT
