@<TRIPOS>MOLECULE
0SQ
   41    42     1     0     0
SMALL
bcc


@<TRIPOS>ATOM
      1 O14         0.4080    0.3900    0.3700 o         1 0SQ     -0.445100
      2 C12         1.4550   -0.1430    0.0070 c         1 0SQ      0.625100
      3 N13         2.4390   -0.3560    1.1830 n4        1 0SQ     -0.761400
      4 N11         1.8060   -0.7070   -1.2020 n         1 0SQ     -0.344100
      5 C1          1.0440   -0.3840   -2.3400 cc        1 0SQ     -0.099700
      6 C3         -0.3490   -0.4880   -2.5390 cd        1 0SQ     -0.199300
      7 C5         -0.5540   -0.0790   -3.9120 cd        1 0SQ      0.338600
      8 C6         -1.8720   -0.0080   -4.6230 c3        1 0SQ     -0.079300
      9 C9         -2.9890   -0.4530   -3.6880 c3        1 0SQ     -0.091433
     10 C8         -2.1330    1.4270   -5.0690 c3        1 0SQ     -0.091433
     11 C7         -1.8440   -0.9220   -5.8430 c3        1 0SQ     -0.091433
     12 N4          0.6430    0.2460   -4.4880 nc        1 0SQ     -0.438800
     13 N2          1.5950    0.1300   -3.5580 na        1 0SQ      0.172300
     14 C10         2.9960    0.1610   -3.8370 ca        1 0SQ     -0.033200
     15 C19         3.8520    0.9170   -3.0100 ca        1 0SQ     -0.125500
     16 C18         5.2150    0.9550   -3.2780 ca        1 0SQ     -0.121000
     17 C17         5.7530    0.2600   -4.3690 ca        1 0SQ     -0.043300
     18 C20         7.2020    0.3270   -4.6640 c3        1 0SQ     -0.068800
     19 C15         4.8960   -0.4750   -5.1960 ca        1 0SQ     -0.121000
     20 C16         3.5270   -0.5300   -4.9420 ca        1 0SQ     -0.125500
     21 H1          1.9960    0.0390    2.0240 hn        1 0SQ      0.468800
     22 H2          3.3230    0.1260    1.0120 hn        1 0SQ      0.468800
     23 H3          2.7670   -0.9400   -1.3790 hn        1 0SQ      0.348500
     24 H4         -1.1050   -0.7920   -1.8220 ha        1 0SQ      0.190000
     25 H5         -3.0440    0.2130   -2.7940 hc        1 0SQ      0.046589
     26 H6         -3.9670   -0.4030   -4.2260 hc        1 0SQ      0.046589
     27 H7         -2.8250   -1.5040   -3.3510 hc        1 0SQ      0.046589
     28 H8         -2.1260    2.1160   -4.1920 hc        1 0SQ      0.046589
     29 H9         -3.1320    1.4880   -5.5640 hc        1 0SQ      0.046589
     30 H10        -1.3550    1.7610   -5.7970 hc        1 0SQ      0.046589
     31 H11        -1.6180   -1.9720   -5.5380 hc        1 0SQ      0.046589
     32 H12        -2.8410   -0.9030   -6.3460 hc        1 0SQ      0.046589
     33 H13        -1.0710   -0.5830   -6.5720 hc        1 0SQ      0.046589
     34 H14         3.4460    1.5240   -2.1870 ha        1 0SQ      0.146500
     35 H15         5.8780    1.5590   -2.6390 ha        1 0SQ      0.152000
     36 H16         7.5710   -0.6460   -5.0740 hc        1 0SQ      0.061367
     37 H17         7.3950    1.1220   -5.4290 hc        1 0SQ      0.061367
     38 H18         7.7920    0.5730   -3.7470 hc        1 0SQ      0.061367
     39 H19         5.3060   -1.0130   -6.0660 ha        1 0SQ      0.152000
     40 H20         2.8700   -1.1010   -5.6190 ha        1 0SQ      0.146500
     41 H133        2.6180   -1.3510    1.3370 hn        1 0SQ      0.468800
@<TRIPOS>BOND
     1    1    2 2   
     2    2    3 1   
     3    2    4 1   
     4    3   21 1   
     5    3   22 1   
     6    3   41 1   
     7    4    5 1   
     8    4   23 1   
     9    5    6 2   
    10    5   13 1   
    11    6    7 1   
    12    6   24 1   
    13    7    8 1   
    14    7   12 2   
    15    8    9 1   
    16    8   10 1   
    17    8   11 1   
    18    9   25 1   
    19    9   26 1   
    20    9   27 1   
    21   10   28 1   
    22   10   29 1   
    23   10   30 1   
    24   11   31 1   
    25   11   32 1   
    26   11   33 1   
    27   12   13 1   
    28   13   14 1   
    29   14   15 ar  
    30   14   20 ar  
    31   15   16 ar  
    32   15   34 1   
    33   16   17 ar  
    34   16   35 1   
    35   17   18 1   
    36   17   19 ar  
    37   18   36 1   
    38   18   37 1   
    39   18   38 1   
    40   19   20 ar  
    41   19   39 1   
    42   20   40 1   
@<TRIPOS>SUBSTRUCTURE
     1 0SQ         1 TEMP              0 ****  ****    0 ROOT
