@<TRIPOS>MOLECULE
0SQ
   41    42     1     0     0
SMALL
bcc


@<TRIPOS>ATOM
      1 O14         0.3950    0.3960    0.3680 o         1 0SQ     -0.445100
      2 C12         1.4490   -0.1240    0.0090 c         1 0SQ      0.625100
      3 N13         2.4330   -0.3200    1.1880 nz        1 0SQ     -0.761400
      4 N11         1.8100   -0.6870   -1.1970 ns        1 0SQ     -0.344100
      5 C1          1.0460   -0.3770   -2.3380 cc        1 0SQ     -0.099700
      6 C3         -0.3450   -0.4920   -2.5380 cd        1 0SQ     -0.199300
      7 C5         -0.5520   -0.0930   -3.9130 cd        1 0SQ      0.338600
      8 C6         -1.8700   -0.0360   -4.6260 c3        1 0SQ     -0.079300
      9 C9         -2.9850   -0.4840   -3.6890 c3        1 0SQ     -0.091433
     10 C8         -2.1410    1.3930   -5.0820 c3        1 0SQ     -0.091433
     11 C7         -1.8340   -0.9590   -5.8390 c3        1 0SQ     -0.091433
     12 N4          0.6430    0.2370   -4.4900 nc        1 0SQ     -0.438800
     13 N2          1.5950    0.1340   -3.5590 na        1 0SQ      0.172300
     14 C10         2.9960    0.1720   -3.8360 ca        1 0SQ     -0.033200
     15 C19         3.8450    0.9400   -3.0130 ca        1 0SQ     -0.125500
     16 C18         5.2090    0.9860   -3.2810 ca        1 0SQ     -0.121000
     17 C17         5.7530    0.2880   -4.3670 ca        1 0SQ     -0.043300
     18 C20         7.2010    0.3630   -4.6610 c3        1 0SQ     -0.068800
     19 C15         4.9010   -0.4590   -5.1900 ca        1 0SQ     -0.121000
     20 C16         3.5330   -0.5220   -4.9370 ca        1 0SQ     -0.125500
     21 H1          1.9830    0.0710    2.0270 hn        1 0SQ      0.469133
     22 H2          2.6260   -1.3130    1.3460 hn        1 0SQ      0.469133
     23 H3          2.7740   -0.9090   -1.3710 hn        1 0SQ      0.348500
     24 H4         -1.1000   -0.7970   -1.8190 ha        1 0SQ      0.190000
     25 H5         -3.0450    0.1870   -2.7990 hc        1 0SQ      0.046589
     26 H6         -3.9620   -0.4440   -4.2280 hc        1 0SQ      0.046589
     27 H7         -2.8130   -1.5320   -3.3450 hc        1 0SQ      0.046589
     28 H8         -2.1400    2.0880   -4.2090 hc        1 0SQ      0.046589
     29 H9         -3.1400    1.4440   -5.5780 hc        1 0SQ      0.046589
     30 H10        -1.3650    1.7280   -5.8110 hc        1 0SQ      0.046589
     31 H11        -1.0630   -0.6190   -6.5710 hc        1 0SQ      0.046589
     32 H12        -2.8300   -0.9510   -6.3440 hc        1 0SQ      0.046589
     33 H13        -1.6010   -2.0050   -5.5280 hc        1 0SQ      0.046589
     34 H14         3.4350    1.5490   -2.1950 ha        1 0SQ      0.146500
     35 H15         5.8670    1.5980   -2.6450 ha        1 0SQ      0.152000
     36 H16         7.5780   -0.6100   -5.0650 hc        1 0SQ      0.061367
     37 H17         7.3900    1.1550   -5.4310 hc        1 0SQ      0.061367
     38 H18         7.7890    0.6200   -3.7460 hc        1 0SQ      0.061367
     39 H19         5.3160   -0.9990   -6.0560 ha        1 0SQ      0.152000
     40 H20         2.8810   -1.1020   -5.6110 ha        1 0SQ      0.146500
     41 H133        3.3110    0.1730    1.0170 hn        1 0SQ      0.469133
@<TRIPOS>BOND
     1    1    2 2   
     2    2    3 1   
     3    2    4 1   
     4    3   21 1   
     5    3   22 1   
     6    3   41 1   
     7    4    5 1   
     8    4   23 1   
     9    5    6 2   
    10    5   13 1   
    11    6    7 1   
    12    6   24 1   
    13    7    8 1   
    14    7   12 2   
    15    8    9 1   
    16    8   10 1   
    17    8   11 1   
    18    9   25 1   
    19    9   26 1   
    20    9   27 1   
    21   10   28 1   
    22   10   29 1   
    23   10   30 1   
    24   11   31 1   
    25   11   32 1   
    26   11   33 1   
    27   12   13 1   
    28   13   14 1   
    29   14   15 ar  
    30   14   20 ar  
    31   15   16 ar  
    32   15   34 1   
    33   16   17 ar  
    34   16   35 1   
    35   17   18 1   
    36   17   19 ar  
    37   18   36 1   
    38   18   37 1   
    39   18   38 1   
    40   19   20 ar  
    41   19   39 1   
    42   20   40 1   
@<TRIPOS>SUBSTRUCTURE
     1 0SQ         1 TEMP              0 ****  ****    0 ROOT
