@<TRIPOS>MOLECULE
0SQ
   40    41     1     0     0
SMALL
bcc


@<TRIPOS>ATOM
      1 O14        -1.8740   -3.3000   -0.5030 o         1 0SQ     -0.607100
      2 C12        -0.6360   -3.2830   -0.3220 c         1 0SQ      0.747100
      3 N13         0.1180   -4.4310   -0.5930 n         1 0SQ     -0.647000
      4 N11         0.0390   -2.1340    0.1730 n         1 0SQ     -0.428100
      5 C1         -0.5930   -0.8870    0.1110 cc        1 0SQ      0.019300
      6 C3         -1.9580   -0.5640    0.2140 cd        1 0SQ     -0.275300
      7 C5         -2.0150    0.8810    0.0890 cd        1 0SQ      0.332600
      8 C6         -3.2850    1.6740    0.1300 c3        1 0SQ     -0.075300
      9 C9         -4.1810    1.2190   -1.0180 c3        1 0SQ     -0.084767
     10 C8         -3.9850    1.4060    1.4580 c3        1 0SQ     -0.084767
     11 C7         -3.0280    3.1690   -0.0030 c3        1 0SQ     -0.084767
     12 N4         -0.7660    1.3920   -0.0720 nc        1 0SQ     -0.494800
     13 N2          0.0930    0.3530   -0.1040 na        1 0SQ      0.120300
     14 C10         1.5060    0.5190   -0.0440 ca        1 0SQ      0.009800
     15 C19         2.2670   -0.0940    0.9710 ca        1 0SQ     -0.128500
     16 C18         3.6500    0.0520    0.9850 ca        1 0SQ     -0.124000
     17 C17         4.3010    0.8210    0.0150 ca        1 0SQ     -0.074300
     18 C20         5.7750    0.9640    0.0290 c3        1 0SQ     -0.055800
     19 C15         3.5390    1.4530   -0.9750 ca        1 0SQ     -0.124000
     20 C16         2.1560    1.3110   -1.0120 ca        1 0SQ     -0.128500
     21 H1         -0.4210   -5.2560   -0.7220 hn        1 0SQ      0.306000
     22 H2          1.0050   -4.5480   -0.1690 hn        1 0SQ      0.306000
     23 H3          1.0340   -2.1120    0.0700 hn        1 0SQ      0.311500
     24 H4         -2.7880   -1.2550    0.3280 ha        1 0SQ      0.192000
     25 H5         -4.3780    0.1220   -0.9450 hc        1 0SQ      0.039144
     26 H6         -5.1540    1.7640   -0.9760 hc        1 0SQ      0.039144
     27 H7         -3.6920    1.4300   -1.9980 hc        1 0SQ      0.039144
     28 H8         -3.3510    1.7530    2.3080 hc        1 0SQ      0.039144
     29 H9         -4.9580    1.9520    1.4890 hc        1 0SQ      0.039144
     30 H10        -4.1820    0.3130    1.5800 hc        1 0SQ      0.039144
     31 H11        -2.5280    3.3970   -0.9740 hc        1 0SQ      0.039144
     32 H12        -3.9980    3.7210    0.0370 hc        1 0SQ      0.039144
     33 H13        -2.3770    3.5310    0.8290 hc        1 0SQ      0.039144
     34 H14         1.7760   -0.6690    1.7730 ha        1 0SQ      0.152000
     35 H15         4.2370   -0.4330    1.7800 ha        1 0SQ      0.138000
     36 H16         6.2370    0.2140   -0.6620 hc        1 0SQ      0.047700
     37 H17         6.0790    1.9850   -0.3090 hc        1 0SQ      0.047700
     38 H18         6.1860    0.7940    1.0550 hc        1 0SQ      0.047700
     39 H19         4.0400    2.0740   -1.7340 ha        1 0SQ      0.138000
     40 H20         1.5730    1.8250   -1.7930 ha        1 0SQ      0.152000
@<TRIPOS>BOND
     1    1    2 2   
     2    2    3 1   
     3    2    4 1   
     4    3   21 1   
     5    3   22 1   
     6    4    5 1   
     7    4   23 1   
     8    5    6 2   
     9    5   13 1   
    10    6    7 1   
    11    6   24 1   
    12    7    8 1   
    13    7   12 2   
    14    8    9 1   
    15    8   10 1   
    16    8   11 1   
    17    9   25 1   
    18    9   26 1   
    19    9   27 1   
    20   10   28 1   
    21   10   29 1   
    22   10   30 1   
    23   11   31 1   
    24   11   32 1   
    25   11   33 1   
    26   12   13 1   
    27   13   14 1   
    28   14   15 ar  
    29   14   20 ar  
    30   15   16 ar  
    31   15   34 1   
    32   16   17 ar  
    33   16   35 1   
    34   17   18 1   
    35   17   19 ar  
    36   18   36 1   
    37   18   37 1   
    38   18   38 1   
    39   19   20 ar  
    40   19   39 1   
    41   20   40 1   
@<TRIPOS>SUBSTRUCTURE
     1 0SQ         1 TEMP              0 ****  ****    0 ROOT
