@<TRIPOS>MOLECULE
0SQ
   42    43     1     0     0
SMALL
bcc


@<TRIPOS>ATOM
      1 O14         2.4460   -1.7560    0.6830 o         1 0SQ     -0.279100
      2 C12         2.1770   -1.1640   -0.3470 c         1 0SQ      0.476100
      3 N13         2.3290    0.3160   -0.4320 n4        1 0SQ     -0.721400
      4 N11         1.6860   -1.8910   -1.5710 n4        1 0SQ     -0.433200
      5 C1          0.9530   -1.0580   -2.4750 cc        1 0SQ     -0.283700
      6 C3         -0.4480   -1.0300   -2.7300 cd        1 0SQ     -0.134300
      7 C5         -0.5980   -0.0790   -3.7970 cd        1 0SQ      0.358600
      8 C6         -1.8870    0.3240   -4.4600 c3        1 0SQ     -0.086300
      9 C9         -3.0490   -0.4150   -3.8080 c3        1 0SQ     -0.099767
     10 C8         -2.0880    1.8270   -4.3060 c3        1 0SQ     -0.099767
     11 C7         -1.8220   -0.0360   -5.9410 c3        1 0SQ     -0.099767
     12 N4          0.6370    0.4250   -4.1540 nc        1 0SQ     -0.354800
     13 N2          1.5560   -0.1330   -3.3860 na        1 0SQ      0.196300
     14 C10         2.9750    0.0300   -3.4990 ca        1 0SQ     -0.148200
     15 C19         3.5440    1.3150   -3.3620 ca        1 0SQ     -0.138000
     16 C18         4.9160    1.4760   -3.5290 ca        1 0SQ     -0.113500
     17 C17         5.7390    0.3890   -3.8580 ca        1 0SQ      0.012700
     18 C20         7.1860    0.5810   -4.0860 c3        1 0SQ     -0.093800
     19 C15         5.1570   -0.8820   -4.0140 ca        1 0SQ     -0.113500
     20 C16         3.7890   -1.0670   -3.8560 ca        1 0SQ     -0.138000
     21 H1          2.9980    0.5830   -1.1890 hn        1 0SQ      0.516133
     22 H2          1.4160    0.7600   -0.6300 hn        1 0SQ      0.516133
     23 H3          1.0650   -2.6660   -1.2520 hn        1 0SQ      0.523300
     24 H4         -1.2410   -1.5960   -2.2400 ha        1 0SQ      0.216000
     25 H5         -2.9360   -1.5190   -3.9280 hc        1 0SQ      0.058256
     26 H6         -3.1230   -0.1650   -2.7230 hc        1 0SQ      0.058256
     27 H7         -4.0030   -0.1070   -4.3040 hc        1 0SQ      0.058256
     28 H8         -3.0660    2.1150   -4.7670 hc        1 0SQ      0.058256
     29 H9         -2.1090    2.1160   -3.2290 hc        1 0SQ      0.058256
     30 H10        -1.2780    2.3940   -4.8240 hc        1 0SQ      0.058256
     31 H11        -2.7970    0.2220   -6.4240 hc        1 0SQ      0.058256
     32 H12        -1.0130    0.5350   -6.4550 hc        1 0SQ      0.058256
     33 H13        -1.6400   -1.1290   -6.0740 hc        1 0SQ      0.058256
     34 H14         2.9090    2.2040   -3.2050 ha        1 0SQ      0.162500
     35 H15         5.3580    2.4860   -3.4410 ha        1 0SQ      0.185500
     36 H16         7.5810    1.4480   -3.4990 hc        1 0SQ      0.087033
     37 H17         7.7680   -0.3340   -3.8120 hc        1 0SQ      0.087033
     38 H18         7.3670    0.7920   -5.1750 hc        1 0SQ      0.087033
     39 H19         5.7930   -1.7370   -4.3080 ha        1 0SQ      0.185500
     40 H20         3.3500   -2.0520   -4.0880 ha        1 0SQ      0.162500
     41 H133        2.6840    0.6630    0.4800 hn        1 0SQ      0.516133
     42 H112        2.5210   -2.2980   -2.0490 hn        1 0SQ      0.523300
@<TRIPOS>BOND
     1    1    2 2   
     2    2    3 1   
     3    2    4 1   
     4    3   21 1   
     5    3   22 1   
     6    3   41 1   
     7    4    5 1   
     8    4   23 1   
     9    4   42 1   
    10    5    6 2   
    11    5   13 1   
    12    6    7 1   
    13    6   24 1   
    14    7    8 1   
    15    7   12 2   
    16    8    9 1   
    17    8   10 1   
    18    8   11 1   
    19    9   25 1   
    20    9   26 1   
    21    9   27 1   
    22   10   28 1   
    23   10   29 1   
    24   10   30 1   
    25   11   31 1   
    26   11   32 1   
    27   11   33 1   
    28   12   13 1   
    29   13   14 1   
    30   14   15 ar  
    31   14   20 ar  
    32   15   16 ar  
    33   15   34 1   
    34   16   17 ar  
    35   16   35 1   
    36   17   18 1   
    37   17   19 ar  
    38   18   36 1   
    39   18   37 1   
    40   18   38 1   
    41   19   20 ar  
    42   19   39 1   
    43   20   40 1   
@<TRIPOS>SUBSTRUCTURE
     1 0SQ         1 TEMP              0 ****  ****    0 ROOT
