@<TRIPOS>MOLECULE
0SR
   64    66     1     0     0
SMALL
bcc


@<TRIPOS>ATOM
      1 O28         5.2950    1.3360    0.1970 o         1 0SR     -0.303100
      2 C17         4.1000    1.5290    0.3520 c         1 0SR      0.477100
      3 N16         3.6070    2.1190    1.6530 n4        1 0SR     -0.448200
      4 C10         2.2310    1.8310    1.9270 cc        1 0SR     -0.280700
      5 C11         1.0710    2.5420    1.4860 cd        1 0SR     -0.220300
      6 C9         -0.0220    1.8580    2.1010 cd        1 0SR      0.365600
      7 C12        -1.4810    2.1930    1.9800 c3        1 0SR     -0.087300
      8 C15        -1.6560    3.3920    1.0580 c3        1 0SR     -0.097433
      9 C14        -2.2330    0.9970    1.4100 c3        1 0SR     -0.097433
     10 C13        -2.0340    2.5330    3.3610 c3        1 0SR     -0.097433
     11 N8          0.4600    0.8090    2.8740 nc        1 0SR     -0.370800
     12 N7          1.7700    0.7870    2.7820 na        1 0SR      0.268300
     13 C4          2.6540   -0.0850    3.5050 ca        1 0SR     -0.121200
     14 C2          3.6370    0.4690    4.3560 ca        1 0SR     -0.117500
     15 C6          2.4920   -1.4790    3.4210 ca        1 0SR     -0.117500
     16 C5          3.3430   -2.3080    4.1490 ca        1 0SR     -0.112000
     17 C3          4.3410   -1.7750    4.9730 ca        1 0SR      0.004700
     18 C29         5.2170   -2.6630    5.7680 c3        1 0SR     -0.087800
     19 C1          4.4750   -0.3780    5.0670 ca        1 0SR     -0.112000
     20 N18         3.1070    1.2030   -0.7030 n4        1 0SR     -0.643800
     21 C19         3.4710   -0.0750   -1.4420 c3        1 0SR      0.121800
     22 C20         2.5240   -0.3060   -2.6050 c3        1 0SR     -0.137400
     23 C21         2.9730   -1.5940   -3.3420 c3        1 0SR      0.203800
     24 N22         2.1250   -1.8320   -4.4860 n3        1 0SR     -0.754600
     25 C27         1.0660   -2.8010   -4.2350 c3        1 0SR      0.138800
     26 C26         0.1900   -3.0460   -5.4730 c3        1 0SR      0.125400
     27 O24         0.9840   -3.3750   -6.6040 os        1 0SR     -0.388600
     28 C23         1.9240   -2.3550   -6.9100 c3        1 0SR      0.125400
     29 C25         2.8580   -2.0850   -5.7220 c3        1 0SR      0.138800
     30 H1          3.7290    3.1490    1.6110 hn        1 0SR      0.517800
     31 H2          1.0180    3.4350    0.8670 ha        1 0SR      0.201000
     32 H3         -2.7450    3.6310    0.9660 hc        1 0SR      0.056256
     33 H4         -1.1370    4.2910    1.4700 hc        1 0SR      0.056256
     34 H5         -1.2590    3.1720    0.0380 hc        1 0SR      0.056256
     35 H6         -1.8260    0.7130    0.4110 hc        1 0SR      0.056256
     36 H7         -2.1660    0.1190    2.0960 hc        1 0SR      0.056256
     37 H8         -3.3130    1.2640    1.2880 hc        1 0SR      0.056256
     38 H9         -1.9720    1.6510    4.0430 hc        1 0SR      0.056256
     39 H10        -3.1080    2.8290    3.2650 hc        1 0SR      0.056256
     40 H11        -1.4710    3.3840    3.8130 hc        1 0SR      0.056256
     41 H12         3.6960    1.5560    4.5340 ha        1 0SR      0.155000
     42 H13         1.6870   -1.9240    2.8140 ha        1 0SR      0.155000
     43 H14         3.2110   -3.4030    4.0890 ha        1 0SR      0.177500
     44 H15         4.7570   -2.8370    6.7770 hc        1 0SR      0.080367
     45 H16         5.3470   -3.6560    5.2710 hc        1 0SR      0.080367
     46 H17         6.2260   -2.2050    5.9230 hc        1 0SR      0.080367
     47 H18         5.2380    0.0490    5.7410 ha        1 0SR      0.177500
     48 H19         3.0930    1.9790   -1.3880 hn        1 0SR      0.497300
     49 H20         3.4140   -0.9210   -0.6990 hx        1 0SR      0.123700
     50 H21         4.5350    0.0340   -1.8060 hx        1 0SR      0.123700
     51 H22         1.4690   -0.4360   -2.2490 hc        1 0SR      0.085700
     52 H23         2.5510    0.5530   -3.3280 hc        1 0SR      0.085700
     53 H24         2.9410   -2.4430   -2.5990 h1        1 0SR      0.049700
     54 H25         4.0450   -1.4540   -3.6630 h1        1 0SR      0.049700
     55 H27         0.4170   -2.3980   -3.4090 h1        1 0SR      0.044450
     56 H28         1.4890   -3.7920   -3.8980 h1        1 0SR      0.044450
     57 H29        -0.4590   -3.9460   -5.3110 h1        1 0SR      0.070950
     58 H30        -0.4410   -2.1460   -5.6960 h1        1 0SR      0.070950
     59 H31         2.5130   -2.7650   -7.7730 h1        1 0SR      0.070950
     60 H32         1.3880   -1.4190   -7.2150 h1        1 0SR      0.070950
     61 H33         3.4750   -1.1730   -5.9540 h1        1 0SR      0.044450
     62 H34         3.5550   -2.9650   -5.6080 h1        1 0SR      0.044450
     63 H162        4.2200    1.7390    2.4150 hn        1 0SR      0.517800
     64 H182        2.1520    1.1040   -0.3070 hn        1 0SR      0.497300
@<TRIPOS>BOND
     1    1    2 2   
     2    2    3 1   
     3    2   20 1   
     4    3    4 1   
     5    3   30 1   
     6    3   63 1   
     7    4    5 2   
     8    4   12 1   
     9    5    6 1   
    10    5   31 1   
    11    6    7 1   
    12    6   11 2   
    13    7    8 1   
    14    7    9 1   
    15    7   10 1   
    16    8   32 1   
    17    8   33 1   
    18    8   34 1   
    19    9   35 1   
    20    9   36 1   
    21    9   37 1   
    22   10   38 1   
    23   10   39 1   
    24   10   40 1   
    25   11   12 1   
    26   12   13 1   
    27   13   14 ar  
    28   13   15 ar  
    29   14   19 ar  
    30   14   41 1   
    31   15   16 ar  
    32   15   42 1   
    33   16   17 ar  
    34   16   43 1   
    35   17   18 1   
    36   17   19 ar  
    37   18   44 1   
    38   18   45 1   
    39   18   46 1   
    40   19   47 1   
    41   20   21 1   
    42   20   48 1   
    43   20   64 1   
    44   21   22 1   
    45   21   49 1   
    46   21   50 1   
    47   22   23 1   
    48   22   51 1   
    49   22   52 1   
    50   23   24 1   
    51   23   53 1   
    52   23   54 1   
    53   24   25 1   
    54   24   29 1   
    55   25   26 1   
    56   25   55 1   
    57   25   56 1   
    58   26   27 1   
    59   26   57 1   
    60   26   58 1   
    61   27   28 1   
    62   28   29 1   
    63   28   59 1   
    64   28   60 1   
    65   29   61 1   
    66   29   62 1   
@<TRIPOS>SUBSTRUCTURE
     1 0SR         1 TEMP              0 ****  ****    0 ROOT
