@<TRIPOS>MOLECULE
0SR
   62    64     1     0     0
SMALL
bcc


@<TRIPOS>ATOM
      1 O28        -0.5050   -1.4130    0.8420 o         1 0SR     -0.601100
      2 C17        -0.3730   -0.1710    0.8750 c         1 0SR      0.740100
      3 N16         0.7530    0.4700    0.2870 n         1 0SR     -0.429100
      4 C10         1.9050   -0.2760    0.0160 cc        1 0SR      0.019300
      5 C11         2.0360   -1.6230   -0.3700 cd        1 0SR     -0.276300
      6 C9          3.4640   -1.8360   -0.5190 cd        1 0SR      0.332600
      7 C12         4.0760   -3.1450   -0.9130 c3        1 0SR     -0.075300
      8 C15         3.7040   -4.1920    0.1320 c3        1 0SR     -0.084767
      9 C14         3.5140   -3.5590   -2.2690 c3        1 0SR     -0.084767
     10 C13         5.5940   -3.0580   -1.0110 c3        1 0SR     -0.084767
     11 N8          4.1450   -0.6920   -0.2470 nc        1 0SR     -0.494800
     12 N7          3.2400    0.2390    0.1150 na        1 0SR      0.120300
     13 C4          3.5680    1.6170    0.2590 ca        1 0SR      0.008800
     14 C2          4.5770    2.0020    1.1650 ca        1 0SR     -0.128000
     15 C6          2.9000    2.6050   -0.4920 ca        1 0SR     -0.128000
     16 C5          3.2120    3.9480   -0.3030 ca        1 0SR     -0.124000
     17 C3          4.1990    4.3350    0.6090 ca        1 0SR     -0.074300
     18 C29         4.5190    5.7670    0.8110 c3        1 0SR     -0.055800
     19 C1          4.8810    3.3490    1.3310 ca        1 0SR     -0.124000
     20 N18        -1.3400    0.6500    1.5000 n         1 0SR     -0.528900
     21 C19        -2.6380    0.0840    1.7740 c3        1 0SR      0.071000
     22 C20        -3.6520    0.1940    0.6340 c3        1 0SR     -0.117400
     23 C21        -4.9730   -0.4240    1.0880 c3        1 0SR      0.173800
     24 N22        -6.0790   -0.1770    0.1720 n3        1 0SR     -0.725600
     25 C27        -7.3540   -0.5770    0.7580 c3        1 0SR      0.130300
     26 C26        -8.5280   -0.4010   -0.2120 c3        1 0SR      0.126400
     27 O24        -8.2860   -1.0530   -1.4530 os        1 0SR     -0.414600
     28 C23        -7.0830   -0.6050   -2.0660 c3        1 0SR      0.126400
     29 C25        -5.8730   -0.7770   -1.1410 c3        1 0SR      0.130300
     30 H1          0.9150    1.4260    0.5350 hn        1 0SR      0.311500
     31 H2          1.2390   -2.3490   -0.4940 ha        1 0SR      0.191000
     32 H3          2.5940   -4.2690    0.2260 hc        1 0SR      0.039033
     33 H4          4.1100   -5.1880   -0.1690 hc        1 0SR      0.039033
     34 H5          4.1290   -3.9160    1.1260 hc        1 0SR      0.039033
     35 H6          3.7960   -2.8130   -3.0500 hc        1 0SR      0.039033
     36 H7          3.9230   -4.5550   -2.5600 hc        1 0SR      0.039033
     37 H8          2.4000   -3.6260   -2.2230 hc        1 0SR      0.039033
     38 H9          6.0350   -2.7710   -0.0270 hc        1 0SR      0.039033
     39 H10         6.0070   -4.0510   -1.3110 hc        1 0SR      0.039033
     40 H11         5.8950   -2.3010   -1.7730 hc        1 0SR      0.039033
     41 H12         5.1320    1.2400    1.7360 ha        1 0SR      0.152000
     42 H13         2.1490    2.3260   -1.2480 ha        1 0SR      0.152000
     43 H14         2.6830    4.7130   -0.8930 ha        1 0SR      0.138000
     44 H15         3.9420    6.1660    1.6850 hc        1 0SR      0.047700
     45 H16         5.6080    5.9060    1.0190 hc        1 0SR      0.047700
     46 H17         4.2510    6.3710   -0.0900 hc        1 0SR      0.047700
     47 H18         5.6710    3.6410    2.0400 ha        1 0SR      0.138000
     48 H19        -1.3630    1.6070    1.2220 hn        1 0SR      0.289500
     49 H20        -2.5070   -1.0030    2.0470 h1        1 0SR      0.072200
     50 H21        -3.0370    0.6310    2.6770 h1        1 0SR      0.072200
     51 H22        -3.8040    1.2680    0.3500 hc        1 0SR      0.054200
     52 H23        -3.2650   -0.3470   -0.2690 hc        1 0SR      0.054200
     53 H24        -4.8080   -1.5300    1.2560 h1        1 0SR      0.035700
     54 H25        -5.2580    0.0290    2.0810 h1        1 0SR      0.035700
     55 H27        -7.3340   -1.6530    1.1020 h1        1 0SR      0.041700
     56 H28        -7.5370    0.0720    1.6590 h1        1 0SR      0.041700
     57 H29        -9.4430   -0.9050    0.1960 h1        1 0SR      0.053700
     58 H30        -8.7330    0.6870   -0.3920 h1        1 0SR      0.053700
     59 H31        -6.9720   -1.2580   -2.9710 h1        1 0SR      0.053700
     60 H32        -7.1970    0.4680   -2.3750 h1        1 0SR      0.053700
     61 H33        -4.9910   -0.2650   -1.6160 h1        1 0SR      0.041700
     62 H34        -5.6370   -1.8780   -1.0620 h1        1 0SR      0.041700
@<TRIPOS>BOND
     1    1    2 2   
     2    2    3 1   
     3    2   20 1   
     4    3    4 1   
     5    3   30 1   
     6    4    5 2   
     7    4   12 1   
     8    5    6 1   
     9    5   31 1   
    10    6    7 1   
    11    6   11 2   
    12    7    8 1   
    13    7    9 1   
    14    7   10 1   
    15    8   32 1   
    16    8   33 1   
    17    8   34 1   
    18    9   35 1   
    19    9   36 1   
    20    9   37 1   
    21   10   38 1   
    22   10   39 1   
    23   10   40 1   
    24   11   12 1   
    25   12   13 1   
    26   13   14 ar  
    27   13   15 ar  
    28   14   19 ar  
    29   14   41 1   
    30   15   16 ar  
    31   15   42 1   
    32   16   17 ar  
    33   16   43 1   
    34   17   18 1   
    35   17   19 ar  
    36   18   44 1   
    37   18   45 1   
    38   18   46 1   
    39   19   47 1   
    40   20   21 1   
    41   20   48 1   
    42   21   22 1   
    43   21   49 1   
    44   21   50 1   
    45   22   23 1   
    46   22   51 1   
    47   22   52 1   
    48   23   24 1   
    49   23   53 1   
    50   23   54 1   
    51   24   25 1   
    52   24   29 1   
    53   25   26 1   
    54   25   55 1   
    55   25   56 1   
    56   26   27 1   
    57   26   57 1   
    58   26   58 1   
    59   27   28 1   
    60   28   29 1   
    61   28   59 1   
    62   28   60 1   
    63   29   61 1   
    64   29   62 1   
@<TRIPOS>SUBSTRUCTURE
     1 0SR         1 TEMP              0 ****  ****    0 ROOT
