@<TRIPOS>MOLECULE
0SR
   62    58     1     0     0
SMALL
bcc


@<TRIPOS>ATOM
      1 O28         2.2570   -2.0200    1.6920 o         1 0SR     -0.370000
      2 C17         1.7470   -1.5640    0.6860 c1        1 0SR      0.380000
      3 N16         0.3970   -1.0720    0.7280 n3        1 0SR     -0.280000
      4 C10        -0.3600   -1.1220    1.9750 c2        1 0SR      0.052000
      5 C11        -0.2280   -2.0640    2.9600 c1        1 0SR     -0.211000
      6 C9         -1.1190   -1.7550    3.9670 c1        1 0SR     -0.090000
      7 C12        -1.3550   -2.5870    5.2760 c2        1 0SR      0.018000
      8 C15        -0.0570   -2.6710    6.0660 c3        1 0SR     -0.202667
      9 C14        -1.8210   -4.0060    4.9050 c3        1 0SR     -0.202667
     10 C13        -2.4350   -1.8980    6.1350 c3        1 0SR     -0.202667
     11 N8         -1.7860   -0.6420    3.6050 n2        1 0SR     -0.062000
     12 N7         -1.3160   -0.2440    2.3620 n2        1 0SR     -0.119000
     13 C4         -1.8050    0.8680    1.5900 c1        1 0SR     -0.006000
     14 C2         -1.0200    2.0090    1.4370 c2        1 0SR     -0.139500
     15 C6         -3.0900    0.8370    1.0710 c1        1 0SR     -0.114500
     16 C5         -3.5960    1.9470    0.3960 c1        1 0SR     -0.114500
     17 C3         -2.8150    3.0840    0.2440 c1        1 0SR     -0.006000
     18 C29        -3.3680    4.3030   -0.5150 c2        1 0SR     -0.182000
     19 C1         -1.5260    3.1150    0.7650 c2        1 0SR     -0.139500
     20 N18         2.4410   -1.6670   -0.5900 n2        1 0SR     -0.365000
     21 C19         3.0720   -0.4970   -1.1710 c3        1 0SR     -0.040000
     22 C20         3.2310   -0.7030   -2.6840 c3        1 0SR     -0.173000
     23 C21         3.1500    0.6490   -3.3960 c3        1 0SR     -0.060000
     24 N22         2.4470    0.4980   -4.6280 n3        1 0SR     -0.259000
     25 C27         2.8610    1.6170   -5.5930 c3        1 0SR     -0.102500
     26 C26         2.0640    1.6030   -6.8800 c3        1 0SR     -0.038000
     27 O24         0.9880    0.9620   -6.7460 os        1 0SR     -0.279000
     28 C23         0.2160    0.9680   -5.7470 c3        1 0SR     -0.038000
     29 C25         0.9930    0.9760   -4.4530 c3        1 0SR     -0.102500
     30 H1          0.0300   -0.6900   -0.0120 hn        1 0SR      0.227000
     31 H2          0.4240   -2.7980    2.9720 DU        1 0SR      0.193000
     32 H3          0.2950   -1.7710    6.2090 hc        1 0SR      0.078333
     33 H4         -0.2300   -3.0980    6.9350 hc        1 0SR      0.078333
     34 H5          0.5970   -3.2030    5.5650 hc        1 0SR      0.078333
     35 H6         -2.0540   -4.5010    5.7240 hc        1 0SR      0.078333
     36 H7         -1.0990   -4.4750    4.4340 hc        1 0SR      0.078333
     37 H8         -2.6050   -3.9500    4.3250 hc        1 0SR      0.078333
     38 H9         -2.5200   -2.3690    6.9960 hc        1 0SR      0.078333
     39 H10        -2.1760   -0.9640    6.2970 hc        1 0SR      0.078333
     40 H11        -3.2950   -1.9210    5.6610 hc        1 0SR      0.078333
     41 H12        -0.1140    2.0320    1.8040 ha        1 0SR      0.142000
     42 H13        -3.6410    0.0350    1.1780 ha        1 0SR      0.148500
     43 H14        -4.5070    1.9250    0.0280 ha        1 0SR      0.148500
     44 H15        -3.0440    4.2860   -1.4410 ha        1 0SR      0.087667
     45 H16        -3.0630    5.1250   -0.0780 ha        1 0SR      0.087667
     46 H17        -4.3520    4.2740   -0.5100 ha        1 0SR      0.087667
     47 H18        -0.9760    3.9140    0.6580 ha        1 0SR      0.142000
     48 H19         2.5150   -2.4760   -1.0050 hn        1 0SR      0.236000
     49 H20         3.9520   -0.3660   -0.7660 h1        1 0SR      0.078000
     50 H21         2.5180    0.2880   -1.0060 h1        1 0SR      0.078000
     51 H22         4.0960   -1.1160   -2.8670 hc        1 0SR      0.102500
     52 H23         2.5140   -1.2870   -3.0100 hc        1 0SR      0.102500
     53 H24         2.6770    1.2920   -2.8270 h1        1 0SR      0.075000
     54 H25         4.0540    0.9770   -3.5760 h1        1 0SR      0.075000
     55 H27         3.8050    1.5140   -5.8060 h1        1 0SR      0.091750
     56 H28         2.7290    2.4780   -5.1490 h1        1 0SR      0.091750
     57 H29         1.8580    2.5240   -7.1380 h1        1 0SR      0.091000
     58 H30         2.6020    1.1850   -7.5850 h1        1 0SR      0.091000
     59 H31        -0.3530    0.1650   -5.7750 h1        1 0SR      0.091000
     60 H32        -0.3490    1.7610   -5.7850 h1        1 0SR      0.091000
     61 H33         1.0010    1.8910   -4.0950 h1        1 0SR      0.091750
     62 H34         0.5440    0.3920   -3.8140 h1        1 0SR      0.091750
@<TRIPOS>BOND
     1    1    2 1   
     2    2    3 1   
     3    3    4 1   
     4    3   30 1   
     5    4    5 1   
     6    4   12 1   
     7    5    6 1   
     8    6   11 1   
     9    7    8 1   
    10    7    9 1   
    11    7   10 1   
    12    8   32 1   
    13    8   33 1   
    14    8   34 1   
    15    9   35 1   
    16    9   36 1   
    17    9   37 1   
    18   10   38 1   
    19   10   39 1   
    20   10   40 1   
    21   11   12 1   
    22   13   14 1   
    23   13   15 1   
    24   14   19 1   
    25   14   41 1   
    26   15   42 1   
    27   16   17 1   
    28   16   43 1   
    29   17   19 1   
    30   18   44 1   
    31   18   45 1   
    32   18   46 1   
    33   19   47 1   
    34   20   21 1   
    35   20   48 1   
    36   21   22 1   
    37   21   49 1   
    38   21   50 1   
    39   22   23 1   
    40   22   51 1   
    41   22   52 1   
    42   23   24 1   
    43   23   53 1   
    44   23   54 1   
    45   24   25 1   
    46   24   29 1   
    47   25   26 1   
    48   25   55 1   
    49   25   56 1   
    50   26   27 1   
    51   26   57 1   
    52   26   58 1   
    53   27   28 1   
    54   28   29 1   
    55   28   59 1   
    56   28   60 1   
    57   29   61 1   
    58   29   62 1   
@<TRIPOS>SUBSTRUCTURE
     1 0SR         1 TEMP              0 ****  ****    0 ROOT
