@<TRIPOS>MOLECULE
0SR
   63    65     1     0     0
SMALL
bcc


@<TRIPOS>ATOM
      1 O28         0.7740    2.2460    0.4000 o         1 0SR     -0.449100
      2 C17         1.3910    1.1960    0.2240 c         1 0SR      0.627100
      3 N16         1.2810   -0.0180    0.8820 n         1 0SR     -0.352100
      4 C10         0.6640   -0.0330    2.1470 cc        1 0SR     -0.105700
      5 C11        -0.7110    0.0110    2.4610 cd        1 0SR     -0.188300
      6 C9         -0.7590   -0.0300    3.9050 cd        1 0SR      0.328600
      7 C12        -1.9990   -0.0100    4.7480 c3        1 0SR     -0.078300
      8 C15        -3.2310    0.0620    3.8550 c3        1 0SR     -0.090767
      9 C14        -2.0640   -1.2800    5.5900 c3        1 0SR     -0.090767
     10 C13        -1.9730    1.2080    5.6650 c3        1 0SR     -0.090767
     11 N8          0.5090   -0.0910    4.4160 nc        1 0SR     -0.434800
     12 N7          1.3640   -0.0640    3.3930 na        1 0SR      0.163300
     13 C4          2.7750   -0.2500    3.5200 ca        1 0SR     -0.032200
     14 C2          3.5290    0.6360    4.3130 ca        1 0SR     -0.126000
     15 C6          3.4130   -1.3250    2.8690 ca        1 0SR     -0.126000
     16 C5          4.7890   -1.4810    2.9870 ca        1 0SR     -0.124000
     17 C3          5.5500   -0.5940    3.7600 ca        1 0SR     -0.048300
     18 C29         7.0110   -0.7870    3.9050 c3        1 0SR     -0.068800
     19 C1          4.9050    0.4570    4.4210 ca        1 0SR     -0.124000
     20 N18         2.3040    1.2400   -1.0180 n4        1 0SR     -0.675800
     21 C19         1.7750    0.3960   -2.1290 c3        1 0SR      0.104800
     22 C20         2.5880    0.5470   -3.4070 c3        1 0SR     -0.119400
     23 C21         1.9470   -0.3280   -4.4960 c3        1 0SR      0.186800
     24 N22         2.6150   -0.1580   -5.7740 n3        1 0SR     -0.738600
     25 C27         1.7060   -0.2930   -6.9070 c3        1 0SR      0.133300
     26 C26         2.4310   -0.1710   -8.2540 c3        1 0SR      0.125900
     27 O24         3.5360   -1.0630   -8.3330 os        1 0SR     -0.400600
     28 C23         4.4690   -0.8480   -7.2830 c3        1 0SR      0.125900
     29 C25         3.8040   -0.9920   -5.9080 c3        1 0SR      0.133300
     30 H1          2.0000   -0.7040    0.7500 hn        1 0SR      0.338500
     31 H2         -1.5510    0.0670    1.7760 ha        1 0SR      0.187000
     32 H3         -3.2800   -0.8250    3.1790 hc        1 0SR      0.045922
     33 H4         -4.1510    0.0760    4.4890 hc        1 0SR      0.045922
     34 H5         -3.2150    0.9910    3.2360 hc        1 0SR      0.045922
     35 H6         -1.1990   -1.3310    6.2930 hc        1 0SR      0.045922
     36 H7         -3.0080   -1.2840    6.1870 hc        1 0SR      0.045922
     37 H8         -2.0520   -2.1830    4.9360 hc        1 0SR      0.045922
     38 H9         -2.9170    1.2470    6.2610 hc        1 0SR      0.045922
     39 H10        -1.8900    2.1460    5.0660 hc        1 0SR      0.045922
     40 H11        -1.1100    1.1510    6.3700 hc        1 0SR      0.045922
     41 H12         3.0370    1.4560    4.8610 ha        1 0SR      0.152000
     42 H13         2.8290   -2.0750    2.3130 ha        1 0SR      0.152000
     43 H14         5.2840   -2.3290    2.4880 ha        1 0SR      0.152500
     44 H15         7.5360    0.1940    4.0100 hc        1 0SR      0.060367
     45 H16         7.4370   -1.3290    3.0250 hc        1 0SR      0.060367
     46 H17         7.2210   -1.3940    4.8240 hc        1 0SR      0.060367
     47 H18         5.4920    1.1480    5.0490 ha        1 0SR      0.152500
     48 H19         3.2560    0.9500   -0.7800 hn        1 0SR      0.460800
     49 H20         0.7040    0.7070   -2.3090 hx        1 0SR      0.108200
     50 H21         1.7830   -0.6800   -1.7900 hx        1 0SR      0.108200
     51 H22         3.6500    0.2270   -3.2390 hc        1 0SR      0.075200
     52 H23         2.5990    1.6170   -3.7460 hc        1 0SR      0.075200
     53 H24         0.8670   -0.0220   -4.6010 h1        1 0SR      0.043700
     54 H25         1.9650   -1.4010   -4.1430 h1        1 0SR      0.043700
     55 H27         1.1630   -1.2820   -6.8830 h1        1 0SR      0.042200
     56 H28         0.9430    0.5310   -6.8390 h1        1 0SR      0.042200
     57 H29         1.7500   -0.4930   -9.0860 h1        1 0SR      0.064700
     58 H30         2.7800    0.8810   -8.4230 h1        1 0SR      0.064700
     59 H31         4.9380    0.1660   -7.3920 h1        1 0SR      0.064700
     60 H32         5.2410   -1.6500   -7.4230 h1        1 0SR      0.064700
     61 H33         4.5400   -0.6750   -5.1190 h1        1 0SR      0.042200
     62 H34         3.5630   -2.0830   -5.7430 h1        1 0SR      0.042200
     63 H182        2.3330    2.2230   -1.3270 hn        1 0SR      0.460800
@<TRIPOS>BOND
     1    1    2 2   
     2    2    3 1   
     3    2   20 1   
     4    3    4 1   
     5    3   30 1   
     6    4    5 2   
     7    4   12 1   
     8    5    6 1   
     9    5   31 1   
    10    6    7 1   
    11    6   11 2   
    12    7    8 1   
    13    7    9 1   
    14    7   10 1   
    15    8   32 1   
    16    8   33 1   
    17    8   34 1   
    18    9   35 1   
    19    9   36 1   
    20    9   37 1   
    21   10   38 1   
    22   10   39 1   
    23   10   40 1   
    24   11   12 1   
    25   12   13 1   
    26   13   14 ar  
    27   13   15 ar  
    28   14   19 ar  
    29   14   41 1   
    30   15   16 ar  
    31   15   42 1   
    32   16   17 ar  
    33   16   43 1   
    34   17   18 1   
    35   17   19 ar  
    36   18   44 1   
    37   18   45 1   
    38   18   46 1   
    39   19   47 1   
    40   20   21 1   
    41   20   48 1   
    42   20   63 1   
    43   21   22 1   
    44   21   49 1   
    45   21   50 1   
    46   22   23 1   
    47   22   51 1   
    48   22   52 1   
    49   23   24 1   
    50   23   53 1   
    51   23   54 1   
    52   24   25 1   
    53   24   29 1   
    54   25   26 1   
    55   25   55 1   
    56   25   56 1   
    57   26   27 1   
    58   26   57 1   
    59   26   58 1   
    60   27   28 1   
    61   28   29 1   
    62   28   59 1   
    63   28   60 1   
    64   29   61 1   
    65   29   62 1   
@<TRIPOS>SUBSTRUCTURE
     1 0SR         1 TEMP              0 ****  ****    0 ROOT
