@<TRIPOS>MOLECULE
0SR
   63    65     1     0     0
SMALL
bcc


@<TRIPOS>ATOM
      1 O28         0.8460    2.2690    0.4180 o         1 0SR     -0.449100
      2 C17         1.4320    1.2030    0.2340 c         1 0SR      0.627100
      3 N16         1.2860   -0.0130    0.8820 ns        1 0SR     -0.352100
      4 C10         0.6650   -0.0210    2.1460 cc        1 0SR     -0.105700
      5 C11        -0.7090    0.0570    2.4560 cd        1 0SR     -0.188300
      6 C9         -0.7620    0.0070    3.9000 cd        1 0SR      0.328600
      7 C12        -2.0040    0.0530    4.7390 c3        1 0SR     -0.078300
      8 C15        -3.2310    0.1660    3.8440 c3        1 0SR     -0.090767
      9 C14        -2.1050   -1.2210    5.5710 c3        1 0SR     -0.090767
     10 C13        -1.9480    1.2630    5.6670 c3        1 0SR     -0.090767
     11 N8          0.5020   -0.0920    4.4140 nc        1 0SR     -0.434800
     12 N7          1.3600   -0.0800    3.3930 na        1 0SR      0.163300
     13 C4          2.7650   -0.3020    3.5230 ca        1 0SR     -0.032200
     14 C2          3.5400    0.5580    4.3240 ca        1 0SR     -0.126000
     15 C6          3.3780   -1.3880    2.8660 ca        1 0SR     -0.126000
     16 C5          4.7500   -1.5800    2.9870 ca        1 0SR     -0.124000
     17 C3          5.5310   -0.7190    3.7690 ca        1 0SR     -0.048300
     18 C29         6.9850   -0.9500    3.9170 c3        1 0SR     -0.068800
     19 C1          4.9110    0.3440    4.4360 ca        1 0SR     -0.124000
     20 N18         2.3480    1.2300   -1.0060 ny        1 0SR     -0.675800
     21 C19         1.7940    0.4130   -2.1250 c3        1 0SR      0.104800
     22 C20         2.6150    0.5500   -3.4000 c3        1 0SR     -0.119400
     23 C21         1.9470   -0.2920   -4.4990 c3        1 0SR      0.186800
     24 N22         2.6240   -0.1330   -5.7730 n3        1 0SR     -0.738600
     25 C27         1.7140   -0.2240   -6.9100 c3        1 0SR      0.133300
     26 C26         2.4460   -0.1140   -8.2550 c3        1 0SR      0.125900
     27 O24         3.5180   -1.0430   -8.3400 os        1 0SR     -0.400600
     28 C23         4.4560   -0.8730   -7.2860 c3        1 0SR      0.125900
     29 C25         3.7820   -1.0080   -5.9140 c3        1 0SR      0.133300
     30 H1          1.9860   -0.7190    0.7470 hn        1 0SR      0.338500
     31 H2         -1.5450    0.1400    1.7690 ha        1 0SR      0.187000
     32 H3         -4.1520    0.1990    4.4750 hc        1 0SR      0.045922
     33 H4         -3.1880    1.0980    3.2320 hc        1 0SR      0.045922
     34 H5         -3.3020   -0.7150    3.1610 hc        1 0SR      0.045922
     35 H6         -2.1150   -2.1190    4.9100 hc        1 0SR      0.045922
     36 H7         -3.0510   -1.2050    6.1660 hc        1 0SR      0.045922
     37 H8         -1.2440   -1.3010    6.2760 hc        1 0SR      0.045922
     38 H9         -1.8380    2.2030    5.0760 hc        1 0SR      0.045922
     39 H10        -1.0890    1.1770    6.3740 hc        1 0SR      0.045922
     40 H11        -2.8920    1.3220    6.2600 hc        1 0SR      0.045922
     41 H12         3.0680    1.3870    4.8770 ha        1 0SR      0.151500
     42 H13         2.7770   -2.1190    2.3030 ha        1 0SR      0.151500
     43 H14         5.2240   -2.4380    2.4830 ha        1 0SR      0.152500
     44 H15         7.5350    0.0160    4.0310 hc        1 0SR      0.060367
     45 H16         7.4010   -1.4950    3.0330 hc        1 0SR      0.060367
     46 H17         7.1770   -1.5700    4.8300 hc        1 0SR      0.060367
     47 H18         5.5130    1.0150    5.0700 ha        1 0SR      0.152500
     48 H19         3.2900    0.9080   -0.7700 hn        1 0SR      0.460800
     49 H20         1.7680   -0.6650   -1.7960 hx        1 0SR      0.108200
     50 H21         0.7350    0.7600   -2.3040 hx        1 0SR      0.108200
     51 H22         2.6610    1.6220   -3.7290 hc        1 0SR      0.075200
     52 H23         3.6650    0.1940   -3.2330 hc        1 0SR      0.075200
     53 H24         0.8780    0.0510   -4.6030 h1        1 0SR      0.043700
     54 H25         1.9270   -1.3690   -4.1560 h1        1 0SR      0.043700
     55 H27         1.1350   -1.1930   -6.8970 h1        1 0SR      0.042200
     56 H28         0.9800    0.6260   -6.8350 h1        1 0SR      0.042200
     57 H29         2.8320    0.9270   -8.4110 h1        1 0SR      0.064700
     58 H30         1.7560   -0.4030   -9.0910 h1        1 0SR      0.064700
     59 H31         4.9610    0.1240   -7.3830 h1        1 0SR      0.064700
     60 H32         5.1990   -1.7000   -7.4330 h1        1 0SR      0.064700
     61 H33         4.5270   -0.7250   -5.1200 h1        1 0SR      0.042200
     62 H34         3.5020   -2.0910   -5.7610 h1        1 0SR      0.042200
     63 H182        2.4090    2.2150   -1.3060 hn        1 0SR      0.460800
@<TRIPOS>BOND
     1    1    2 2   
     2    2    3 1   
     3    2   20 1   
     4    3    4 1   
     5    3   30 1   
     6    4    5 2   
     7    4   12 1   
     8    5    6 1   
     9    5   31 1   
    10    6    7 1   
    11    6   11 2   
    12    7    8 1   
    13    7    9 1   
    14    7   10 1   
    15    8   32 1   
    16    8   33 1   
    17    8   34 1   
    18    9   35 1   
    19    9   36 1   
    20    9   37 1   
    21   10   38 1   
    22   10   39 1   
    23   10   40 1   
    24   11   12 1   
    25   12   13 1   
    26   13   14 ar  
    27   13   15 ar  
    28   14   19 ar  
    29   14   41 1   
    30   15   16 ar  
    31   15   42 1   
    32   16   17 ar  
    33   16   43 1   
    34   17   18 1   
    35   17   19 ar  
    36   18   44 1   
    37   18   45 1   
    38   18   46 1   
    39   19   47 1   
    40   20   21 1   
    41   20   48 1   
    42   20   63 1   
    43   21   22 1   
    44   21   49 1   
    45   21   50 1   
    46   22   23 1   
    47   22   51 1   
    48   22   52 1   
    49   23   24 1   
    50   23   53 1   
    51   23   54 1   
    52   24   25 1   
    53   24   29 1   
    54   25   26 1   
    55   25   55 1   
    56   25   56 1   
    57   26   27 1   
    58   26   57 1   
    59   26   58 1   
    60   27   28 1   
    61   28   29 1   
    62   28   59 1   
    63   28   60 1   
    64   29   61 1   
    65   29   62 1   
@<TRIPOS>SUBSTRUCTURE
     1 0SR         1 TEMP              0 ****  ****    0 ROOT
