@<TRIPOS>MOLECULE
0SS
   96    87     1     0     0
SMALL
bcc


@<TRIPOS>ATOM
      1 O31         0.2580    1.9690    4.7400 o         1 0SS     -0.361000
      2 C29         1.1950    1.2880    4.4540 c1        1 0SS      0.377000
      3 N30         2.4660    1.5920    4.9760 n3        1 0SS     -0.290000
      4 C32         2.6310    2.7330    5.8610 c2        1 0SS      0.055000
      5 N35         3.8170    3.1940    6.3660 n2        1 0SS     -0.114000
      6 C41         5.1490    2.7090    6.0140 c1        1 0SS      0.053000
      7 C46         5.7930    1.7830    6.8300 c1        1 0SS     -0.116500
      8 C45         7.0810    1.3030    6.4740 c1        1 0SS     -0.116500
      9 C44         7.6990    1.7640    5.3030 c1        1 0SS     -0.067000
     10 C47         9.0970    1.2600    4.9160 c3        1 0SS     -0.181000
     11 C43         7.0500    2.6900    4.4920 c1        1 0SS     -0.123000
     12 C42         5.7740    3.1660    4.8430 c1        1 0SS     -0.148000
     13 N36         3.5390    4.1710    7.2610 n2        1 0SS     -0.065000
     14 C34         2.1830    4.3230    7.3180 c1        1 0SS     -0.088000
     15 C37         1.4130    5.4220    8.1390 c2        1 0SS      0.018000
     16 C40         0.5340    6.2160    7.2110 c3        1 0SS     -0.202500
     17 C39         0.5260    4.7330    9.2370 c3        1 0SS     -0.202500
     18 C38         2.4540    6.3860    8.8300 c3        1 0SS     -0.202500
     19 C33         1.6240    3.4340    6.4520 c1        1 0SS     -0.208000
     20 N28         1.0430    0.2220    3.4630 n2        1 0SS     -0.356000
     21 C27        -0.0500    0.2950    2.4700 c3        1 0SS     -0.038000
     22 C26         0.1460   -0.8410    1.3910 c3        1 0SS     -0.075000
     23 N24        -0.3420   -0.3940    0.1180 n3        1 0SS     -0.252000
     24 C23         0.6840   -0.5830   -0.8640 c3        1 0SS     -0.103500
     25 C21         0.1880   -0.3000   -2.2690 c3        1 0SS     -0.055500
     26 C25        -1.5610   -1.1250   -0.2110 c3        1 0SS     -0.103500
     27 C22        -2.0410   -0.8440   -1.6190 c3        1 0SS     -0.055500
     28 N19        -1.0190   -1.0160   -2.5730 n3        1 0SS     -0.276000
     29 C18        -1.1750   -1.8140   -3.7210 c1        1 0SS      0.364000
     30 O20        -0.2410   -1.9300   -4.5290 o         1 0SS     -0.363000
     31 N17        -2.5050   -2.4450   -4.0160 n2        1 0SS     -0.286000
     32 C10        -2.6940   -3.1980   -5.2600 c2        1 0SS      0.058000
     33 C12        -1.9350   -4.2510   -5.6770 c1        1 0SS     -0.213000
     34 C11        -2.4310   -4.6810   -6.8930 c1        1 0SS     -0.088000
     35 C13        -1.9390   -5.9290   -7.7030 c2        1 0SS      0.018000
     36 C16        -2.6970   -6.0060   -9.0240 c3        1 0SS     -0.202500
     37 C15        -0.4090   -5.8080   -7.9870 c3        1 0SS     -0.202500
     38 C14        -2.2060   -7.1890   -6.9030 c3        1 0SS     -0.202500
     39 N9         -3.4990   -3.8860   -7.2200 n2        1 0SS     -0.064000
     40 N8         -3.6700   -2.9690   -6.2200 n2        1 0SS     -0.113000
     41 C4         -4.5860   -1.8870   -6.2380 c1        1 0SS     -0.007500
     42 C2         -4.2080   -0.6670   -6.7830 c2        1 0SS     -0.134500
     43 C6         -5.9090   -2.0720   -5.7650 c1        1 0SS     -0.117500
     44 C5         -6.8360   -1.0230   -5.8470 c1        1 0SS     -0.117500
     45 C3         -6.4520    0.2050   -6.3970 c1        1 0SS     -0.007500
     46 C7         -7.4480    1.2950   -6.5580 c2        1 0SS     -0.182000
     47 C1         -5.1380    0.3860   -6.8660 c2        1 0SS     -0.134500
     48 H1          3.1700    1.1280    4.7200 hn        1 0SS      0.229000
     49 H2          5.3610    1.4660    7.6430 ha        1 0SS      0.148000
     50 H3          7.5330    0.6570    7.0410 ha        1 0SS      0.148000
     51 H4          9.0570    0.2530    4.7260 hc        1 0SS      0.087000
     52 H5          9.3870    1.7100    4.1540 hc        1 0SS      0.087000
     53 H6          9.7310    1.4320    5.6600 hc        1 0SS      0.087000
     54 H7          7.4900    3.0180    3.6620 ha        1 0SS      0.137000
     55 H8          5.3000    3.8460    4.2430 ha        1 0SS      0.144000
     56 H9         -0.1970    5.6580    6.9020 hc        1 0SS      0.078556
     57 H10         0.1670    7.0050    7.6950 hc        1 0SS      0.078556
     58 H11         1.0730    6.5260    6.4260 hc        1 0SS      0.078556
     59 H12         1.1140    4.1810    9.8460 hc        1 0SS      0.078556
     60 H13         0.0720    5.4070    9.7520 hc        1 0SS      0.078556
     61 H14        -0.0990    4.1840    8.8300 hc        1 0SS      0.078556
     62 H15         2.9580    5.8960    9.4850 hc        1 0SS      0.078556
     63 H16         3.0650    6.7470    8.1530 hc        1 0SS      0.078556
     64 H17         1.9950    7.0950    9.2510 hc        1 0SS      0.078556
     65 H18         0.6720    3.3200    6.2840 DU        1 0SS      0.188500
     66 H19         1.5510   -0.5340    3.5260 hn        1 0SS      0.206000
     67 H20        -0.9140    0.1690    2.9230 h1        1 0SS      0.102000
     68 H21        -0.0360    1.1980    2.0200 h1        1 0SS      0.102000
     69 H22        -0.3810   -1.6880    1.6840 h1        1 0SS      0.078500
     70 H23         1.0960   -1.0590    1.3180 h1        1 0SS      0.078500
     71 H25         1.0180   -1.5580   -0.8130 h1        1 0SS      0.086250
     72 H26         1.4140    0.0040   -0.6700 h1        1 0SS      0.086250
     73 H27         0.0110    0.7040   -2.3610 h1        1 0SS      0.111500
     74 H28         0.8620   -0.5540   -2.8900 h1        1 0SS      0.111500
     75 H29        -1.3790   -2.1120   -0.1170 h1        1 0SS      0.086250
     76 H30        -2.2450   -0.8780    0.3990 h1        1 0SS      0.086250
     77 H31        -2.3730    0.0650   -1.6640 h1        1 0SS      0.111500
     78 H32        -2.8120   -1.4910   -1.8400 h1        1 0SS      0.111500
     79 H33        -3.1680   -2.2850   -3.5150 hn        1 0SS      0.237000
     80 H34        -1.1440   -4.6390   -5.1920 DU        1 0SS      0.188500
     81 H35        -2.3320   -6.7170   -9.5640 hc        1 0SS      0.078556
     82 H36        -2.6090   -5.1470   -9.5060 hc        1 0SS      0.078556
     83 H37        -3.6470   -6.1850   -8.8450 hc        1 0SS      0.078556
     84 H38        -0.1020   -6.6170   -8.5040 hc        1 0SS      0.078556
     85 H39         0.0640   -5.7590   -7.1640 hc        1 0SS      0.078556
     86 H40        -0.2280   -4.9650   -8.5350 hc        1 0SS      0.078556
     87 H41        -1.9600   -7.9690   -7.4330 hc        1 0SS      0.078556
     88 H42        -1.6500   -7.1760   -6.0420 hc        1 0SS      0.078556
     89 H43        -3.1330   -7.2320   -6.6860 hc        1 0SS      0.078556
     90 H44        -3.2510   -0.5330   -7.1270 ha        1 0SS      0.141500
     91 H45        -6.1780   -2.9440   -5.3760 ha        1 0SS      0.147500
     92 H46        -7.8260   -1.1590   -5.4950 ha        1 0SS      0.147500
     93 H47        -8.0620    1.0640   -7.2380 ha        1 0SS      0.087333
     94 H48        -7.9210    1.4230   -5.7290 ha        1 0SS      0.087333
     95 H49        -6.9980    2.1030   -6.7980 ha        1 0SS      0.087333
     96 H50        -4.8670    1.2560   -7.2530 ha        1 0SS      0.141500
@<TRIPOS>BOND
     1    1    2 1   
     2    2    3 1   
     3    3    4 1   
     4    3   48 1   
     5    4    5 1   
     6    4   19 1   
     7    5   13 1   
     8    6   12 1   
     9    7    8 1   
    10    7   49 1   
    11    8   50 1   
    12    9   10 1   
    13    9   11 1   
    14   10   51 1   
    15   10   52 1   
    16   10   53 1   
    17   11   54 1   
    18   12   55 1   
    19   13   14 1   
    20   14   19 1   
    21   15   16 1   
    22   15   17 1   
    23   15   18 1   
    24   16   56 1   
    25   16   57 1   
    26   16   58 1   
    27   17   59 1   
    28   17   60 1   
    29   17   61 1   
    30   18   62 1   
    31   18   63 1   
    32   18   64 1   
    33   20   21 1   
    34   20   66 1   
    35   21   22 1   
    36   21   67 1   
    37   21   68 1   
    38   22   23 1   
    39   22   69 1   
    40   22   70 1   
    41   23   24 1   
    42   23   26 1   
    43   24   25 1   
    44   24   71 1   
    45   24   72 1   
    46   25   28 1   
    47   25   73 1   
    48   25   74 1   
    49   26   27 1   
    50   26   75 1   
    51   26   76 1   
    52   27   28 1   
    53   27   77 1   
    54   27   78 1   
    55   28   29 1   
    56   29   30 1   
    57   31   32 1   
    58   31   79 1   
    59   32   33 1   
    60   32   40 1   
    61   33   34 1   
    62   34   39 1   
    63   35   36 1   
    64   35   37 1   
    65   35   38 1   
    66   36   81 1   
    67   36   82 1   
    68   36   83 1   
    69   37   84 1   
    70   37   85 1   
    71   37   86 1   
    72   38   87 1   
    73   38   88 1   
    74   38   89 1   
    75   39   40 1   
    76   41   42 1   
    77   41   43 1   
    78   42   47 1   
    79   42   90 1   
    80   43   91 1   
    81   44   45 1   
    82   44   92 1   
    83   45   47 1   
    84   46   93 1   
    85   46   94 1   
    86   46   95 1   
    87   47   96 1   
@<TRIPOS>SUBSTRUCTURE
     1 0SS         1 TEMP              0 ****  ****    0 ROOT
