@<TRIPOS>MOLECULE
0SS
   97   101     1     0     0
SMALL
bcc


@<TRIPOS>ATOM
      1 O31        -0.6110   -2.5870    0.5480 o         1 0SS     -0.465100
      2 C29         0.4250   -1.9770    0.2780 c         1 0SS      0.632100
      3 N30         0.9860   -0.8850    0.8980 n         1 0SS     -0.363100
      4 C32         0.5540   -0.5320    2.1900 cc        1 0SS     -0.075700
      5 N35         1.4370   -0.1200    3.2400 na        1 0SS      0.164300
      6 C41         2.8080    0.2180    3.0280 ca        1 0SS     -0.027200
      7 C46         3.6940   -0.7580    2.5280 ca        1 0SS     -0.126000
      8 C45         5.0310   -0.4380    2.3240 ca        1 0SS     -0.121000
      9 C44         5.5180    0.8410    2.6220 ca        1 0SS     -0.047300
     10 C47         6.9490    1.1660    2.4280 c3        1 0SS     -0.067800
     11 C43         4.6370    1.8010    3.1340 ca        1 0SS     -0.121000
     12 C42         3.2930    1.5030    3.3400 ca        1 0SS     -0.126000
     13 N36         0.7360    0.2390    4.3240 nc        1 0SS     -0.443800
     14 C34        -0.5810   -0.0130    4.0770 cd        1 0SS      0.341600
     15 C37        -1.7060    0.1790    5.0490 c3        1 0SS     -0.081300
     16 C40        -2.7110    1.1540    4.4440 c3        1 0SS     -0.088767
     17 C39        -2.3800   -1.1690    5.2860 c3        1 0SS     -0.088767
     18 C38        -1.2140    0.7320    6.3800 c3        1 0SS     -0.088767
     19 C33        -0.7490   -0.5070    2.7240 cd        1 0SS     -0.219300
     20 N28         1.0800   -2.4570   -1.0310 n4        1 0SS     -0.670800
     21 C27         1.0330   -1.4200   -2.0980 c3        1 0SS      0.087800
     22 C26         1.4800   -1.9890   -3.4710 c3        1 0SS      0.163800
     23 N24         1.4600   -0.9320   -4.4620 n3        1 0SS     -0.742600
     24 C23         2.5780   -1.0140   -5.3950 c3        1 0SS      0.132300
     25 C21         2.5180    0.0660   -6.5000 c3        1 0SS      0.059500
     26 C25         0.1590   -0.7940   -5.1080 c3        1 0SS      0.132300
     27 C22         0.1480    0.2840   -6.2120 c3        1 0SS      0.059500
     28 N19         1.2350    0.1690   -7.1700 n         1 0SS     -0.411800
     29 C18         0.9870   -0.8030   -8.2200 c         1 0SS      0.728100
     30 O20         0.0430   -1.6160   -8.1260 o         1 0SS     -0.598100
     31 N17         1.8530   -0.7810   -9.3230 n         1 0SS     -0.418100
     32 C10         1.5360   -1.4900  -10.4870 cc        1 0SS      0.002300
     33 C12         0.8820   -2.7290  -10.6340 cd        1 0SS     -0.269300
     34 C11         0.9010   -2.9960  -12.0580 cd        1 0SS      0.334600
     35 C13         0.3140   -4.1990  -12.7320 c3        1 0SS     -0.075300
     36 C16         1.4050   -4.9460  -13.4920 c3        1 0SS     -0.086767
     37 C15        -0.2970   -5.1310  -11.6930 c3        1 0SS     -0.086767
     38 C14        -0.7720   -3.7590  -13.7080 c3        1 0SS     -0.086767
     39 N9          1.5310   -1.9860  -12.7190 nc        1 0SS     -0.485800
     40 N8          1.8670   -1.0540  -11.8090 na        1 0SS      0.138300
     41 C4          2.7200    0.0520  -12.0990 ca        1 0SS     -0.002200
     42 C2          3.8730   -0.1130  -12.8910 ca        1 0SS     -0.127000
     43 C6          2.3930    1.3330  -11.6100 ca        1 0SS     -0.127000
     44 C5          3.2220    2.4140  -11.8910 ca        1 0SS     -0.123000
     45 C3          4.3740    2.2530  -12.6700 ca        1 0SS     -0.067300
     46 C7          5.2370    3.4140  -12.9840 c3        1 0SS     -0.059800
     47 C1          4.6850    0.9830  -13.1680 ca        1 0SS     -0.123000
     48 H1          1.8950   -0.5580    0.6290 hn        1 0SS      0.351500
     49 H2          3.3520   -1.7880    2.3460 ha        1 0SS      0.147000
     50 H3          5.7230   -1.2080    1.9460 ha        1 0SS      0.150500
     51 H4          7.4180    0.4960    1.6670 hc        1 0SS      0.059700
     52 H5          7.0760    2.2270    2.0960 hc        1 0SS      0.059700
     53 H6          7.5000    1.0360    3.3950 hc        1 0SS      0.059700
     54 H7          5.0130    2.8060    3.3860 ha        1 0SS      0.150500
     55 H8          2.6230    2.2700    3.7620 ha        1 0SS      0.147000
     56 H9         -2.2380    2.1520    4.2810 hc        1 0SS      0.045589
     57 H10        -3.0890    0.7700    3.4660 hc        1 0SS      0.045589
     58 H11        -3.5760    1.2780    5.1380 hc        1 0SS      0.045589
     59 H12        -2.7510   -1.5950    4.3240 hc        1 0SS      0.045589
     60 H13        -3.2470   -1.0370    5.9780 hc        1 0SS      0.045589
     61 H14        -1.6610   -1.8880    5.7470 hc        1 0SS      0.045589
     62 H15        -0.4840    0.0330    6.8530 hc        1 0SS      0.045589
     63 H16        -0.7230    1.7240    6.2380 hc        1 0SS      0.045589
     64 H17        -2.0820    0.8610    7.0720 hc        1 0SS      0.045589
     65 H18        -1.6750   -0.8100    2.2440 ha        1 0SS      0.190000
     66 H19         0.5420   -3.2840   -1.3340 hn        1 0SS      0.460800
     67 H20         1.7040   -0.5650   -1.8010 hx        1 0SS      0.114700
     68 H21        -0.0280   -1.0410   -2.1640 hx        1 0SS      0.114700
     69 H22         2.5250   -2.3990   -3.3680 h1        1 0SS      0.054200
     70 H23         0.7960   -2.8470   -3.7430 h1        1 0SS      0.054200
     71 H25         3.5270   -0.8540   -4.8100 h1        1 0SS      0.051200
     72 H26         2.6330   -2.0290   -5.8850 h1        1 0SS      0.051200
     73 H27         3.3400   -0.1550   -7.2340 h1        1 0SS      0.080450
     74 H28         2.7230    1.0750   -6.0390 h1        1 0SS      0.080450
     75 H29        -0.5850   -0.4920   -4.3190 h1        1 0SS      0.051200
     76 H30        -0.1850   -1.7680   -5.5670 h1        1 0SS      0.051200
     77 H31        -0.8380    0.2140   -6.7500 h1        1 0SS      0.080450
     78 H32         0.2390    1.3060   -5.7470 h1        1 0SS      0.080450
     79 H33         2.4510    0.0130   -9.4380 hn        1 0SS      0.331500
     80 H34         0.4330   -3.3290   -9.8490 ha        1 0SS      0.185000
     81 H35         0.9770   -5.8660  -13.9580 hc        1 0SS      0.040700
     82 H36         2.2260   -5.2440  -12.7980 hc        1 0SS      0.040700
     83 H37         1.8310   -4.3030  -14.2990 hc        1 0SS      0.040700
     84 H38        -0.7280   -6.0270  -12.2010 hc        1 0SS      0.040700
     85 H39         0.4790   -5.4700  -10.9670 hc        1 0SS      0.040700
     86 H40        -1.1120   -4.6120  -11.1330 hc        1 0SS      0.040700
     87 H41        -1.2390   -4.6560  -14.1810 hc        1 0SS      0.040700
     88 H42        -0.3400   -3.1150  -14.5110 hc        1 0SS      0.040700
     89 H43        -1.5640   -3.1830  -13.1730 hc        1 0SS      0.040700
     90 H44         4.1310   -1.1000  -13.3060 ha        1 0SS      0.150500
     91 H45         1.4690    1.4980  -11.0330 ha        1 0SS      0.150500
     92 H46         2.9580    3.4110  -11.5080 ha        1 0SS      0.142500
     93 H47         5.1700    4.1940  -12.1860 hc        1 0SS      0.051367
     94 H48         4.9130    3.8760  -13.9520 hc        1 0SS      0.051367
     95 H49         6.3050    3.1030  -13.0880 hc        1 0SS      0.051367
     96 H50         5.5820    0.8470  -13.7920 ha        1 0SS      0.142500
     97 H282        2.0460   -2.7470   -0.8640 hn        1 0SS      0.460800
@<TRIPOS>BOND
     1    1    2 2   
     2    2    3 1   
     3    2   20 1   
     4    3    4 1   
     5    3   48 1   
     6    4    5 1   
     7    4   19 2   
     8    5    6 1   
     9    5   13 1   
    10    6    7 ar  
    11    6   12 ar  
    12    7    8 ar  
    13    7   49 1   
    14    8    9 ar  
    15    8   50 1   
    16    9   10 1   
    17    9   11 ar  
    18   10   51 1   
    19   10   52 1   
    20   10   53 1   
    21   11   12 ar  
    22   11   54 1   
    23   12   55 1   
    24   13   14 2   
    25   14   15 1   
    26   14   19 1   
    27   15   16 1   
    28   15   17 1   
    29   15   18 1   
    30   16   56 1   
    31   16   57 1   
    32   16   58 1   
    33   17   59 1   
    34   17   60 1   
    35   17   61 1   
    36   18   62 1   
    37   18   63 1   
    38   18   64 1   
    39   19   65 1   
    40   20   21 1   
    41   20   66 1   
    42   20   97 1   
    43   21   22 1   
    44   21   67 1   
    45   21   68 1   
    46   22   23 1   
    47   22   69 1   
    48   22   70 1   
    49   23   24 1   
    50   23   26 1   
    51   24   25 1   
    52   24   71 1   
    53   24   72 1   
    54   25   28 1   
    55   25   73 1   
    56   25   74 1   
    57   26   27 1   
    58   26   75 1   
    59   26   76 1   
    60   27   28 1   
    61   27   77 1   
    62   27   78 1   
    63   28   29 1   
    64   29   30 2   
    65   29   31 1   
    66   31   32 1   
    67   31   79 1   
    68   32   33 2   
    69   32   40 1   
    70   33   34 1   
    71   33   80 1   
    72   34   35 1   
    73   34   39 2   
    74   35   36 1   
    75   35   37 1   
    76   35   38 1   
    77   36   81 1   
    78   36   82 1   
    79   36   83 1   
    80   37   84 1   
    81   37   85 1   
    82   37   86 1   
    83   38   87 1   
    84   38   88 1   
    85   38   89 1   
    86   39   40 1   
    87   40   41 1   
    88   41   42 ar  
    89   41   43 ar  
    90   42   47 ar  
    91   42   90 1   
    92   43   44 ar  
    93   43   91 1   
    94   44   45 ar  
    95   44   92 1   
    96   45   46 1   
    97   45   47 ar  
    98   46   93 1   
    99   46   94 1   
   100   46   95 1   
   101   47   96 1   
@<TRIPOS>SUBSTRUCTURE
     1 0SS         1 TEMP              0 ****  ****    0 ROOT
