@<TRIPOS>MOLECULE
0SS
   99   103     1     0     0
SMALL
bcc


@<TRIPOS>ATOM
      1 O31         3.5650    1.5540   -0.9090 o         1 0SS     -0.305100
      2 C29         2.7010    0.9750   -0.2730 c         1 0SS      0.472100
      3 N30         2.5250    1.2490    1.2020 n4        1 0SS     -0.439200
      4 C32         1.3760    0.5990    1.7550 cc        1 0SS     -0.301700
      5 N35         1.4160   -0.5340    2.6250 na        1 0SS      0.269300
      6 C41         2.6380   -1.1240    3.0940 ca        1 0SS     -0.110200
      7 C46         3.6520   -1.4700    2.1720 ca        1 0SS     -0.116500
      8 C45         4.8300   -2.0400    2.6320 ca        1 0SS     -0.101500
      9 C44         5.0250   -2.2910    4.0030 ca        1 0SS      0.008700
     10 C47         6.2760   -2.9180    4.4820 c3        1 0SS     -0.090800
     11 C43         4.0060   -1.9610    4.9030 ca        1 0SS     -0.101500
     12 C42         2.8140   -1.3850    4.4650 ca        1 0SS     -0.116500
     13 N36         0.2100   -0.8200    3.0610 nc        1 0SS     -0.368800
     14 C34        -0.6920    0.0850    2.5130 cd        1 0SS      0.371600
     15 C37        -2.1660    0.0570    2.7990 c3        1 0SS     -0.088300
     16 C40        -2.8540    1.1870    2.0450 c3        1 0SS     -0.098100
     17 C39        -2.7460   -1.2820    2.3540 c3        1 0SS     -0.098100
     18 C38        -2.3920    0.2380    4.2970 c3        1 0SS     -0.098100
     19 C33         0.0070    1.0100    1.6810 cd        1 0SS     -0.213300
     20 N28         1.7780   -0.0160   -0.9050 n4        1 0SS     -0.629800
     21 C27         2.0620   -0.2460   -2.3680 c3        1 0SS      0.092800
     22 C26         1.4940    0.8700   -3.2910 c3        1 0SS      0.174800
     23 N24         1.7530    0.5140   -4.6690 n3        1 0SS     -0.753600
     24 C23         0.5810    0.5800   -5.5320 c3        1 0SS      0.161300
     25 C21         0.8660    0.1300   -6.9870 c3        1 0SS      0.086000
     26 C25         2.9130    1.1880   -5.2410 c3        1 0SS      0.161300
     27 C22         3.2290    0.7060   -6.6710 c3        1 0SS      0.086000
     28 N19         2.0540    0.7420   -7.5370 n         1 0SS     -0.434800
     29 C18         2.2770    1.0160   -8.8680 c         1 0SS      0.645100
     30 O20         3.3000    1.5320   -9.3300 o         1 0SS     -0.471100
     31 N17         1.1940    0.7680   -9.9230 n4        1 0SS     -0.480200
     32 C10         1.0220   -0.6300  -10.2270 cc        1 0SS     -0.166700
     33 C12         0.1300   -1.5600   -9.6350 cd        1 0SS     -0.229300
     34 C11         0.3910   -2.7970  -10.3230 cd        1 0SS      0.343600
     35 C13        -0.3170   -4.0930  -10.0610 c3        1 0SS     -0.082300
     36 C16         0.1950   -5.2090  -10.9630 c3        1 0SS     -0.090433
     37 C15        -0.0930   -4.4870   -8.6050 c3        1 0SS     -0.090433
     38 C14        -1.8080   -3.8920  -10.3150 c3        1 0SS     -0.090433
     39 N9          1.3730   -2.6050  -11.2670 nc        1 0SS     -0.395800
     40 N8          1.7550   -1.3390  -11.2170 na        1 0SS      0.237300
     41 C4          2.6660   -0.7170  -12.1370 ca        1 0SS     -0.084200
     42 C2          3.9820   -1.1950  -12.2520 ca        1 0SS     -0.112000
     43 C6          2.2180    0.3400  -12.9580 ca        1 0SS     -0.112000
     44 C5          3.1020    0.9280  -13.8530 ca        1 0SS     -0.113500
     45 C3          4.4250    0.4720  -13.9660 ca        1 0SS     -0.013300
     46 C7          5.3460    1.0880  -14.9470 c3        1 0SS     -0.079800
     47 C1          4.8490   -0.5910  -13.1600 ca        1 0SS     -0.113500
     48 H1          2.4270    2.2780    1.3250 hn        1 0SS      0.524800
     49 H2          3.4990   -1.3630    1.0890 ha        1 0SS      0.130500
     50 H3          5.6210   -2.3200    1.9160 ha        1 0SS      0.179500
     51 H4          6.6100   -2.4560    5.4460 hc        1 0SS      0.084033
     52 H5          7.1000   -2.8170    3.7330 hc        1 0SS      0.084033
     53 H6          6.1030   -4.0110    4.6680 hc        1 0SS      0.084033
     54 H7          4.1400   -2.1680    5.9820 ha        1 0SS      0.179500
     55 H8          2.0230   -1.1490    5.2010 ha        1 0SS      0.130500
     56 H9         -2.7070    1.0800    0.9440 hc        1 0SS      0.057367
     57 H10        -2.4660    2.1800    2.3750 hc        1 0SS      0.057367
     58 H11        -3.9530    1.1550    2.2560 hc        1 0SS      0.057367
     59 H12        -3.8490   -1.2850    2.5390 hc        1 0SS      0.057367
     60 H13        -2.5700   -1.4460    1.2650 hc        1 0SS      0.057367
     61 H14        -2.2930   -2.1240    2.9310 hc        1 0SS      0.057367
     62 H15        -3.4900    0.2700    4.5020 hc        1 0SS      0.057367
     63 H16        -1.9380    1.1940    4.6520 hc        1 0SS      0.057367
     64 H17        -1.9530   -0.6120    4.8710 hc        1 0SS      0.057367
     65 H18        -0.4160    1.8600    1.1480 ha        1 0SS      0.201000
     66 H19         0.8030    0.3130   -0.7800 hn        1 0SS      0.499300
     67 H20         1.5790   -1.2390   -2.6200 hx        1 0SS      0.139700
     68 H21         3.1790   -0.3320   -2.5040 hx        1 0SS      0.139700
     69 H22         1.9850    1.8460   -3.0050 h1        1 0SS      0.064700
     70 H23         0.3860    0.9640   -3.1060 h1        1 0SS      0.064700
     71 H25         0.1490    1.6230   -5.5560 h1        1 0SS      0.065700
     72 H26        -0.2010   -0.1210   -5.1240 h1        1 0SS      0.065700
     73 H27        -0.0450    0.4150   -7.5860 h1        1 0SS      0.086950
     74 H28         0.9730   -0.9950   -7.0160 h1        1 0SS      0.086950
     75 H29         2.7770    2.3090   -5.2510 h1        1 0SS      0.065700
     76 H30         3.8130    0.9470   -4.6070 h1        1 0SS      0.065700
     77 H31         3.6200   -0.3520   -6.6360 h1        1 0SS      0.086950
     78 H32         4.0330    1.3770   -7.0930 h1        1 0SS      0.086950
     79 H33         1.5170    1.2690  -10.7790 hn        1 0SS      0.483300
     80 H34        -0.6110   -1.3930   -8.8620 ha        1 0SS      0.174000
     81 H35         1.2840   -5.3860  -10.7960 hc        1 0SS      0.048589
     82 H36         0.0310   -4.9550  -12.0380 hc        1 0SS      0.048589
     83 H37        -0.3570   -6.1530  -10.7350 hc        1 0SS      0.048589
     84 H38         0.9900   -4.6750   -8.4130 hc        1 0SS      0.048589
     85 H39        -0.4490   -3.6800   -7.9210 hc        1 0SS      0.048589
     86 H40        -0.6610   -5.4220   -8.3810 hc        1 0SS      0.048589
     87 H41        -2.2140   -3.0840   -9.6600 hc        1 0SS      0.048589
     88 H42        -2.3560   -4.8400  -10.0960 hc        1 0SS      0.048589
     89 H43        -1.9880   -3.6180  -11.3830 hc        1 0SS      0.048589
     90 H44         4.3310   -2.0490  -11.6490 ha        1 0SS      0.149000
     91 H45         1.1670    0.6670  -12.9440 ha        1 0SS      0.149000
     92 H46         2.7540    1.7500  -14.5020 ha        1 0SS      0.166000
     93 H47         5.2430    0.5680  -15.9350 hc        1 0SS      0.071367
     94 H48         5.1090    2.1700  -15.0980 hc        1 0SS      0.071367
     95 H49         6.4100    0.9970  -14.6150 hc        1 0SS      0.071367
     96 H50         5.8810   -0.9700  -13.2550 ha        1 0SS      0.166000
     97 H302        3.3970    0.9320    1.6900 hn        1 0SS      0.524800
     98 H282        1.8730   -0.9190   -0.4020 hn        1 0SS      0.499300
     99 H172        0.2880    1.1480   -9.6290 hn        1 0SS      0.483300
@<TRIPOS>BOND
     1    1    2 2   
     2    2    3 1   
     3    2   20 1   
     4    3    4 1   
     5    3   48 1   
     6    3   97 1   
     7    4    5 1   
     8    4   19 2   
     9    5    6 1   
    10    5   13 1   
    11    6    7 ar  
    12    6   12 ar  
    13    7    8 ar  
    14    7   49 1   
    15    8    9 ar  
    16    8   50 1   
    17    9   10 1   
    18    9   11 ar  
    19   10   51 1   
    20   10   52 1   
    21   10   53 1   
    22   11   12 ar  
    23   11   54 1   
    24   12   55 1   
    25   13   14 2   
    26   14   15 1   
    27   14   19 1   
    28   15   16 1   
    29   15   17 1   
    30   15   18 1   
    31   16   56 1   
    32   16   57 1   
    33   16   58 1   
    34   17   59 1   
    35   17   60 1   
    36   17   61 1   
    37   18   62 1   
    38   18   63 1   
    39   18   64 1   
    40   19   65 1   
    41   20   21 1   
    42   20   66 1   
    43   20   98 1   
    44   21   22 1   
    45   21   67 1   
    46   21   68 1   
    47   22   23 1   
    48   22   69 1   
    49   22   70 1   
    50   23   24 1   
    51   23   26 1   
    52   24   25 1   
    53   24   71 1   
    54   24   72 1   
    55   25   28 1   
    56   25   73 1   
    57   25   74 1   
    58   26   27 1   
    59   26   75 1   
    60   26   76 1   
    61   27   28 1   
    62   27   77 1   
    63   27   78 1   
    64   28   29 1   
    65   29   30 2   
    66   29   31 1   
    67   31   32 1   
    68   31   79 1   
    69   31   99 1   
    70   32   33 2   
    71   32   40 1   
    72   33   34 1   
    73   33   80 1   
    74   34   35 1   
    75   34   39 2   
    76   35   36 1   
    77   35   37 1   
    78   35   38 1   
    79   36   81 1   
    80   36   82 1   
    81   36   83 1   
    82   37   84 1   
    83   37   85 1   
    84   37   86 1   
    85   38   87 1   
    86   38   88 1   
    87   38   89 1   
    88   39   40 1   
    89   40   41 1   
    90   41   42 ar  
    91   41   43 ar  
    92   42   47 ar  
    93   42   90 1   
    94   43   44 ar  
    95   43   91 1   
    96   44   45 ar  
    97   44   92 1   
    98   45   46 1   
    99   45   47 ar  
   100   46   93 1   
   101   46   94 1   
   102   46   95 1   
   103   47   96 1   
@<TRIPOS>SUBSTRUCTURE
     1 0SS         1 TEMP              0 ****  ****    0 ROOT
