@<TRIPOS>MOLECULE
0SS
   97   101     1     0     0
SMALL
bcc


@<TRIPOS>ATOM
      1 O31        -0.6150   -2.5810    0.5490 o         1 0SS     -0.465100
      2 C29         0.4250   -1.9770    0.2790 c         1 0SS      0.632100
      3 N30         0.9910   -0.8870    0.8980 ns        1 0SS     -0.363100
      4 C32         0.5600   -0.5300    2.1900 cc        1 0SS     -0.075700
      5 N35         1.4420   -0.1130    3.2370 na        1 0SS      0.164300
      6 C41         2.8130    0.2290    3.0220 ca        1 0SS     -0.027200
      7 C46         3.7000   -0.7470    2.5240 ca        1 0SS     -0.126000
      8 C45         5.0370   -0.4230    2.3180 ca        1 0SS     -0.121000
      9 C44         5.5200    0.8580    2.6100 ca        1 0SS     -0.047300
     10 C47         6.9490    1.1870    2.4130 c3        1 0SS     -0.067800
     11 C43         4.6370    1.8170    3.1200 ca        1 0SS     -0.121000
     12 C42         3.2940    1.5160    3.3290 ca        1 0SS     -0.126000
     13 N36         0.7420    0.2480    4.3210 nc        1 0SS     -0.443800
     14 C34        -0.5750   -0.0080    4.0760 cd        1 0SS      0.341600
     15 C37        -1.6990    0.1860    5.0490 c3        1 0SS     -0.081300
     16 C40        -2.7070    1.1560    4.4410 c3        1 0SS     -0.088767
     17 C39        -2.3700   -1.1630    5.2910 c3        1 0SS     -0.088767
     18 C38        -1.2080    0.7440    6.3780 c3        1 0SS     -0.088767
     19 C33        -0.7430   -0.5070    2.7240 cd        1 0SS     -0.219300
     20 N28         1.0770   -2.4620   -1.0290 ny        1 0SS     -0.670800
     21 C27         1.0460   -1.4230   -2.0950 c3        1 0SS      0.087800
     22 C26         1.4810   -1.9990   -3.4690 c3        1 0SS      0.163800
     23 N24         1.4850   -0.9390   -4.4570 n3        1 0SS     -0.741600
     24 C23         2.5960   -1.0500   -5.3960 c3        1 0SS      0.132300
     25 C21         2.5610    0.0330   -6.5000 c3        1 0SS      0.059500
     26 C25         0.1850   -0.7650   -5.0970 c3        1 0SS      0.132300
     27 C22         0.1990    0.3150   -6.2000 c3        1 0SS      0.059500
     28 N19         1.2780    0.1710   -7.1630 n         1 0SS     -0.411800
     29 C18         0.9980   -0.7910   -8.2140 c         1 0SS      0.728100
     30 O20         0.0320   -1.5770   -8.1180 o         1 0SS     -0.598100
     31 N17         1.8610   -0.7920   -9.3200 ns        1 0SS     -0.417100
     32 C10         1.5180   -1.4880  -10.4850 cc        1 0SS      0.002300
     33 C12         0.8240   -2.7040  -10.6340 cd        1 0SS     -0.270300
     34 C11         0.8300   -2.9680  -12.0590 cd        1 0SS      0.334600
     35 C13         0.2030   -4.1490  -12.7350 c3        1 0SS     -0.075300
     36 C16         1.2670   -4.9290  -13.4990 c3        1 0SS     -0.086767
     37 C15        -0.4370   -5.0630  -11.6970 c3        1 0SS     -0.086767
     38 C14        -0.8710   -3.6710  -13.7070 c3        1 0SS     -0.086767
     39 N9          1.4910   -1.9770  -12.7190 nc        1 0SS     -0.485800
     40 N8          1.8600   -1.0590  -11.8080 na        1 0SS      0.138300
     41 C4          2.7480    0.0190  -12.0960 ca        1 0SS     -0.002200
     42 C2          3.8930   -0.1810  -12.8920 ca        1 0SS     -0.127000
     43 C6          2.4630    1.3090  -11.6040 ca        1 0SS     -0.127000
     44 C5          3.3270    2.3630  -11.8840 ca        1 0SS     -0.123000
     45 C3          4.4710    2.1670  -12.6660 ca        1 0SS     -0.067300
     46 C7          5.3710    3.3000  -12.9790 c3        1 0SS     -0.059800
     47 C1          4.7390    0.8890  -13.1670 ca        1 0SS     -0.123000
     48 H1          1.9010   -0.5640    0.6280 hn        1 0SS      0.351500
     49 H2          3.3610   -1.7790    2.3470 ha        1 0SS      0.147000
     50 H3          5.7300   -1.1920    1.9420 ha        1 0SS      0.150500
     51 H4          7.4170    0.5210    1.6470 hc        1 0SS      0.059700
     52 H5          7.5040    1.0540    3.3780 hc        1 0SS      0.059700
     53 H6          7.0740    2.2490    2.0850 hc        1 0SS      0.059700
     54 H7          5.0090    2.8250    3.3680 ha        1 0SS      0.150500
     55 H8          2.6220    2.2830    3.7480 ha        1 0SS      0.147000
     56 H9         -3.5720    1.2800    5.1360 hc        1 0SS      0.045589
     57 H10        -2.2360    2.1540    4.2750 hc        1 0SS      0.045589
     58 H11        -3.0860    0.7680    3.4650 hc        1 0SS      0.045589
     59 H12        -1.6490   -1.8790    5.7540 hc        1 0SS      0.045589
     60 H13        -2.7410   -1.5940    4.3310 hc        1 0SS      0.045589
     61 H14        -3.2360   -1.0310    5.9840 hc        1 0SS      0.045589
     62 H15        -0.7190    1.7370    6.2310 hc        1 0SS      0.045589
     63 H16        -2.0750    0.8740    7.0690 hc        1 0SS      0.045589
     64 H17        -0.4760    0.0480    6.8520 hc        1 0SS      0.045589
     65 H18        -1.6690   -0.8130    2.2470 ha        1 0SS      0.190000
     66 H19         0.5310   -3.2830   -1.3350 hn        1 0SS      0.461300
     67 H20        -0.0090   -1.0270   -2.1590 hx        1 0SS      0.114700
     68 H21         1.7320   -0.5800   -1.7980 hx        1 0SS      0.114700
     69 H22         2.5170   -2.4310   -3.3660 h1        1 0SS      0.054200
     70 H23         0.7790   -2.8410   -3.7440 h1        1 0SS      0.054200
     71 H25         3.5520   -0.9170   -4.8160 h1        1 0SS      0.051450
     72 H26         2.6220   -2.0660   -5.8870 h1        1 0SS      0.051450
     73 H27         3.3730   -0.2110   -7.2380 h1        1 0SS      0.080450
     74 H28         2.7960    1.0350   -6.0380 h1        1 0SS      0.080450
     75 H29        -0.1860   -1.7290   -5.5570 h1        1 0SS      0.051450
     76 H30        -0.5460   -0.4450   -4.3050 h1        1 0SS      0.051450
     77 H31         0.3200    1.3330   -5.7340 h1        1 0SS      0.080450
     78 H32        -0.7920    0.2720   -6.7340 h1        1 0SS      0.080450
     79 H33         2.4820   -0.0160   -9.4350 hn        1 0SS      0.331500
     80 H34         0.3580   -3.2920   -9.8500 ha        1 0SS      0.185000
     81 H35         1.7120   -4.2980  -14.3050 hc        1 0SS      0.040811
     82 H36         0.8080   -5.8330  -13.9660 hc        1 0SS      0.040811
     83 H37         2.0800   -5.2570  -12.8080 hc        1 0SS      0.040811
     84 H38         0.3300   -5.4300  -10.9740 hc        1 0SS      0.040811
     85 H39        -1.2320   -4.5190  -11.1340 hc        1 0SS      0.040811
     86 H40        -0.8980   -5.9440  -12.2050 hc        1 0SS      0.040811
     87 H41        -0.4190   -3.0400  -14.5100 hc        1 0SS      0.040811
     88 H42        -1.3680   -4.5510  -14.1810 hc        1 0SS      0.040811
     89 H43        -1.6420   -3.0700  -13.1690 hc        1 0SS      0.040811
     90 H44         4.1180   -1.1750  -13.3100 ha        1 0SS      0.150500
     91 H45         1.5470    1.5030  -11.0250 ha        1 0SS      0.150500
     92 H46         3.0960    3.3680  -11.4980 ha        1 0SS      0.142500
     93 H47         5.0710    3.7640  -13.9540 hc        1 0SS      0.051367
     94 H48         5.3200    4.0870  -12.1880 hc        1 0SS      0.051367
     95 H49         6.4310    2.9550  -13.0700 hc        1 0SS      0.051367
     96 H50         5.6300    0.7250  -13.7940 ha        1 0SS      0.142500
     97 H282        2.0400   -2.7630   -0.8590 hn        1 0SS      0.461300
@<TRIPOS>BOND
     1    1    2 2   
     2    2    3 1   
     3    2   20 1   
     4    3    4 1   
     5    3   48 1   
     6    4    5 1   
     7    4   19 2   
     8    5    6 1   
     9    5   13 1   
    10    6    7 ar  
    11    6   12 ar  
    12    7    8 ar  
    13    7   49 1   
    14    8    9 ar  
    15    8   50 1   
    16    9   10 1   
    17    9   11 ar  
    18   10   51 1   
    19   10   52 1   
    20   10   53 1   
    21   11   12 ar  
    22   11   54 1   
    23   12   55 1   
    24   13   14 2   
    25   14   15 1   
    26   14   19 1   
    27   15   16 1   
    28   15   17 1   
    29   15   18 1   
    30   16   56 1   
    31   16   57 1   
    32   16   58 1   
    33   17   59 1   
    34   17   60 1   
    35   17   61 1   
    36   18   62 1   
    37   18   63 1   
    38   18   64 1   
    39   19   65 1   
    40   20   21 1   
    41   20   66 1   
    42   20   97 1   
    43   21   22 1   
    44   21   67 1   
    45   21   68 1   
    46   22   23 1   
    47   22   69 1   
    48   22   70 1   
    49   23   24 1   
    50   23   26 1   
    51   24   25 1   
    52   24   71 1   
    53   24   72 1   
    54   25   28 1   
    55   25   73 1   
    56   25   74 1   
    57   26   27 1   
    58   26   75 1   
    59   26   76 1   
    60   27   28 1   
    61   27   77 1   
    62   27   78 1   
    63   28   29 1   
    64   29   30 2   
    65   29   31 1   
    66   31   32 1   
    67   31   79 1   
    68   32   33 2   
    69   32   40 1   
    70   33   34 1   
    71   33   80 1   
    72   34   35 1   
    73   34   39 2   
    74   35   36 1   
    75   35   37 1   
    76   35   38 1   
    77   36   81 1   
    78   36   82 1   
    79   36   83 1   
    80   37   84 1   
    81   37   85 1   
    82   37   86 1   
    83   38   87 1   
    84   38   88 1   
    85   38   89 1   
    86   39   40 1   
    87   40   41 1   
    88   41   42 ar  
    89   41   43 ar  
    90   42   47 ar  
    91   42   90 1   
    92   43   44 ar  
    93   43   91 1   
    94   44   45 ar  
    95   44   92 1   
    96   45   46 1   
    97   45   47 ar  
    98   46   93 1   
    99   46   94 1   
   100   46   95 1   
   101   47   96 1   
@<TRIPOS>SUBSTRUCTURE
     1 0SS         1 TEMP              0 ****  ****    0 ROOT
