@<TRIPOS>MOLECULE
0SS
   96   100     1     0     0
SMALL
bcc


@<TRIPOS>ATOM
      1 O31         4.4350   -1.5120    1.6570 o         1 0SS     -0.603100
      2 C29         4.3440   -1.2730    0.4330 c         1 0SS      0.759100
      3 N30         5.5010   -1.1680   -0.3910 n         1 0SS     -0.430100
      4 C32         6.7430   -0.9190    0.2030 cc        1 0SS      0.019300
      5 N35         7.7710   -0.1110   -0.3890 na        1 0SS      0.120300
      6 C41         7.7810    0.3160   -1.7470 ca        1 0SS      0.007800
      7 C46         7.4130   -0.5600   -2.7880 ca        1 0SS     -0.128500
      8 C45         7.3930   -0.1050   -4.1030 ca        1 0SS     -0.124000
      9 C44         7.7550    1.2100   -4.4140 ca        1 0SS     -0.074300
     10 C47         7.7490    1.6800   -5.8180 c3        1 0SS     -0.056800
     11 C43         8.1440    2.0690   -3.3800 ca        1 0SS     -0.124000
     12 C42         8.1620    1.6370   -2.0580 ca        1 0SS     -0.128500
     13 N36         8.8710   -0.0840    0.3910 nc        1 0SS     -0.494800
     14 C34         8.5860   -0.7850    1.5190 cd        1 0SS      0.332600
     15 C37         9.5050   -0.9700    2.6880 c3        1 0SS     -0.076300
     16 C40         8.8450   -0.3740    3.9270 c3        1 0SS     -0.084767
     17 C39         9.7280   -2.4650    2.9010 c3        1 0SS     -0.084767
     18 C38        10.8510   -0.2940    2.4670 c3        1 0SS     -0.084767
     19 C33         7.2460   -1.3390    1.4470 cd        1 0SS     -0.274300
     20 N28         3.0940   -1.1220   -0.1860 n         1 0SS     -0.564900
     21 C27         1.9030   -1.5250    0.5190 c3        1 0SS      0.086000
     22 C26         0.7210   -0.5740    0.2070 c3        1 0SS      0.161800
     23 N24        -0.4780   -0.9520    0.9410 n3        1 0SS     -0.732600
     24 C23        -1.3620    0.1830    1.1660 c3        1 0SS      0.137300
     25 C21        -2.6570   -0.2090    1.9110 c3        1 0SS      0.060500
     26 C25        -1.1650   -2.0940    0.3520 c3        1 0SS      0.137300
     27 C22        -2.4640   -2.4610    1.0970 c3        1 0SS      0.060500
     28 N19        -3.3620   -1.3390    1.3320 n         1 0SS     -0.417800
     29 C18        -4.3050   -1.0930    0.2780 c         1 0SS      0.736100
     30 O20        -4.3240   -1.8010   -0.7530 o         1 0SS     -0.601100
     31 N17        -5.2430   -0.0520    0.4590 n         1 0SS     -0.432100
     32 C10        -6.3600    0.0430   -0.3730 cc        1 0SS      0.024300
     33 C12        -6.4840   -0.2290   -1.7480 cd        1 0SS     -0.275300
     34 C11        -7.8500    0.1230   -2.0810 cd        1 0SS      0.333600
     35 C13        -8.4800   -0.0000   -3.4350 c3        1 0SS     -0.074300
     36 C16        -8.9670    1.3670   -3.9010 c3        1 0SS     -0.086100
     37 C15        -7.4620   -0.5340   -4.4350 c3        1 0SS     -0.086100
     38 C14        -9.6610   -0.9620   -3.3640 c3        1 0SS     -0.086100
     39 N9         -8.5020    0.5850   -0.9790 nc        1 0SS     -0.500800
     40 N8         -7.6540    0.4870    0.0630 na        1 0SS      0.128300
     41 C4         -7.9040    1.0900    1.3290 ca        1 0SS      0.006800
     42 C2         -8.4730    2.3770    1.4220 ca        1 0SS     -0.129000
     43 C6         -7.6060    0.3810    2.5110 ca        1 0SS     -0.129000
     44 C5         -7.8460    0.9660    3.7500 ca        1 0SS     -0.123000
     45 C3         -8.3990    2.2480    3.8460 ca        1 0SS     -0.074300
     46 C7         -8.6400    2.8650    5.1700 c3        1 0SS     -0.055800
     47 C1         -8.7140    2.9390    2.6710 ca        1 0SS     -0.123000
     48 H1          5.3810   -0.7780   -1.3040 hn        1 0SS      0.309500
     49 H2          7.1670   -1.6130   -2.5760 ha        1 0SS      0.152500
     50 H3          7.1000   -0.7960   -4.9090 ha        1 0SS      0.138000
     51 H4          7.4850    2.7650   -5.8740 hc        1 0SS      0.048033
     52 H5          8.7650    1.5440   -6.2680 hc        1 0SS      0.048033
     53 H6          7.0140    1.1040   -6.4320 hc        1 0SS      0.048033
     54 H7          8.4430    3.1030   -3.6150 ha        1 0SS      0.138000
     55 H8          8.4830    2.3250   -1.2600 ha        1 0SS      0.152500
     56 H9          7.8510   -0.8500    4.1050 hc        1 0SS      0.039033
     57 H10         9.4920   -0.5450    4.8200 hc        1 0SS      0.039033
     58 H11         8.6970    0.7250    3.7960 hc        1 0SS      0.039033
     59 H12        10.2300   -2.9130    2.0110 hc        1 0SS      0.039033
     60 H13        10.3740   -2.6260    3.7970 hc        1 0SS      0.039033
     61 H14         8.7520   -2.9830    3.0620 hc        1 0SS      0.039033
     62 H15        10.7200    0.8040    2.3220 hc        1 0SS      0.039033
     63 H16        11.5050   -0.4610    3.3570 hc        1 0SS      0.039033
     64 H17        11.3600   -0.7160    1.5680 hc        1 0SS      0.039033
     65 H18         6.7270   -1.9240    2.2000 ha        1 0SS      0.192000
     66 H19         3.0390   -1.1470   -1.1770 hn        1 0SS      0.299500
     67 H20         1.6250   -2.5790    0.2270 h1        1 0SS      0.066700
     68 H21         2.1080   -1.5130    1.6290 h1        1 0SS      0.066700
     69 H22         1.0160    0.4700    0.5140 h1        1 0SS      0.039200
     70 H23         0.5380   -0.5620   -0.9080 h1        1 0SS      0.039200
     71 H25        -0.8110    0.9260    1.8090 h1        1 0SS      0.045450
     72 H26        -1.6400    0.6990    0.2000 h1        1 0SS      0.045450
     73 H27        -2.3930   -0.5110    2.9660 h1        1 0SS      0.071700
     74 H28        -3.3060    0.7050    1.9670 h1        1 0SS      0.071700
     75 H29        -1.4150   -1.9200   -0.7360 h1        1 0SS      0.045450
     76 H30        -0.4730   -2.9790    0.4130 h1        1 0SS      0.045450
     77 H31        -2.9940   -3.2570    0.5030 h1        1 0SS      0.071700
     78 H32        -2.2100   -2.8730    2.1150 h1        1 0SS      0.071700
     79 H33        -5.3400    0.3400    1.3730 hn        1 0SS      0.322500
     80 H34        -5.7230   -0.6440   -2.4000 ha        1 0SS      0.189000
     81 H35        -9.7570    1.7570   -3.2160 hc        1 0SS      0.039478
     82 H36        -8.1210    2.0940   -3.9240 hc        1 0SS      0.039478
     83 H37        -9.3960    1.2840   -4.9290 hc        1 0SS      0.039478
     84 H38        -7.9340   -0.6200   -5.4430 hc        1 0SS      0.039478
     85 H39        -6.5870    0.1550   -4.5070 hc        1 0SS      0.039478
     86 H40        -7.1000   -1.5430   -4.1220 hc        1 0SS      0.039478
     87 H41       -10.4470   -0.5680   -2.6760 hc        1 0SS      0.039478
     88 H42       -10.1060   -1.0880   -4.3800 hc        1 0SS      0.039478
     89 H43        -9.3260   -1.9600   -2.9930 hc        1 0SS      0.039478
     90 H44        -8.7380    2.9370    0.5120 ha        1 0SS      0.151000
     91 H45        -7.2080   -0.6450    2.4670 ha        1 0SS      0.151000
     92 H46        -7.6100    0.4040    4.6670 ha        1 0SS      0.138500
     93 H47        -7.7490    3.4690    5.4770 hc        1 0SS      0.047700
     94 H48        -9.5280    3.5440    5.1370 hc        1 0SS      0.047700
     95 H49        -8.8200    2.0850    5.9500 hc        1 0SS      0.047700
     96 H50        -9.1620    3.9430    2.7340 ha        1 0SS      0.138500
@<TRIPOS>BOND
     1    1    2 2   
     2    2    3 1   
     3    2   20 1   
     4    3    4 1   
     5    3   48 1   
     6    4    5 1   
     7    4   19 2   
     8    5    6 1   
     9    5   13 1   
    10    6    7 ar  
    11    6   12 ar  
    12    7    8 ar  
    13    7   49 1   
    14    8    9 ar  
    15    8   50 1   
    16    9   10 1   
    17    9   11 ar  
    18   10   51 1   
    19   10   52 1   
    20   10   53 1   
    21   11   12 ar  
    22   11   54 1   
    23   12   55 1   
    24   13   14 2   
    25   14   15 1   
    26   14   19 1   
    27   15   16 1   
    28   15   17 1   
    29   15   18 1   
    30   16   56 1   
    31   16   57 1   
    32   16   58 1   
    33   17   59 1   
    34   17   60 1   
    35   17   61 1   
    36   18   62 1   
    37   18   63 1   
    38   18   64 1   
    39   19   65 1   
    40   20   21 1   
    41   20   66 1   
    42   21   22 1   
    43   21   67 1   
    44   21   68 1   
    45   22   23 1   
    46   22   69 1   
    47   22   70 1   
    48   23   24 1   
    49   23   26 1   
    50   24   25 1   
    51   24   71 1   
    52   24   72 1   
    53   25   28 1   
    54   25   73 1   
    55   25   74 1   
    56   26   27 1   
    57   26   75 1   
    58   26   76 1   
    59   27   28 1   
    60   27   77 1   
    61   27   78 1   
    62   28   29 1   
    63   29   30 2   
    64   29   31 1   
    65   31   32 1   
    66   31   79 1   
    67   32   33 2   
    68   32   40 1   
    69   33   34 1   
    70   33   80 1   
    71   34   35 1   
    72   34   39 2   
    73   35   36 1   
    74   35   37 1   
    75   35   38 1   
    76   36   81 1   
    77   36   82 1   
    78   36   83 1   
    79   37   84 1   
    80   37   85 1   
    81   37   86 1   
    82   38   87 1   
    83   38   88 1   
    84   38   89 1   
    85   39   40 1   
    86   40   41 1   
    87   41   42 ar  
    88   41   43 ar  
    89   42   47 ar  
    90   42   90 1   
    91   43   44 ar  
    92   43   91 1   
    93   44   45 ar  
    94   44   92 1   
    95   45   46 1   
    96   45   47 ar  
    97   46   93 1   
    98   46   94 1   
    99   46   95 1   
   100   47   96 1   
@<TRIPOS>SUBSTRUCTURE
     1 0SS         1 TEMP              0 ****  ****    0 ROOT
