@<TRIPOS>MOLECULE
0ST
   59    55     1     0     0
SMALL
bcc


@<TRIPOS>ATOM
      1 O21        -1.4310    0.5540   -0.7170 o         1 0ST     -0.358000
      2 C18        -0.4020   -0.1050   -0.8270 c1        1 0ST      0.366000
      3 N17         0.1760   -0.7370    0.3290 n3        1 0ST     -0.283000
      4 C11        -0.4580   -0.5940    1.6270 c2        1 0ST      0.050000
      5 C12        -1.6350    0.0920    1.8860 c1        1 0ST     -0.210000
      6 C10        -1.9380   -0.0740    3.2260 c1        1 0ST     -0.090000
      7 C13        -3.1680    0.5470    3.9820 c2        1 0ST      0.019000
      8 C16        -4.4980    0.1350    3.2500 c3        1 0ST     -0.202667
      9 C15        -3.1940    0.0190    5.4430 c3        1 0ST     -0.202667
     10 C14        -3.0420    2.0690    3.9950 c3        1 0ST     -0.202667
     11 N9         -0.9650   -0.8500    3.7870 n2        1 0ST     -0.061000
     12 N8         -0.0430   -1.1740    2.7920 n2        1 0ST     -0.119000
     13 C4          1.1300   -1.9900    2.9530 c1        1 0ST     -0.006500
     14 C2          1.0380   -3.3770    2.8220 c2        1 0ST     -0.114000
     15 C6          2.3670   -1.3920    3.2920 c1        1 0ST     -0.138000
     16 C5          3.4870   -2.1820    3.4930 c1        1 0ST     -0.138000
     17 C3          3.3950   -3.5780    3.3610 c1        1 0ST     -0.006500
     18 C7          4.6230   -4.4200    3.4770 c2        1 0ST     -0.181000
     19 C1          2.1650   -4.1730    3.0240 c2        1 0ST     -0.114000
     20 N19         0.2630   -0.2310   -2.1410 n2        1 0ST     -0.342000
     21 C20        -0.3870    0.2300   -3.3290 c3        1 0ST     -0.043000
     22 C22         0.6500    0.5660   -4.3520 c3        1 0ST     -0.100000
     23 N23         0.2680    1.7580   -5.0450 n3        1 0ST     -0.251000
     24 C28         1.4020    2.7980   -4.9640 c3        1 0ST     -0.102500
     25 C27         1.1140    4.0470   -5.7890 c3        1 0ST     -0.039000
     26 O25         0.2310    3.8230   -6.6620 os        1 0ST     -0.278000
     27 C24         0.1010    2.7750   -7.3740 c3        1 0ST     -0.039000
     28 C26         0.3800    1.5280   -6.5700 c3        1 0ST     -0.102500
     29 H1          0.8900   -1.2780    0.2340 hn        1 0ST      0.224000
     30 H2         -2.1570    0.5770    1.2460 DU        1 0ST      0.192000
     31 H3         -5.2750    0.3940    3.8070 hc        1 0ST      0.078556
     32 H4         -4.5510    0.5980    2.3690 hc        1 0ST      0.078556
     33 H5         -4.5060   -0.8540    3.1050 hc        1 0ST      0.078556
     34 H6         -3.2490   -0.9640    5.4360 hc        1 0ST      0.078556
     35 H7         -2.3470    0.3070    5.9210 hc        1 0ST      0.078556
     36 H8         -3.9700    0.3840    5.9090 hc        1 0ST      0.078556
     37 H9         -3.7290    2.4580    4.6230 hc        1 0ST      0.078556
     38 H10        -3.1930    2.4190    3.0880 hc        1 0ST      0.078556
     39 H11        -2.1530    2.3170    4.2920 hc        1 0ST      0.078556
     40 H12         0.1440   -3.8080    2.5800 ha        1 0ST      0.148500
     41 H13         2.4340   -0.4080    3.3860 ha        1 0ST      0.142000
     42 H14         4.3640   -1.7580    3.7340 ha        1 0ST      0.142000
     43 H15         4.4820   -5.2890    2.9890 ha        1 0ST      0.087000
     44 H16         5.3840   -3.9460    3.0840 ha        1 0ST      0.087000
     45 H17         4.8080   -4.6050    4.4320 ha        1 0ST      0.087000
     46 H18         2.1000   -5.1450    2.9310 ha        1 0ST      0.148500
     47 H19         1.0770   -0.6450   -2.2010 hn        1 0ST      0.201000
     48 H20        -0.9660   -0.4680   -3.6730 h1        1 0ST      0.117500
     49 H21        -0.8920    0.9870   -3.1370 h1        1 0ST      0.117500
     50 H22         0.7300   -0.1870   -5.0030 h1        1 0ST      0.078500
     51 H23         1.5380    0.7100   -3.8940 h1        1 0ST      0.078500
     52 H25         1.5280    3.0610   -4.0170 h1        1 0ST      0.093500
     53 H26         2.2160    2.3940   -5.2860 h1        1 0ST      0.093500
     54 H27         0.8050    4.7610   -5.1940 h1        1 0ST      0.090500
     55 H28         1.9390    4.3360   -6.2340 h1        1 0ST      0.090500
     56 H29         0.7530    2.8210   -8.1600 h1        1 0ST      0.090500
     57 H30        -0.8270    2.7330   -7.7240 h1        1 0ST      0.090500
     58 H31        -0.2790    0.8090   -6.8410 h1        1 0ST      0.093500
     59 H32         1.2710    1.2250   -6.7710 h1        1 0ST      0.093500
@<TRIPOS>BOND
     1    1    2 1   
     2    2    3 1   
     3    3    4 1   
     4    3   29 1   
     5    4    5 1   
     6    4   12 1   
     7    5    6 1   
     8    6   11 1   
     9    7    8 1   
    10    7    9 1   
    11    7   10 1   
    12    8   31 1   
    13    8   32 1   
    14    8   33 1   
    15    9   34 1   
    16    9   35 1   
    17    9   36 1   
    18   10   37 1   
    19   10   38 1   
    20   10   39 1   
    21   11   12 1   
    22   13   14 1   
    23   13   15 1   
    24   14   19 1   
    25   14   40 1   
    26   15   41 1   
    27   16   17 1   
    28   16   42 1   
    29   17   19 1   
    30   18   43 1   
    31   18   44 1   
    32   18   45 1   
    33   19   46 1   
    34   20   21 1   
    35   20   47 1   
    36   21   22 1   
    37   21   48 1   
    38   21   49 1   
    39   22   23 1   
    40   22   50 1   
    41   22   51 1   
    42   23   24 1   
    43   23   28 1   
    44   24   25 1   
    45   24   52 1   
    46   24   53 1   
    47   25   26 1   
    48   25   54 1   
    49   25   55 1   
    50   26   27 1   
    51   27   28 1   
    52   27   56 1   
    53   27   57 1   
    54   28   58 1   
    55   28   59 1   
@<TRIPOS>SUBSTRUCTURE
     1 0ST         1 TEMP              0 ****  ****    0 ROOT
