@<TRIPOS>MOLECULE
0ST
   60    62     1     0     0
SMALL
bcc


@<TRIPOS>ATOM
      1 O21         1.6390   -2.4140    0.6850 o         1 0ST     -0.464100
      2 C18         1.8380   -1.2590    0.3040 c         1 0ST      0.647100
      3 N17         1.4330   -0.0670    0.8470 ns        1 0ST     -0.380100
      4 C11         0.7830   -0.0430    2.0930 cc        1 0ST     -0.092700
      5 C12        -0.6040    0.0150    2.3520 cd        1 0ST     -0.201300
      6 C10        -0.7040    0.1030    3.7900 cd        1 0ST      0.326600
      7 C13        -1.9720    0.1940    4.5850 c3        1 0ST     -0.077300
      8 C16        -2.0680   -1.0000    5.5290 c3        1 0ST     -0.090767
      9 C15        -1.9750    1.4850    5.3960 c3        1 0ST     -0.090767
     10 C14        -3.1730    0.1890    3.6470 c3        1 0ST     -0.090767
     11 N9          0.5470    0.0880    4.3480 nc        1 0ST     -0.435800
     12 N8          1.4350   -0.0090    3.3600 na        1 0ST      0.173300
     13 C4          2.8500   -0.0520    3.5640 ca        1 0ST     -0.033200
     14 C2          3.5040    1.0210    4.1980 ca        1 0ST     -0.119000
     15 C6          3.5860   -1.1830    3.1620 ca        1 0ST     -0.119000
     16 C5          4.9600   -1.2190    3.3710 ca        1 0ST     -0.128500
     17 C3          5.6220   -0.1510    3.9890 ca        1 0ST     -0.045300
     18 C7          7.0800   -0.2110    4.2360 c3        1 0ST     -0.067800
     19 C1          4.8810    0.9630    4.3990 ca        1 0ST     -0.128500
     20 N19         2.6090   -1.1960   -1.0310 ny        1 0ST     -0.673800
     21 C20         1.7880   -0.6130   -2.1260 c3        1 0ST      0.086800
     22 C22         2.4770   -0.7660   -3.5090 c3        1 0ST      0.167800
     23 N23         1.6730   -0.1120   -4.5180 n3        1 0ST     -0.746600
     24 C28         2.4550    0.6810   -5.4600 c3        1 0ST      0.134800
     25 C27         1.5760    1.3370   -6.5350 c3        1 0ST      0.125900
     26 O25         0.7460    0.3800   -7.1780 os        1 0ST     -0.394600
     27 C24        -0.0950   -0.3010   -6.2570 c3        1 0ST      0.125900
     28 C26         0.7300   -1.0110   -5.1740 c3        1 0ST      0.134800
     29 H1          1.7930    0.8030    0.5150 hn        1 0ST      0.353500
     30 H2         -1.4180    0.0040    1.6350 ha        1 0ST      0.184000
     31 H3         -3.0320   -0.9550    6.0910 hc        1 0ST      0.045478
     32 H4         -2.0340   -1.9560    4.9540 hc        1 0ST      0.045478
     33 H5         -1.2280   -0.9900    6.2630 hc        1 0ST      0.045478
     34 H6         -1.1360    1.4900    6.1320 hc        1 0ST      0.045478
     35 H7         -2.9380    1.5720    5.9550 hc        1 0ST      0.045478
     36 H8         -1.8720    2.3690    4.7230 hc        1 0ST      0.045478
     37 H9         -4.1130    0.2570    4.2460 hc        1 0ST      0.045478
     38 H10        -3.1320    1.0600    2.9510 hc        1 0ST      0.045478
     39 H11        -3.2020   -0.7540    3.0500 hc        1 0ST      0.045478
     40 H12         2.9360    1.8960    4.5540 ha        1 0ST      0.154000
     41 H13         3.0760   -2.0550    2.7190 ha        1 0ST      0.154000
     42 H14         5.5310   -2.1130    3.0710 ha        1 0ST      0.151000
     43 H15         7.5860   -0.8980    3.5140 hc        1 0ST      0.059700
     44 H16         7.5430    0.8030    4.1480 hc        1 0ST      0.059700
     45 H17         7.2710   -0.5920    5.2720 hc        1 0ST      0.059700
     46 H18         5.3890    1.8020    4.9010 ha        1 0ST      0.151000
     47 H19         2.8550   -2.1690   -1.2680 hn        1 0ST      0.460300
     48 H20         0.7920   -1.1440   -2.1330 hx        1 0ST      0.114700
     49 H21         1.6140    0.4780   -1.9040 hx        1 0ST      0.114700
     50 H22         2.6160   -1.8680   -3.7180 h1        1 0ST      0.053700
     51 H23         3.4980   -0.2920   -3.4580 h1        1 0ST      0.053700
     52 H25         2.9780    1.4930   -4.8830 h1        1 0ST      0.046950
     53 H26         3.2370    0.0500   -5.9740 h1        1 0ST      0.046950
     54 H27         0.9470    2.1520   -6.0900 h1        1 0ST      0.069450
     55 H28         2.2220    1.7480   -7.3560 h1        1 0ST      0.069450
     56 H29        -0.8200    0.4200   -5.7950 h1        1 0ST      0.069450
     57 H30        -0.6410   -1.0580   -6.8800 h1        1 0ST      0.069450
     58 H31         0.0270   -1.4090   -4.3910 h1        1 0ST      0.046950
     59 H32         1.2610   -1.8870   -5.6490 h1        1 0ST      0.046950
     60 H192        3.4760   -0.6640   -0.9200 hn        1 0ST      0.460300
@<TRIPOS>BOND
     1    1    2 2   
     2    2    3 1   
     3    2   20 1   
     4    3    4 1   
     5    3   29 1   
     6    4    5 2   
     7    4   12 1   
     8    5    6 1   
     9    5   30 1   
    10    6    7 1   
    11    6   11 2   
    12    7    8 1   
    13    7    9 1   
    14    7   10 1   
    15    8   31 1   
    16    8   32 1   
    17    8   33 1   
    18    9   34 1   
    19    9   35 1   
    20    9   36 1   
    21   10   37 1   
    22   10   38 1   
    23   10   39 1   
    24   11   12 1   
    25   12   13 1   
    26   13   14 ar  
    27   13   15 ar  
    28   14   19 ar  
    29   14   40 1   
    30   15   16 ar  
    31   15   41 1   
    32   16   17 ar  
    33   16   42 1   
    34   17   18 1   
    35   17   19 ar  
    36   18   43 1   
    37   18   44 1   
    38   18   45 1   
    39   19   46 1   
    40   20   21 1   
    41   20   47 1   
    42   20   60 1   
    43   21   22 1   
    44   21   48 1   
    45   21   49 1   
    46   22   23 1   
    47   22   50 1   
    48   22   51 1   
    49   23   24 1   
    50   23   28 1   
    51   24   25 1   
    52   24   52 1   
    53   24   53 1   
    54   25   26 1   
    55   25   54 1   
    56   25   55 1   
    57   26   27 1   
    58   27   28 1   
    59   27   56 1   
    60   27   57 1   
    61   28   58 1   
    62   28   59 1   
@<TRIPOS>SUBSTRUCTURE
     1 0ST         1 TEMP              0 ****  ****    0 ROOT
