@<TRIPOS>MOLECULE
0ST
   59    61     1     0     0
SMALL
bcc


@<TRIPOS>ATOM
      1 O21        -0.9460   -1.6840   -0.1620 o         1 0ST     -0.600100
      2 C18        -0.7640   -0.4650   -0.3710 c         1 0ST      0.752100
      3 N17         0.5250    0.0510   -0.6870 n         1 0ST     -0.428100
      4 C11         1.6600   -0.7060   -0.3760 cc        1 0ST      0.018300
      5 C12         1.8390   -2.1010   -0.3770 cd        1 0ST     -0.274300
      6 C10         3.2210   -2.3050    0.0180 cd        1 0ST      0.332600
      7 C13         3.8580   -3.6530    0.1640 c3        1 0ST     -0.076300
      8 C16         3.7590   -4.3860   -1.1700 c3        1 0ST     -0.084767
      9 C15         5.3230   -3.5510    0.5670 c3        1 0ST     -0.084767
     10 C14         3.1010   -4.4370    1.2320 c3        1 0ST     -0.084767
     11 N9          3.8330   -1.1120    0.2360 nc        1 0ST     -0.494800
     12 N8          2.9100   -0.1460    0.0510 na        1 0ST      0.120300
     13 C4          3.2470    1.2350   -0.0300 ca        1 0ST      0.008800
     14 C2          3.9140    1.8520    1.0480 ca        1 0ST     -0.128000
     15 C6          2.9230    1.9970   -1.1700 ca        1 0ST     -0.128000
     16 C5          3.2290    3.3540   -1.2060 ca        1 0ST     -0.124000
     17 C3          3.8760    3.9740   -0.1320 ca        1 0ST     -0.074300
     18 C7          4.2150    5.4140   -0.1870 c3        1 0ST     -0.055800
     19 C1          4.2190    3.2080    0.9880 ca        1 0ST     -0.124000
     20 N19        -1.8330    0.4470   -0.3190 n         1 0ST     -0.553900
     21 C20        -3.1770   -0.0830   -0.3220 c3        1 0ST      0.081000
     22 C22        -4.1880    0.9630    0.2030 c3        1 0ST      0.162800
     23 N23        -5.5220    0.4030    0.3600 n3        1 0ST     -0.723600
     24 C28        -6.3590    1.2410    1.2120 c3        1 0ST      0.131800
     25 C27        -7.7920    0.7120    1.3320 c3        1 0ST      0.126400
     26 O25        -8.3790    0.4940    0.0550 os        1 0ST     -0.414600
     27 C24        -7.6070   -0.3960   -0.7420 c3        1 0ST      0.126400
     28 C26        -6.1660    0.1000   -0.9120 c3        1 0ST      0.131800
     29 H1          0.6470    1.0420   -0.6250 hn        1 0ST      0.309500
     30 H2          1.0910   -2.8580   -0.5950 ha        1 0ST      0.192000
     31 H3          4.3250   -3.8360   -1.9580 hc        1 0ST      0.039256
     32 H4          4.1870   -5.4120   -1.0700 hc        1 0ST      0.039256
     33 H5          2.6920   -4.4710   -1.4880 hc        1 0ST      0.039256
     34 H6          5.4250   -3.0300    1.5480 hc        1 0ST      0.039256
     35 H7          5.7580   -4.5750    0.6590 hc        1 0ST      0.039256
     36 H8          5.9020   -2.9840   -0.2010 hc        1 0ST      0.039256
     37 H9          2.0210   -4.5190    0.9610 hc        1 0ST      0.039256
     38 H10         3.5300   -5.4640    1.3220 hc        1 0ST      0.039256
     39 H11         3.1840   -3.9260    2.2200 hc        1 0ST      0.039256
     40 H12         4.2030    1.2640    1.9330 ha        1 0ST      0.152500
     41 H13         2.4530    1.5260   -2.0480 ha        1 0ST      0.152500
     42 H14         2.9680    3.9430   -2.0990 ha        1 0ST      0.138000
     43 H15         4.1580    5.8770    0.8300 hc        1 0ST      0.047700
     44 H16         5.2580    5.5450   -0.5720 hc        1 0ST      0.047700
     45 H17         3.5200    5.9660   -0.8660 hc        1 0ST      0.047700
     46 H18         4.7390    3.6830    1.8340 ha        1 0ST      0.138000
     47 H19        -1.7220    1.3320   -0.7580 hn        1 0ST      0.294500
     48 H20        -3.4680   -0.3960   -1.3670 h1        1 0ST      0.064700
     49 H21        -3.2000   -1.0000    0.3330 h1        1 0ST      0.064700
     50 H22        -3.8440    1.3190    1.2160 h1        1 0ST      0.037200
     51 H23        -4.1890    1.8540   -0.4920 h1        1 0ST      0.037200
     52 H25        -5.8980    1.2560    2.2390 h1        1 0ST      0.041450
     53 H26        -6.4020    2.3040    0.8330 h1        1 0ST      0.041450
     54 H27        -7.8140   -0.2410    1.9240 h1        1 0ST      0.056200
     55 H28        -8.4480    1.4820    1.8150 h1        1 0ST      0.056200
     56 H29        -7.6220   -1.4200   -0.2830 h1        1 0ST      0.056200
     57 H30        -8.1290   -0.4090   -1.7340 h1        1 0ST      0.056200
     58 H31        -6.1760    0.9980   -1.5970 h1        1 0ST      0.041450
     59 H32        -5.5720   -0.7140   -1.4130 h1        1 0ST      0.041450
@<TRIPOS>BOND
     1    1    2 2   
     2    2    3 1   
     3    2   20 1   
     4    3    4 1   
     5    3   29 1   
     6    4    5 2   
     7    4   12 1   
     8    5    6 1   
     9    5   30 1   
    10    6    7 1   
    11    6   11 2   
    12    7    8 1   
    13    7    9 1   
    14    7   10 1   
    15    8   31 1   
    16    8   32 1   
    17    8   33 1   
    18    9   34 1   
    19    9   35 1   
    20    9   36 1   
    21   10   37 1   
    22   10   38 1   
    23   10   39 1   
    24   11   12 1   
    25   12   13 1   
    26   13   14 ar  
    27   13   15 ar  
    28   14   19 ar  
    29   14   40 1   
    30   15   16 ar  
    31   15   41 1   
    32   16   17 ar  
    33   16   42 1   
    34   17   18 1   
    35   17   19 ar  
    36   18   43 1   
    37   18   44 1   
    38   18   45 1   
    39   19   46 1   
    40   20   21 1   
    41   20   47 1   
    42   21   22 1   
    43   21   48 1   
    44   21   49 1   
    45   22   23 1   
    46   22   50 1   
    47   22   51 1   
    48   23   24 1   
    49   23   28 1   
    50   24   25 1   
    51   24   52 1   
    52   24   53 1   
    53   25   26 1   
    54   25   54 1   
    55   25   55 1   
    56   26   27 1   
    57   27   28 1   
    58   27   56 1   
    59   27   57 1   
    60   28   58 1   
    61   28   59 1   
@<TRIPOS>SUBSTRUCTURE
     1 0ST         1 TEMP              0 ****  ****    0 ROOT
