@<TRIPOS>MOLECULE
0ST
   60    62     1     0     0
SMALL
bcc


@<TRIPOS>ATOM
      1 O21         1.6150   -2.4170    0.6720 o         1 0ST     -0.464100
      2 C18         1.8290   -1.2630    0.2980 c         1 0ST      0.647100
      3 N17         1.4380   -0.0690    0.8480 n         1 0ST     -0.380100
      4 C11         0.7860   -0.0440    2.0930 cc        1 0ST     -0.092700
      5 C12        -0.6010    0.0300    2.3500 cd        1 0ST     -0.201300
      6 C10        -0.7030    0.1100    3.7880 cd        1 0ST      0.326600
      7 C13        -1.9700    0.2130    4.5810 c3        1 0ST     -0.077300
      8 C16        -2.0840   -0.9860    5.5170 c3        1 0ST     -0.090767
      9 C15        -1.9570    1.4980    5.4020 c3        1 0ST     -0.090767
     10 C14        -3.1690    0.2310    3.6420 c3        1 0ST     -0.090767
     11 N9          0.5470    0.0760    4.3490 nc        1 0ST     -0.435800
     12 N8          1.4360   -0.0280    3.3610 na        1 0ST      0.173300
     13 C4          2.8500   -0.0900    3.5670 ca        1 0ST     -0.033200
     14 C2          3.5170    0.9710    4.2090 ca        1 0ST     -0.119000
     15 C6          3.5710   -1.2290    3.1600 ca        1 0ST     -0.119000
     16 C5          4.9450   -1.2840    3.3710 ca        1 0ST     -0.128500
     17 C3          5.6200   -0.2280    3.9970 ca        1 0ST     -0.045300
     18 C7          7.0770   -0.3090    4.2460 c3        1 0ST     -0.067800
     19 C1          4.8920    0.8930    4.4120 ca        1 0ST     -0.128500
     20 N19         2.6020   -1.2010   -1.0360 n4        1 0ST     -0.673800
     21 C20         1.7880   -0.6030   -2.1290 c3        1 0ST      0.086800
     22 C22         2.4780   -0.7550   -3.5120 c3        1 0ST      0.167800
     23 N23         1.6810   -0.0870   -4.5170 n3        1 0ST     -0.746600
     24 C28         2.4720    0.7050   -5.4540 c3        1 0ST      0.134800
     25 C27         1.6010    1.3750   -6.5260 c3        1 0ST      0.125900
     26 O25         0.7630    0.4300   -7.1760 os        1 0ST     -0.394600
     27 C24        -0.0850   -0.2490   -6.2610 c3        1 0ST      0.125900
     28 C26         0.7320   -0.9730   -5.1810 c3        1 0ST      0.134800
     29 H1          1.8090    0.7990    0.5210 hn        1 0ST      0.353500
     30 H2         -1.4140    0.0350    1.6310 ha        1 0ST      0.184000
     31 H3         -2.0620   -1.9380    4.9360 hc        1 0ST      0.045478
     32 H4         -3.0480   -0.9320    6.0780 hc        1 0ST      0.045478
     33 H5         -1.2450   -0.9930    6.2530 hc        1 0ST      0.045478
     34 H6         -1.1190    1.4860    6.1390 hc        1 0ST      0.045478
     35 H7         -2.9200    1.5950    5.9600 hc        1 0ST      0.045478
     36 H8         -1.8400    2.3860    4.7350 hc        1 0ST      0.045478
     37 H9         -3.1160    1.1060    2.9510 hc        1 0ST      0.045478
     38 H10        -4.1100    0.3080    4.2390 hc        1 0ST      0.045478
     39 H11        -3.2100   -0.7080    3.0380 hc        1 0ST      0.045478
     40 H12         2.9590    1.8510    4.5690 ha        1 0ST      0.154000
     41 H13         3.0510   -2.0910    2.7110 ha        1 0ST      0.154000
     42 H14         5.5040   -2.1830    3.0670 ha        1 0ST      0.151000
     43 H15         7.2610   -0.6980    5.2800 hc        1 0ST      0.059700
     44 H16         7.5530    0.7000    4.1640 hc        1 0ST      0.059700
     45 H17         7.5740   -0.9980    3.5210 hc        1 0ST      0.059700
     46 H18         5.4110    1.7230    4.9200 ha        1 0ST      0.151000
     47 H19         3.4740   -0.6800   -0.9210 hn        1 0ST      0.460300
     48 H20         1.6260    0.4890   -1.9000 hx        1 0ST      0.114700
     49 H21         0.7870   -1.1230   -2.1400 hx        1 0ST      0.114700
     50 H22         2.6070   -1.8570   -3.7260 h1        1 0ST      0.053700
     51 H23         3.5040   -0.2910   -3.4570 h1        1 0ST      0.053700
     52 H25         3.2490    0.0710   -5.9700 h1        1 0ST      0.046950
     53 H26         3.0010    1.5090   -4.8710 h1        1 0ST      0.046950
     54 H27         2.2520    1.7860   -7.3430 h1        1 0ST      0.069450
     55 H28         0.9780    2.1930   -6.0770 h1        1 0ST      0.069450
     56 H29        -0.8040    0.4750   -5.7960 h1        1 0ST      0.069450
     57 H30        -0.6370   -0.9970   -6.8890 h1        1 0ST      0.069450
     58 H31         1.2560   -1.8510   -5.6600 h1        1 0ST      0.046950
     59 H32         0.0240   -1.3700   -4.4010 h1        1 0ST      0.046950
     60 H192        2.8370   -2.1760   -1.2780 hn        1 0ST      0.460300
@<TRIPOS>BOND
     1    1    2 2   
     2    2    3 1   
     3    2   20 1   
     4    3    4 1   
     5    3   29 1   
     6    4    5 2   
     7    4   12 1   
     8    5    6 1   
     9    5   30 1   
    10    6    7 1   
    11    6   11 2   
    12    7    8 1   
    13    7    9 1   
    14    7   10 1   
    15    8   31 1   
    16    8   32 1   
    17    8   33 1   
    18    9   34 1   
    19    9   35 1   
    20    9   36 1   
    21   10   37 1   
    22   10   38 1   
    23   10   39 1   
    24   11   12 1   
    25   12   13 1   
    26   13   14 ar  
    27   13   15 ar  
    28   14   19 ar  
    29   14   40 1   
    30   15   16 ar  
    31   15   41 1   
    32   16   17 ar  
    33   16   42 1   
    34   17   18 1   
    35   17   19 ar  
    36   18   43 1   
    37   18   44 1   
    38   18   45 1   
    39   19   46 1   
    40   20   21 1   
    41   20   47 1   
    42   20   60 1   
    43   21   22 1   
    44   21   48 1   
    45   21   49 1   
    46   22   23 1   
    47   22   50 1   
    48   22   51 1   
    49   23   24 1   
    50   23   28 1   
    51   24   25 1   
    52   24   52 1   
    53   24   53 1   
    54   25   26 1   
    55   25   54 1   
    56   25   55 1   
    57   26   27 1   
    58   27   28 1   
    59   27   56 1   
    60   27   57 1   
    61   28   58 1   
    62   28   59 1   
@<TRIPOS>SUBSTRUCTURE
     1 0ST         1 TEMP              0 ****  ****    0 ROOT
