@<TRIPOS>MOLECULE
0ST
   61    63     1     0     0
SMALL
bcc


@<TRIPOS>ATOM
      1 O21         4.0770    1.5460   -0.4650 o         1 0ST     -0.302100
      2 C18         3.0590    1.1710    0.0920 c         1 0ST      0.476100
      3 N17         2.6610    1.7900    1.4110 n4        1 0ST     -0.444200
      4 C11         1.6480    1.0530    2.1060 cc        1 0ST     -0.280700
      5 C12         0.2290    1.1660    1.9770 cd        1 0ST     -0.213300
      6 C10        -0.2920    0.2900    2.9790 cd        1 0ST      0.366600
      7 C13        -1.7390    0.0250    3.2830 c3        1 0ST     -0.087300
      8 C16        -2.0350   -1.4590    3.0920 c3        1 0ST     -0.097100
      9 C15        -2.0310    0.4220    4.7260 c3        1 0ST     -0.097100
     10 C14        -2.6170    0.8440    2.3460 c3        1 0ST     -0.097100
     11 N9          0.7550   -0.3030    3.6690 nc        1 0ST     -0.376800
     12 N8          1.8910    0.1310    3.1680 na        1 0ST      0.266300
     13 C4          3.1980   -0.1390    3.6970 ca        1 0ST     -0.103200
     14 C2          3.4120   -0.1240    5.0870 ca        1 0ST     -0.114500
     15 C6          4.2620   -0.4500    2.8210 ca        1 0ST     -0.114500
     16 C5          5.5220   -0.7120    3.3390 ca        1 0ST     -0.103500
     17 C3          5.7530   -0.6840    4.7260 ca        1 0ST      0.002700
     18 C7          7.0950   -0.9860    5.2690 c3        1 0ST     -0.087800
     19 C1          4.6870   -0.3930    5.5850 ca        1 0ST     -0.103500
     20 N19         2.1930    0.1100   -0.4900 n4        1 0ST     -0.632800
     21 C20         1.9220    0.3650   -1.9540 c3        1 0ST      0.076800
     22 C22         1.1950   -0.8570   -2.6110 c3        1 0ST      0.190800
     23 N23         0.9440   -0.5210   -3.9830 n3        1 0ST     -0.762600
     24 C28         1.7720   -1.2450   -4.9420 c3        1 0ST      0.140800
     25 C27         1.4780   -0.8340   -6.3940 c3        1 0ST      0.124400
     26 O25         0.0880   -0.9120   -6.6730 os        1 0ST     -0.381600
     27 C24        -0.6740   -0.0730   -5.8190 c3        1 0ST      0.124400
     28 C26        -0.4670   -0.4540   -4.3440 c3        1 0ST      0.140800
     29 H1          3.5300    1.8520    1.9910 hn        1 0ST      0.519800
     30 H2         -0.3410    1.8020    1.3020 ha        1 0ST      0.202000
     31 H3         -1.8050   -1.7770    2.0480 hc        1 0ST      0.056367
     32 H4         -3.1200   -1.6460    3.2890 hc        1 0ST      0.056367
     33 H5         -1.4390   -2.0790    3.8040 hc        1 0ST      0.056367
     34 H6         -1.4470   -0.2080    5.4380 hc        1 0ST      0.056367
     35 H7         -1.7810    1.4960    4.8980 hc        1 0ST      0.056367
     36 H8         -3.1190    0.2730    4.9360 hc        1 0ST      0.056367
     37 H9         -2.4280    0.5690    1.2810 hc        1 0ST      0.056367
     38 H10        -3.6930    0.6370    2.5750 hc        1 0ST      0.056367
     39 H11        -2.4350    1.9360    2.4840 hc        1 0ST      0.056367
     40 H12         2.5880    0.0880    5.7920 ha        1 0ST      0.132500
     41 H13         4.0980   -0.5530    1.7390 ha        1 0ST      0.132500
     42 H14         6.3540   -0.9620    2.6580 ha        1 0ST      0.176500
     43 H15         7.3060   -0.3720    6.1810 hc        1 0ST      0.081033
     44 H16         7.8950   -0.7890    4.5130 hc        1 0ST      0.081033
     45 H17         7.1480   -2.0680    5.5610 hc        1 0ST      0.081033
     46 H18         4.8510   -0.3820    6.6780 ha        1 0ST      0.176500
     47 H19         1.2940    0.0290    0.0180 hn        1 0ST      0.496300
     48 H20         1.2830    1.2880   -2.0330 hx        1 0ST      0.128700
     49 H21         2.9100    0.5450   -2.4700 hx        1 0ST      0.128700
     50 H22         1.8630   -1.7600   -2.5060 h1        1 0ST      0.061700
     51 H23         0.2390   -1.0500   -2.0440 h1        1 0ST      0.061700
     52 H25         2.8500   -1.0160   -4.7160 h1        1 0ST      0.050200
     53 H26         1.6150   -2.3590   -4.8480 h1        1 0ST      0.050200
     54 H27         1.9510   -1.5670   -7.1000 h1        1 0ST      0.077200
     55 H28         1.8550    0.2020   -6.5970 h1        1 0ST      0.077200
     56 H29        -0.4060    1.0020   -5.9920 h1        1 0ST      0.077200
     57 H30        -1.7410   -0.2620   -6.1130 h1        1 0ST      0.077200
     58 H31        -0.9770   -1.4430   -4.1560 h1        1 0ST      0.050200
     59 H32        -0.9580    0.3270   -3.7000 h1        1 0ST      0.050200
     60 H172        2.3100    2.7510    1.2280 hn        1 0ST      0.519800
     61 H192        2.6970   -0.7910   -0.3970 hn        1 0ST      0.496300
@<TRIPOS>BOND
     1    1    2 2   
     2    2    3 1   
     3    2   20 1   
     4    3    4 1   
     5    3   29 1   
     6    3   60 1   
     7    4    5 2   
     8    4   12 1   
     9    5    6 1   
    10    5   30 1   
    11    6    7 1   
    12    6   11 2   
    13    7    8 1   
    14    7    9 1   
    15    7   10 1   
    16    8   31 1   
    17    8   32 1   
    18    8   33 1   
    19    9   34 1   
    20    9   35 1   
    21    9   36 1   
    22   10   37 1   
    23   10   38 1   
    24   10   39 1   
    25   11   12 1   
    26   12   13 1   
    27   13   14 ar  
    28   13   15 ar  
    29   14   19 ar  
    30   14   40 1   
    31   15   16 ar  
    32   15   41 1   
    33   16   17 ar  
    34   16   42 1   
    35   17   18 1   
    36   17   19 ar  
    37   18   43 1   
    38   18   44 1   
    39   18   45 1   
    40   19   46 1   
    41   20   21 1   
    42   20   47 1   
    43   20   61 1   
    44   21   22 1   
    45   21   48 1   
    46   21   49 1   
    47   22   23 1   
    48   22   50 1   
    49   22   51 1   
    50   23   24 1   
    51   23   28 1   
    52   24   25 1   
    53   24   52 1   
    54   24   53 1   
    55   25   26 1   
    56   25   54 1   
    57   25   55 1   
    58   26   27 1   
    59   27   28 1   
    60   27   56 1   
    61   27   57 1   
    62   28   58 1   
    63   28   59 1   
@<TRIPOS>SUBSTRUCTURE
     1 0ST         1 TEMP              0 ****  ****    0 ROOT
