@<TRIPOS>MOLECULE
0SU
   47    42     1     0     0
SMALL
bcc


@<TRIPOS>ATOM
      1 O23        -1.3830   -0.5070    2.4790 o         1 0SU     -0.361000
      2 C18        -0.1970   -0.2460    2.4770 c1        1 0SU      0.369000
      3 N19         0.5100   -0.0760    3.7370 n2        1 0SU     -0.341000
      4 C20        -0.0890    0.6970    4.8060 c3        1 0SU     -0.046000
      5 C21         0.6670    0.4250    6.1280 c3        1 0SU     -0.055000
      6 O22         0.4910    1.5290    7.0100 oh        1 0SU     -0.325000
      7 N17         0.5400   -0.2320    1.2230 n3        1 0SU     -0.290000
      8 C10        -0.1460   -0.5300   -0.0240 c2        1 0SU      0.055000
      9 C11        -1.2770   -1.3090   -0.1600 c1        1 0SU     -0.209000
     10 C9         -1.6290   -1.3160   -1.4930 c1        1 0SU     -0.088000
     11 C12        -2.9060   -1.9830   -2.1000 c2        1 0SU      0.018000
     12 C15        -2.8040   -3.5070   -1.9590 c3        1 0SU     -0.202667
     13 C14        -3.0170   -1.6170   -3.5640 c3        1 0SU     -0.202667
     14 C13        -4.1360   -1.4870   -1.3590 c3        1 0SU     -0.202667
     15 N8         -0.7300   -0.5560   -2.1680 n2        1 0SU     -0.064000
     16 N7          0.1940   -0.0650   -1.2530 n2        1 0SU     -0.114000
     17 C4          1.3330    0.7940   -1.5610 c1        1 0SU     -0.007000
     18 C2          1.2250    2.1730   -1.4130 c2        1 0SU     -0.135000
     19 C6          2.5270    0.2340   -2.0040 c1        1 0SU     -0.117000
     20 C5          3.6180    1.0570   -2.3010 c1        1 0SU     -0.117000
     21 C3          3.5100    2.4340   -2.1540 c1        1 0SU     -0.007000
     22 C16         4.7470    3.3310   -2.3710 c2        1 0SU     -0.181000
     23 C1          2.3130    2.9950   -1.7100 c2        1 0SU     -0.135000
     24 H1          1.3430   -0.4290    3.8430 hn        1 0SU      0.205000
     25 H2         -0.0340    1.6560    4.5880 h1        1 0SU      0.122500
     26 H3         -1.0280    0.4390    4.9070 h1        1 0SU      0.122500
     27 H4          0.3130   -0.3840    6.5450 h1        1 0SU      0.071500
     28 H5          1.6230    0.3060    5.9400 h1        1 0SU      0.071500
     29 H6          0.6840    1.2770    7.8470 ho        1 0SU      0.206000
     30 H7          1.4350   -0.0810    1.2240 hn        1 0SU      0.230000
     31 H8         -1.7280   -1.7930    0.5540 DU        1 0SU      0.189000
     32 H9         -2.7980   -3.7480   -1.0100 hc        1 0SU      0.078556
     33 H10        -1.9760   -3.8200   -2.3810 hc        1 0SU      0.078556
     34 H11        -3.5800   -3.9320   -2.4010 hc        1 0SU      0.078556
     35 H12        -3.8790   -1.9290   -3.9150 hc        1 0SU      0.078556
     36 H13        -2.9570   -0.6440   -3.6620 hc        1 0SU      0.078556
     37 H14        -2.2870   -2.0420   -4.0630 hc        1 0SU      0.078556
     38 H15        -4.0780   -0.5170   -1.2430 hc        1 0SU      0.078556
     39 H16        -4.1850   -1.9180   -0.4830 hc        1 0SU      0.078556
     40 H17        -4.9410   -1.7060   -1.8770 hc        1 0SU      0.078556
     41 H18         0.3860    2.5670   -1.1020 ha        1 0SU      0.141000
     42 H19         2.6040   -0.7350   -2.1080 ha        1 0SU      0.148000
     43 H20         4.4570    0.6630   -2.6120 ha        1 0SU      0.148000
     44 H21         5.4210    3.1320   -1.6840 ha        1 0SU      0.087000
     45 H22         5.1260    3.1570   -3.2620 ha        1 0SU      0.087000
     46 H23         4.4810    4.2790   -2.3070 ha        1 0SU      0.087000
     47 H24         2.2370    3.9620   -1.6060 ha        1 0SU      0.141000
@<TRIPOS>BOND
     1    1    2 1   
     2    2    7 1   
     3    3    4 1   
     4    3   24 1   
     5    4    5 1   
     6    4   25 1   
     7    4   26 1   
     8    5    6 1   
     9    5   27 1   
    10    5   28 1   
    11    6   29 1   
    12    7    8 1   
    13    7   30 1   
    14    8    9 1   
    15    8   16 1   
    16    9   10 1   
    17   10   15 1   
    18   11   12 1   
    19   11   13 1   
    20   11   14 1   
    21   12   32 1   
    22   12   33 1   
    23   12   34 1   
    24   13   35 1   
    25   13   36 1   
    26   13   37 1   
    27   14   38 1   
    28   14   39 1   
    29   14   40 1   
    30   15   16 1   
    31   17   18 1   
    32   17   19 1   
    33   18   23 1   
    34   18   41 1   
    35   19   42 1   
    36   20   21 1   
    37   20   43 1   
    38   21   23 1   
    39   22   44 1   
    40   22   45 1   
    41   22   46 1   
    42   23   47 1   
@<TRIPOS>SUBSTRUCTURE
     1 0SU         1 TEMP              0 ****  ****    0 ROOT
