@<TRIPOS>MOLECULE
0SU
   48    49     1     0     0
SMALL
bcc


@<TRIPOS>ATOM
      1 O23        -0.4260   -0.3840    0.3910 o         1 0SU     -0.467100
      2 C18         0.7700   -0.5690    0.1530 c         1 0SU      0.632100
      3 N19         1.6250   -0.7000    1.4260 n4        1 0SU     -0.667800
      4 C20         2.4110    0.5390    1.6780 c3        1 0SU      0.101800
      5 C21         3.3540    0.3930    2.8790 c3        1 0SU      0.107400
      6 O22         4.1290   -0.7680    2.6410 oh        1 0SU     -0.633800
      7 N17         1.3990   -0.7980   -1.0490 n         1 0SU     -0.363100
      8 C10         0.7320   -0.4720   -2.2450 cc        1 0SU     -0.077700
      9 C11        -0.6170   -0.6660   -2.5990 cd        1 0SU     -0.216300
     10 C9         -0.7130   -0.1790   -3.9600 cd        1 0SU      0.342600
     11 C12        -1.9530   -0.1570   -4.8010 c3        1 0SU     -0.079300
     12 C15        -3.1210   -0.7440   -4.0180 c3        1 0SU     -0.090767
     13 C14        -2.2810    1.2810   -5.1890 c3        1 0SU     -0.090767
     14 C13        -1.7290   -0.9850   -6.0620 c3        1 0SU     -0.090767
     15 N8          0.5050    0.2710   -4.3830 nc        1 0SU     -0.448800
     16 N7          1.3640    0.1650   -3.3610 na        1 0SU      0.166300
     17 C4          2.7810    0.2930   -3.4950 ca        1 0SU     -0.024200
     18 C2          3.4550   -0.2640   -4.5990 ca        1 0SU     -0.126500
     19 C6          3.5090    1.0120   -2.5250 ca        1 0SU     -0.126500
     20 C5          4.8870    1.1450   -2.6540 ca        1 0SU     -0.119500
     21 C3          5.5660    0.5850   -3.7440 ca        1 0SU     -0.047300
     22 C16         7.0290    0.7520   -3.8870 c3        1 0SU     -0.067800
     23 C1          4.8350   -0.1140   -4.7110 ca        1 0SU     -0.119500
     24 H1          2.2690   -1.5000    1.3770 hn        1 0SU      0.472800
     25 H2          1.6940    1.3890    1.8640 hx        1 0SU      0.114200
     26 H3          3.0190    0.7590    0.7530 hx        1 0SU      0.114200
     27 H4          3.9960    1.3130    2.9350 h1        1 0SU      0.076200
     28 H5          2.7790    0.2780    3.8370 h1        1 0SU      0.076200
     29 H6          4.8750   -0.7590    3.2560 ho        1 0SU      0.456000
     30 H7          2.3990   -0.8510   -1.0980 hn        1 0SU      0.353500
     31 H8         -1.4160   -1.0710   -1.9840 ha        1 0SU      0.192000
     32 H9         -2.9080   -1.8000   -3.7270 hc        1 0SU      0.045922
     33 H10        -3.3180   -0.1450   -3.0970 hc        1 0SU      0.045922
     34 H11        -4.0400   -0.7290   -4.6530 hc        1 0SU      0.045922
     35 H12        -3.2270    1.3010   -5.7830 hc        1 0SU      0.045922
     36 H13        -1.4620    1.7180   -5.8090 hc        1 0SU      0.045922
     37 H14        -2.4180    1.9090   -4.2770 hc        1 0SU      0.045922
     38 H15        -0.9150   -0.5430   -6.6850 hc        1 0SU      0.045922
     39 H16        -1.4530   -2.0330   -5.7970 hc        1 0SU      0.045922
     40 H17        -2.6680   -1.0060   -6.6670 hc        1 0SU      0.045922
     41 H18         2.9010   -0.8060   -5.3830 ha        1 0SU      0.144500
     42 H19         2.9950    1.5130   -1.6920 ha        1 0SU      0.144500
     43 H20         5.4500    1.7180   -1.9010 ha        1 0SU      0.150000
     44 H21         7.5130    0.9580   -2.9010 hc        1 0SU      0.059367
     45 H22         7.2460    1.6140   -4.5700 hc        1 0SU      0.059367
     46 H23         7.4940   -0.1650   -4.3270 hc        1 0SU      0.059367
     47 H24         5.3560   -0.5480   -5.5800 ha        1 0SU      0.150000
     48 H192        0.9730   -0.8590    2.2080 hn        1 0SU      0.472800
@<TRIPOS>BOND
     1    1    2 2   
     2    2    3 1   
     3    2    7 1   
     4    3    4 1   
     5    3   24 1   
     6    3   48 1   
     7    4    5 1   
     8    4   25 1   
     9    4   26 1   
    10    5    6 1   
    11    5   27 1   
    12    5   28 1   
    13    6   29 1   
    14    7    8 1   
    15    7   30 1   
    16    8    9 2   
    17    8   16 1   
    18    9   10 1   
    19    9   31 1   
    20   10   11 1   
    21   10   15 2   
    22   11   12 1   
    23   11   13 1   
    24   11   14 1   
    25   12   32 1   
    26   12   33 1   
    27   12   34 1   
    28   13   35 1   
    29   13   36 1   
    30   13   37 1   
    31   14   38 1   
    32   14   39 1   
    33   14   40 1   
    34   15   16 1   
    35   16   17 1   
    36   17   18 ar  
    37   17   19 ar  
    38   18   23 ar  
    39   18   41 1   
    40   19   20 ar  
    41   19   42 1   
    42   20   21 ar  
    43   20   43 1   
    44   21   22 1   
    45   21   23 ar  
    46   22   44 1   
    47   22   45 1   
    48   22   46 1   
    49   23   47 1   
@<TRIPOS>SUBSTRUCTURE
     1 0SU         1 TEMP              0 ****  ****    0 ROOT
