@<TRIPOS>MOLECULE
0SU
   47    48     1     0     0
SMALL
bcc


@<TRIPOS>ATOM
      1 O23        -2.4330   -1.9170    0.1570 o         1 0SU     -0.607100
      2 C18        -2.3900   -0.6750    0.0150 c         1 0SU      0.748100
      3 N19        -3.5290    0.1180    0.2550 n         1 0SU     -0.538900
      4 C20        -4.8050   -0.5580    0.3000 c3        1 0SU      0.081000
      5 C21        -5.9280    0.3490    0.8160 c3        1 0SU      0.119400
      6 O22        -6.0850    1.4040   -0.1200 oh        1 0SU     -0.611800
      7 N17        -1.1990   -0.0130   -0.3940 n         1 0SU     -0.429100
      8 C10         0.0320   -0.6610   -0.2530 cc        1 0SU      0.022300
      9 C11         0.3450   -2.0300   -0.3430 cd        1 0SU     -0.277300
     10 C9          1.7770   -2.1050   -0.1170 cd        1 0SU      0.332600
     11 C12         2.5560   -3.3850   -0.1120 c3        1 0SU     -0.075300
     12 C15         2.0090   -4.2840    0.9920 c3        1 0SU     -0.084433
     13 C14         2.3750   -4.0720   -1.4620 c3        1 0SU     -0.084433
     14 C13         4.0400   -3.1480    0.1290 c3        1 0SU     -0.084433
     15 N8          2.2910   -0.8640    0.0890 nc        1 0SU     -0.495800
     16 N7          1.2630    0.0080    0.0560 na        1 0SU      0.119300
     17 C4          1.4520    1.4180    0.0080 ca        1 0SU      0.008800
     18 C2          2.1830    2.0570    1.0300 ca        1 0SU     -0.128500
     19 C6          0.9200    2.1880   -1.0460 ca        1 0SU     -0.128500
     20 C5          1.0850    3.5690   -1.0480 ca        1 0SU     -0.123500
     21 C3          1.7940    4.2100   -0.0250 ca        1 0SU     -0.075300
     22 C16         1.9560    5.6810   -0.0290 c3        1 0SU     -0.055800
     23 C1          2.3460    3.4390    1.0040 ca        1 0SU     -0.123500
     24 H1         -3.5660    1.0280   -0.1510 hn        1 0SU      0.305500
     25 H2         -5.0930   -0.9380   -0.7230 h1        1 0SU      0.064700
     26 H3         -4.7130   -1.4450    0.9900 h1        1 0SU      0.064700
     27 H4         -6.8720   -0.2550    0.8800 h1        1 0SU      0.037200
     28 H5         -5.6840    0.7660    1.8290 h1        1 0SU      0.037200
     29 H6         -6.8050    1.9580    0.2030 ho        1 0SU      0.407000
     30 H7         -1.1720    0.9820   -0.2980 hn        1 0SU      0.312500
     31 H8         -0.3450   -2.8500   -0.5140 ha        1 0SU      0.192000
     32 H9          0.9180   -4.4660    0.8390 hc        1 0SU      0.039033
     33 H10         2.5430   -5.2640    0.9810 hc        1 0SU      0.039033
     34 H11         2.1550   -3.8060    1.9900 hc        1 0SU      0.039033
     35 H12         2.7900   -3.4350   -2.2790 hc        1 0SU      0.039033
     36 H13         2.9100   -5.0510   -1.4630 hc        1 0SU      0.039033
     37 H14         1.2920   -4.2530   -1.6640 hc        1 0SU      0.039033
     38 H15         4.2040   -2.6590    1.1190 hc        1 0SU      0.039033
     39 H16         4.5820   -4.1250    0.1210 hc        1 0SU      0.039033
     40 H17         4.4690   -2.4950   -0.6680 hc        1 0SU      0.039033
     41 H18         2.6350    1.4670    1.8430 ha        1 0SU      0.152500
     42 H19         0.3950    1.7060   -1.8860 ha        1 0SU      0.152500
     43 H20         0.6630    4.1620   -1.8730 ha        1 0SU      0.138000
     44 H21         1.1450    6.1550    0.5800 hc        1 0SU      0.047367
     45 H22         2.9400    5.9750    0.4110 hc        1 0SU      0.047367
     46 H23         1.8970    6.0900   -1.0680 hc        1 0SU      0.047367
     47 H24         2.9200    3.9300    1.8040 ha        1 0SU      0.138000
@<TRIPOS>BOND
     1    1    2 2   
     2    2    3 1   
     3    2    7 1   
     4    3    4 1   
     5    3   24 1   
     6    4    5 1   
     7    4   25 1   
     8    4   26 1   
     9    5    6 1   
    10    5   27 1   
    11    5   28 1   
    12    6   29 1   
    13    7    8 1   
    14    7   30 1   
    15    8    9 2   
    16    8   16 1   
    17    9   10 1   
    18    9   31 1   
    19   10   11 1   
    20   10   15 2   
    21   11   12 1   
    22   11   13 1   
    23   11   14 1   
    24   12   32 1   
    25   12   33 1   
    26   12   34 1   
    27   13   35 1   
    28   13   36 1   
    29   13   37 1   
    30   14   38 1   
    31   14   39 1   
    32   14   40 1   
    33   15   16 1   
    34   16   17 1   
    35   17   18 ar  
    36   17   19 ar  
    37   18   23 ar  
    38   18   41 1   
    39   19   20 ar  
    40   19   42 1   
    41   20   21 ar  
    42   20   43 1   
    43   21   22 1   
    44   21   23 ar  
    45   22   44 1   
    46   22   45 1   
    47   22   46 1   
    48   23   47 1   
@<TRIPOS>SUBSTRUCTURE
     1 0SU         1 TEMP              0 ****  ****    0 ROOT
