@<TRIPOS>MOLECULE
0SU
   48    49     1     0     0
SMALL
bcc


@<TRIPOS>ATOM
      1 O23        -0.4260   -0.3650    0.3920 o         1 0SU     -0.467100
      2 C18         0.7680   -0.5590    0.1530 c         1 0SU      0.632100
      3 N19         1.6230   -0.6930    1.4260 ny        1 0SU     -0.667800
      4 C20         2.4180    0.5420    1.6750 c3        1 0SU      0.101800
      5 C21         3.3610    0.3910    2.8750 c3        1 0SU      0.107400
      6 O22         4.1290   -0.7760    2.6380 oh        1 0SU     -0.633800
      7 N17         1.3940   -0.7940   -1.0480 ns        1 0SU     -0.363100
      8 C10         0.7290   -0.4660   -2.2440 cc        1 0SU     -0.077700
      9 C11        -0.6220   -0.6520   -2.5980 cd        1 0SU     -0.216300
     10 C9         -0.7150   -0.1660   -3.9590 cd        1 0SU      0.342600
     11 C12        -1.9570   -0.1380   -4.8000 c3        1 0SU     -0.079300
     12 C15        -3.1270   -0.7190   -4.0160 c3        1 0SU     -0.090767
     13 C14        -2.2770    1.3020   -5.1860 c3        1 0SU     -0.090767
     14 C13        -1.7380   -0.9660   -6.0610 c3        1 0SU     -0.090767
     15 N8          0.5050    0.2760   -4.3830 nc        1 0SU     -0.448800
     16 N7          1.3640    0.1660   -3.3620 na        1 0SU      0.166300
     17 C4          2.7810    0.2850   -3.4970 ca        1 0SU     -0.024200
     18 C2          3.4510   -0.2770   -4.6010 ca        1 0SU     -0.126500
     19 C6          3.5140    1.0000   -2.5280 ca        1 0SU     -0.126500
     20 C5          4.8930    1.1250   -2.6580 ca        1 0SU     -0.119500
     21 C3          5.5670    0.5600   -3.7480 ca        1 0SU     -0.047300
     22 C16         7.0320    0.7170   -3.8920 c3        1 0SU     -0.067800
     23 C1          4.8320   -0.1360   -4.7140 ca        1 0SU     -0.119500
     24 H1          0.9710   -0.8470    2.2080 hn        1 0SU      0.472800
     25 H2          3.0260    0.7560    0.7490 hx        1 0SU      0.114200
     26 H3          1.7060    1.3970    1.8610 hx        1 0SU      0.114200
     27 H4          4.0080    1.3070    2.9290 h1        1 0SU      0.076200
     28 H5          2.7860    0.2810    3.8340 h1        1 0SU      0.076200
     29 H6          4.8750   -0.7700    3.2520 ho        1 0SU      0.456000
     30 H7          2.3940   -0.8540   -1.0980 hn        1 0SU      0.353500
     31 H8         -1.4220   -1.0510   -1.9810 ha        1 0SU      0.192000
     32 H9         -3.3200   -0.1200   -3.0950 hc        1 0SU      0.045811
     33 H10        -4.0460   -0.7010   -4.6500 hc        1 0SU      0.045811
     34 H11        -2.9180   -1.7770   -3.7250 hc        1 0SU      0.045811
     35 H12        -2.4120    1.9300   -4.2740 hc        1 0SU      0.045811
     36 H13        -3.2230    1.3270   -5.7800 hc        1 0SU      0.045811
     37 H14        -1.4570    1.7360   -5.8060 hc        1 0SU      0.045811
     38 H15        -1.4660   -2.0150   -5.7970 hc        1 0SU      0.045811
     39 H16        -2.6770   -0.9820   -6.6650 hc        1 0SU      0.045811
     40 H17        -0.9220   -0.5270   -6.6840 hc        1 0SU      0.045811
     41 H18         2.8930   -0.8160   -5.3840 ha        1 0SU      0.144500
     42 H19         3.0040    1.5060   -1.6950 ha        1 0SU      0.144500
     43 H20         5.4600    1.6950   -1.9050 ha        1 0SU      0.150000
     44 H21         7.4900   -0.2040   -4.3300 hc        1 0SU      0.059367
     45 H22         7.2540    1.5760   -4.5770 hc        1 0SU      0.059367
     46 H23         7.5180    0.9220   -2.9070 hc        1 0SU      0.059367
     47 H24         5.3500   -0.5740   -5.5830 ha        1 0SU      0.150000
     48 H192        2.2620   -1.4980    1.3780 hn        1 0SU      0.472800
@<TRIPOS>BOND
     1    1    2 2   
     2    2    3 1   
     3    2    7 1   
     4    3    4 1   
     5    3   24 1   
     6    3   48 1   
     7    4    5 1   
     8    4   25 1   
     9    4   26 1   
    10    5    6 1   
    11    5   27 1   
    12    5   28 1   
    13    6   29 1   
    14    7    8 1   
    15    7   30 1   
    16    8    9 2   
    17    8   16 1   
    18    9   10 1   
    19    9   31 1   
    20   10   11 1   
    21   10   15 2   
    22   11   12 1   
    23   11   13 1   
    24   11   14 1   
    25   12   32 1   
    26   12   33 1   
    27   12   34 1   
    28   13   35 1   
    29   13   36 1   
    30   13   37 1   
    31   14   38 1   
    32   14   39 1   
    33   14   40 1   
    34   15   16 1   
    35   16   17 1   
    36   17   18 ar  
    37   17   19 ar  
    38   18   23 ar  
    39   18   41 1   
    40   19   20 ar  
    41   19   42 1   
    42   20   21 ar  
    43   20   43 1   
    44   21   22 1   
    45   21   23 ar  
    46   22   44 1   
    47   22   45 1   
    48   22   46 1   
    49   23   47 1   
@<TRIPOS>SUBSTRUCTURE
     1 0SU         1 TEMP              0 ****  ****    0 ROOT
