@<TRIPOS>MOLECULE
0SU
   49    50     1     0     0
SMALL
bcc


@<TRIPOS>ATOM
      1 O23         3.8660    0.5570    0.4630 o         1 0SU     -0.315100
      2 C18         2.7750    0.2670    0.0040 c         1 0SU      0.506100
      3 N19         1.5380    0.9610    0.4770 n4        1 0SU     -0.635800
      4 C20         1.2210    0.5800    1.9010 c3        1 0SU      0.085800
      5 C21         0.8190   -0.8900    2.0540 c3        1 0SU      0.107400
      6 O22         1.8560   -1.6830    1.5040 oh        1 0SU     -0.690800
      7 N17         2.6370   -0.7940   -1.0540 n4        1 0SU     -0.437200
      8 C10         1.6310   -0.4780   -2.0260 cc        1 0SU     -0.259700
      9 C11         0.2310   -0.7570   -1.9620 cd        1 0SU     -0.236300
     10 C9         -0.2810   -0.3080   -3.2200 cd        1 0SU      0.371600
     11 C12        -1.7170   -0.3840   -3.6530 c3        1 0SU     -0.088300
     12 C15        -2.5720    0.3780   -2.6450 c3        1 0SU     -0.094433
     13 C14        -1.9210    0.2180   -5.0370 c3        1 0SU     -0.094433
     14 C13        -2.1340   -1.8520   -3.6770 c3        1 0SU     -0.094433
     15 N8          0.7540    0.2010   -3.9870 nc        1 0SU     -0.377800
     16 N7          1.8740    0.1130   -3.3000 na        1 0SU      0.272300
     17 C4          3.1860    0.3990   -3.8080 ca        1 0SU     -0.105200
     18 C2          3.5420   -0.0160   -5.1040 ca        1 0SU     -0.112000
     19 C6          4.1040    1.1290   -3.0220 ca        1 0SU     -0.112000
     20 C5          5.3670    1.4060   -3.5240 ca        1 0SU     -0.106500
     21 C3          5.7410    0.9840   -4.8120 ca        1 0SU      0.001700
     22 C16         7.0810    1.3070   -5.3470 c3        1 0SU     -0.085800
     23 C1          4.8160    0.2760   -5.5880 ca        1 0SU     -0.106500
     24 H1          1.7190    1.9810    0.4380 hn        1 0SU      0.501300
     25 H2          0.3670    1.2420    2.2380 hx        1 0SU      0.147200
     26 H3          2.1380    0.8040    2.5240 hx        1 0SU      0.147200
     27 H4          0.6550   -1.0920    3.1490 h1        1 0SU      0.109700
     28 H5         -0.1270   -1.1220    1.4900 h1        1 0SU      0.109700
     29 H6          2.1090   -2.3630    2.1480 ho        1 0SU      0.487000
     30 H7          3.5730   -0.8940   -1.5100 hn        1 0SU      0.526800
     31 H8         -0.3230   -1.2560   -1.1710 ha        1 0SU      0.192000
     32 H9         -2.4350   -0.0370   -1.6180 hc        1 0SU      0.054700
     33 H10        -2.3080    1.4620   -2.6430 hc        1 0SU      0.054700
     34 H11        -3.6500    0.2790   -2.9260 hc        1 0SU      0.054700
     35 H12        -3.0020    0.1460   -5.3140 hc        1 0SU      0.054700
     36 H13        -1.3270   -0.3360   -5.8030 hc        1 0SU      0.054700
     37 H14        -1.6240    1.2930   -5.0530 hc        1 0SU      0.054700
     38 H15        -2.0010   -2.3170   -2.6710 hc        1 0SU      0.054700
     39 H16        -3.2110   -1.9270   -3.9650 hc        1 0SU      0.054700
     40 H17        -1.5290   -2.4200   -4.4240 hc        1 0SU      0.054700
     41 H18         2.8290   -0.5610   -5.7480 ha        1 0SU      0.138000
     42 H19         3.8200    1.5360   -2.0400 ha        1 0SU      0.138000
     43 H20         6.0840    1.9820   -2.9150 ha        1 0SU      0.175500
     44 H21         7.4550    0.4910   -6.0160 hc        1 0SU      0.079367
     45 H22         7.8230    1.4610   -4.5240 hc        1 0SU      0.079367
     46 H23         7.0270    2.2510   -5.9510 hc        1 0SU      0.079367
     47 H24         5.0920   -0.0500   -6.6080 ha        1 0SU      0.175500
     48 H192        0.7280    0.7430   -0.1340 hn        1 0SU      0.501300
     49 H172        2.3780   -1.6880   -0.5790 hn        1 0SU      0.526800
@<TRIPOS>BOND
     1    1    2 2   
     2    2    3 1   
     3    2    7 1   
     4    3    4 1   
     5    3   24 1   
     6    3   48 1   
     7    4    5 1   
     8    4   25 1   
     9    4   26 1   
    10    5    6 1   
    11    5   27 1   
    12    5   28 1   
    13    6   29 1   
    14    7    8 1   
    15    7   30 1   
    16    7   49 1   
    17    8    9 2   
    18    8   16 1   
    19    9   10 1   
    20    9   31 1   
    21   10   11 1   
    22   10   15 2   
    23   11   12 1   
    24   11   13 1   
    25   11   14 1   
    26   12   32 1   
    27   12   33 1   
    28   12   34 1   
    29   13   35 1   
    30   13   36 1   
    31   13   37 1   
    32   14   38 1   
    33   14   39 1   
    34   14   40 1   
    35   15   16 1   
    36   16   17 1   
    37   17   18 ar  
    38   17   19 ar  
    39   18   23 ar  
    40   18   41 1   
    41   19   20 ar  
    42   19   42 1   
    43   20   21 ar  
    44   20   43 1   
    45   21   22 1   
    46   21   23 ar  
    47   22   44 1   
    48   22   45 1   
    49   22   46 1   
    50   23   47 1   
@<TRIPOS>SUBSTRUCTURE
     1 0SU         1 TEMP              0 ****  ****    0 ROOT
