@<TRIPOS>MOLECULE
0SV
   56    50     1     0     0
SMALL
bcc


@<TRIPOS>ATOM
      1 O20        -1.6660   -0.0030    1.0830 o         1 0SV     -0.362000
      2 C18        -0.4820    0.0450    1.0420 c1        1 0SV      0.368000
      3 N19         0.3070   -0.1530    2.2710 n2        1 0SV     -0.339000
      4 C21        -0.1160   -1.0960    3.2470 c3        1 0SV     -0.046000
      5 C22         0.7500   -0.9460    4.4980 c3        1 0SV     -0.191000
      6 C23         0.7280   -2.2840    5.3150 c3        1 0SV     -0.154000
      7 C24         1.4780   -2.0730    6.6810 c3        1 0SV     -0.163000
      8 C25         1.5180   -3.3870    7.4500 c3        1 0SV     -0.018000
      9 O26         2.3660   -3.2460    8.6010 oh        1 0SV     -0.329000
     10 N17         0.1660    0.4000   -0.1670 n3        1 0SV     -0.284000
     11 C1         -0.6380    0.7050   -1.3600 c2        1 0SV      0.052000
     12 N5         -0.1630    1.0280   -2.5710 n2        1 0SV     -0.119000
     13 N4         -1.2510    1.2400   -3.4190 n2        1 0SV     -0.062000
     14 C3         -2.3760    1.0410   -2.7100 c1        1 0SV     -0.090000
     15 C12        -3.8410    1.0500   -3.2780 c2        1 0SV      0.019000
     16 C15        -4.6180    2.1890   -2.6400 c3        1 0SV     -0.202333
     17 C14        -3.8100    1.2490   -4.8690 c3        1 0SV     -0.202333
     18 C13        -4.5460   -0.3230   -2.9300 c3        1 0SV     -0.202333
     19 C2         -2.0150    0.7070   -1.4280 c1        1 0SV     -0.211000
     20 C6          1.2110    1.1050   -2.9370 c1        1 0SV      0.054000
     21 C11         1.8970   -0.0430   -3.3020 c1        1 0SV     -0.114000
     22 C9          3.2600    0.0290   -3.6370 c1        1 0SV     -0.114000
     23 C7          3.9270    1.2600   -3.6020 c1        1 0SV     -0.067000
     24 C16         5.4650    1.3140   -3.8450 c3        1 0SV     -0.181000
     25 C8          3.2370    2.4160   -3.2350 c1        1 0SV     -0.124000
     26 C10         1.8830    2.3460   -2.9020 c1        1 0SV     -0.152000
     27 H1          1.0670    0.3660    2.4260 hn        1 0SV      0.202000
     28 H2         -1.1080   -0.9220    3.4890 h1        1 0SV      0.111000
     29 H3         -0.0200   -2.0160    2.8850 h1        1 0SV      0.111000
     30 H4          1.6940   -0.7320    4.2270 hc        1 0SV      0.087000
     31 H5          0.4050   -0.2330    5.0420 hc        1 0SV      0.087000
     32 H6          1.1940   -3.0160    4.7830 hc        1 0SV      0.083000
     33 H7         -0.1410   -2.5300    5.4760 hc        1 0SV      0.083000
     34 H8          2.3620   -1.7820    6.5100 hc        1 0SV      0.095500
     35 H9          0.9870   -1.3680    7.2370 hc        1 0SV      0.095500
     36 H10         1.8800   -4.1140    6.8520 h1        1 0SV      0.060000
     37 H11         0.5980   -3.6280    7.7470 h1        1 0SV      0.060000
     38 H12         2.1280   -3.8410    9.2190 ho        1 0SV      0.199000
     39 H13         1.0830    0.5650   -0.1720 hn        1 0SV      0.224000
     40 H14        -4.6490    2.0590   -1.6830 hc        1 0SV      0.078222
     41 H15        -4.1920    3.0080   -2.8320 hc        1 0SV      0.078222
     42 H16        -5.5050    2.2030   -2.9870 hc        1 0SV      0.078222
     43 H17        -3.4470    2.1040   -5.0730 hc        1 0SV      0.078222
     44 H18        -3.2750    0.5770   -5.2650 hc        1 0SV      0.078222
     45 H19        -4.7040    1.1910   -5.2170 hc        1 0SV      0.078222
     46 H20        -5.3260   -0.4580   -3.5280 hc        1 0SV      0.078222
     47 H21        -3.8810   -1.0890   -3.0600 hc        1 0SV      0.078222
     48 H22        -4.8560   -0.3060   -1.9770 hc        1 0SV      0.078222
     49 H23        -2.6190    0.5110   -0.7030 DU        1 0SV      0.192000
     50 H24         1.4480   -0.8730   -3.3260 ha        1 0SV      0.148000
     51 H25         3.7330   -0.7620   -3.8880 ha        1 0SV      0.148000
     52 H26         5.7340    0.5460   -4.2810 hc        1 0SV      0.086667
     53 H27         5.6880    2.1170   -4.4110 hc        1 0SV      0.086667
     54 H28         5.9270    1.3800   -2.9910 hc        1 0SV      0.086667
     55 H29         3.7240    3.3170   -3.2090 ha        1 0SV      0.137000
     56 H30         1.3990    3.1580   -2.6450 ha        1 0SV      0.147000
@<TRIPOS>BOND
     1    1    2 1   
     2    2   10 1   
     3    3    4 1   
     4    3   27 1   
     5    4    5 1   
     6    4   28 1   
     7    4   29 1   
     8    5    6 1   
     9    5   30 1   
    10    5   31 1   
    11    6    7 1   
    12    6   32 1   
    13    6   33 1   
    14    7    8 1   
    15    7   34 1   
    16    7   35 1   
    17    8    9 1   
    18    8   36 1   
    19    8   37 1   
    20    9   38 1   
    21   10   11 1   
    22   10   39 1   
    23   11   12 1   
    24   11   19 1   
    25   12   13 1   
    26   13   14 1   
    27   14   19 1   
    28   15   16 1   
    29   15   17 1   
    30   15   18 1   
    31   16   40 1   
    32   16   41 1   
    33   16   42 1   
    34   17   43 1   
    35   17   44 1   
    36   17   45 1   
    37   18   46 1   
    38   18   47 1   
    39   18   48 1   
    40   20   26 1   
    41   21   22 1   
    42   21   50 1   
    43   22   51 1   
    44   23   24 1   
    45   23   25 1   
    46   24   52 1   
    47   24   53 1   
    48   24   54 1   
    49   25   55 1   
    50   26   56 1   
@<TRIPOS>SUBSTRUCTURE
     1 0SV         1 TEMP              0 ****  ****    0 ROOT
