@<TRIPOS>MOLECULE
0SV
   57    58     1     0     0
SMALL
bcc


@<TRIPOS>ATOM
      1 O20         1.6870    2.1930   -0.5370 o         1 0SV     -0.460100
      2 C18         1.9070    1.0160   -0.2490 c         1 0SV      0.641100
      3 N19         2.7030    0.8580    1.0620 ny        1 0SV     -0.674800
      4 C21         1.8630    0.2910    2.1580 c3        1 0SV      0.103800
      5 C22         2.5900    0.2670    3.4970 c3        1 0SV     -0.109400
      6 C23         1.6710   -0.3080    4.5580 c3        1 0SV     -0.077400
      7 C24         2.3820   -0.3590    5.8920 c3        1 0SV     -0.088400
      8 C25         1.4650   -0.9220    6.9670 c3        1 0SV      0.136400
      9 O26         2.2300   -0.9650    8.1580 oh        1 0SV     -0.595800
     10 N17         1.4880   -0.1390   -0.8660 ns        1 0SV     -0.375100
     11 C1          0.8220   -0.0680   -2.1020 cc        1 0SV     -0.096700
     12 N5          1.4550   -0.0160   -3.3790 na        1 0SV      0.172300
     13 N4          0.5510   -0.0360   -4.3570 nc        1 0SV     -0.434800
     14 C3         -0.6920   -0.0790   -3.7820 cd        1 0SV      0.325600
     15 C12        -1.9720   -0.1020   -4.5620 c3        1 0SV     -0.077300
     16 C15        -2.0710    1.1580   -5.4150 c3        1 0SV     -0.090767
     17 C14        -1.9990   -1.3310   -5.4650 c3        1 0SV     -0.090767
     18 C13        -3.1590   -0.1560   -3.6080 c3        1 0SV     -0.090767
     19 C2         -0.5690   -0.0950   -2.3440 cd        1 0SV     -0.199300
     20 C6          2.8660    0.0280   -3.5990 ca        1 0SV     -0.034200
     21 C11         3.6200    1.1190   -3.1230 ca        1 0SV     -0.119000
     22 C9          4.9920    1.1570   -3.3470 ca        1 0SV     -0.128500
     23 C7          5.6340    0.1310   -4.0530 ca        1 0SV     -0.045300
     24 C16         7.0900    0.1950   -4.3140 c3        1 0SV     -0.068800
     25 C8          4.8750   -0.9410   -4.5360 ca        1 0SV     -0.128500
     26 C10         3.5010   -1.0000   -4.3210 ca        1 0SV     -0.119000
     27 H1          3.0150    1.8030    1.3300 hn        1 0SV      0.461300
     28 H2          1.5610   -0.7550    1.8670 hx        1 0SV      0.109700
     29 H3          0.9320    0.9260    2.2360 hx        1 0SV      0.109700
     30 H4          3.5190   -0.3600    3.4280 hc        1 0SV      0.069700
     31 H5          2.8980    1.3050    3.7960 hc        1 0SV      0.069700
     32 H6          0.7480    0.3240    4.6440 hc        1 0SV      0.055700
     33 H7          1.3470   -1.3410    4.2620 hc        1 0SV      0.055700
     34 H8          2.7160    0.6680    6.1970 hc        1 0SV      0.065200
     35 H9          3.3000   -1.0000    5.8220 hc        1 0SV      0.065200
     36 H10         1.1210   -1.9550    6.6920 h1        1 0SV      0.026700
     37 H11         0.5660   -0.2630    7.1050 h1        1 0SV      0.026700
     38 H12         1.6490   -1.2990    8.8520 ho        1 0SV      0.415000
     39 H13         1.9070   -1.0180   -0.6410 hn        1 0SV      0.349500
     40 H14        -1.2420    1.1950   -6.1610 hc        1 0SV      0.045367
     41 H15        -2.0200    2.0690   -4.7730 hc        1 0SV      0.045367
     42 H16        -3.0440    1.1610   -5.9650 hc        1 0SV      0.045367
     43 H17        -1.1710   -1.2890   -6.2120 hc        1 0SV      0.045367
     44 H18        -1.8930   -2.2620   -4.8600 hc        1 0SV      0.045367
     45 H19        -2.9710   -1.3700   -6.0140 hc        1 0SV      0.045367
     46 H20        -3.1700    0.7420   -2.9440 hc        1 0SV      0.045367
     47 H21        -3.1150   -1.0750   -2.9770 hc        1 0SV      0.045367
     48 H22        -4.1090   -0.1730   -4.1960 hc        1 0SV      0.045367
     49 H23        -1.3730   -0.1290   -1.6150 ha        1 0SV      0.184000
     50 H24         3.1250    1.9590   -2.6100 ha        1 0SV      0.154000
     51 H25         5.5760    2.0190   -2.9890 ha        1 0SV      0.151500
     52 H26         7.5420   -0.8270   -4.3130 hc        1 0SV      0.059700
     53 H27         7.2720    0.6550   -5.3200 hc        1 0SV      0.059700
     54 H28         7.6120    0.8180   -3.5470 hc        1 0SV      0.059700
     55 H29         5.3680   -1.7450   -5.1070 ha        1 0SV      0.151500
     56 H30         2.9180   -1.8400   -4.7350 ha        1 0SV      0.154000
     57 H192        3.5310    0.2750    0.9190 hn        1 0SV      0.461300
@<TRIPOS>BOND
     1    1    2 2   
     2    2    3 1   
     3    2   10 1   
     4    3    4 1   
     5    3   27 1   
     6    3   57 1   
     7    4    5 1   
     8    4   28 1   
     9    4   29 1   
    10    5    6 1   
    11    5   30 1   
    12    5   31 1   
    13    6    7 1   
    14    6   32 1   
    15    6   33 1   
    16    7    8 1   
    17    7   34 1   
    18    7   35 1   
    19    8    9 1   
    20    8   36 1   
    21    8   37 1   
    22    9   38 1   
    23   10   11 1   
    24   10   39 1   
    25   11   12 1   
    26   11   19 2   
    27   12   13 1   
    28   12   20 1   
    29   13   14 2   
    30   14   15 1   
    31   14   19 1   
    32   15   16 1   
    33   15   17 1   
    34   15   18 1   
    35   16   40 1   
    36   16   41 1   
    37   16   42 1   
    38   17   43 1   
    39   17   44 1   
    40   17   45 1   
    41   18   46 1   
    42   18   47 1   
    43   18   48 1   
    44   19   49 1   
    45   20   21 ar  
    46   20   26 ar  
    47   21   22 ar  
    48   21   50 1   
    49   22   23 ar  
    50   22   51 1   
    51   23   24 1   
    52   23   25 ar  
    53   24   52 1   
    54   24   53 1   
    55   24   54 1   
    56   25   26 ar  
    57   25   55 1   
    58   26   56 1   
@<TRIPOS>SUBSTRUCTURE
     1 0SV         1 TEMP              0 ****  ****    0 ROOT
