@<TRIPOS>MOLECULE
0SV
   57    58     1     0     0
SMALL
bcc


@<TRIPOS>ATOM
      1 O20         1.6330    2.1980   -0.5350 o         1 0SV     -0.460100
      2 C18         1.8800    1.0260   -0.2480 c         1 0SV      0.641100
      3 N19         2.6810    0.8860    1.0620 n4        1 0SV     -0.674800
      4 C21         1.8570    0.2970    2.1580 c3        1 0SV      0.103800
      5 C22         2.5870    0.2890    3.4960 c3        1 0SV     -0.109400
      6 C23         1.6840   -0.3120    4.5570 c3        1 0SV     -0.077400
      7 C24         2.3980   -0.3460    5.8900 c3        1 0SV     -0.088400
      8 C25         1.4980   -0.9360    6.9650 c3        1 0SV      0.136400
      9 O26         2.2650   -0.9610    8.1550 oh        1 0SV     -0.595800
     10 N17         1.4870   -0.1370   -0.8650 n         1 0SV     -0.375100
     11 C1          0.8190   -0.0810   -2.1010 cc        1 0SV     -0.096700
     12 N5          1.4510   -0.0160   -3.3780 na        1 0SV      0.172300
     13 N4          0.5480   -0.0560   -4.3570 nc        1 0SV     -0.434800
     14 C3         -0.6940   -0.1250   -3.7810 cd        1 0SV      0.325600
     15 C12        -1.9720   -0.1760   -4.5620 c3        1 0SV     -0.077300
     16 C15        -2.0970    1.0800   -5.4180 c3        1 0SV     -0.090767
     17 C14        -1.9740   -1.4060   -5.4620 c3        1 0SV     -0.090767
     18 C13        -3.1580   -0.2510   -3.6080 c3        1 0SV     -0.090767
     19 C2         -0.5710   -0.1370   -2.3430 cd        1 0SV     -0.199300
     20 C6          2.8620    0.0570   -3.5970 ca        1 0SV     -0.034200
     21 C11         3.5920    1.1630   -3.1220 ca        1 0SV     -0.119000
     22 C9          4.9630    1.2300   -3.3450 ca        1 0SV     -0.128500
     23 C7          5.6270    0.2180   -4.0500 ca        1 0SV     -0.045300
     24 C16         7.0810    0.3130   -4.3110 c3        1 0SV     -0.068800
     25 C8          4.8910   -0.8700   -4.5340 ca        1 0SV     -0.128500
     26 C10         3.5180   -0.9580   -4.3200 ca        1 0SV     -0.119000
     27 H1          3.5240    0.3240    0.9170 hn        1 0SV      0.461300
     28 H2          1.5810   -0.7560    1.8650 hx        1 0SV      0.109200
     29 H3          0.9110    0.9080    2.2380 hx        1 0SV      0.109200
     30 H4          2.8680    1.3340    3.7960 hc        1 0SV      0.069700
     31 H5          3.5310   -0.3130    3.4250 hc        1 0SV      0.069700
     32 H6          1.3870   -1.3520    4.2590 hc        1 0SV      0.055700
     33 H7          0.7450    0.2960    4.6450 hc        1 0SV      0.055700
     34 H8          2.7050    0.6880    6.1970 hc        1 0SV      0.065200
     35 H9          3.3330   -0.9620    5.8180 hc        1 0SV      0.065200
     36 H10         0.5820   -0.3020    7.1060 h1        1 0SV      0.026700
     37 H11         1.1810   -1.9780    6.6880 h1        1 0SV      0.026700
     38 H12         1.6940   -1.3120    8.8490 ho        1 0SV      0.415000
     39 H13         1.9250   -1.0070   -0.6400 hn        1 0SV      0.349500
     40 H14        -1.2680    1.1320   -6.1640 hc        1 0SV      0.045367
     41 H15        -3.0690    1.0630   -5.9670 hc        1 0SV      0.045367
     42 H16        -2.0640    1.9940   -4.7780 hc        1 0SV      0.045367
     43 H17        -1.8500   -2.3340   -4.8550 hc        1 0SV      0.045367
     44 H18        -1.1470   -1.3490   -6.2090 hc        1 0SV      0.045367
     45 H19        -2.9450   -1.4660   -6.0110 hc        1 0SV      0.045367
     46 H20        -4.1070   -0.2890   -4.1960 hc        1 0SV      0.045367
     47 H21        -3.0970   -1.1690   -2.9760 hc        1 0SV      0.045367
     48 H22        -3.1880    0.6470   -2.9460 hc        1 0SV      0.045367
     49 H23        -1.3740   -0.1880   -1.6150 ha        1 0SV      0.184000
     50 H24         3.0800    1.9940   -2.6080 ha        1 0SV      0.154000
     51 H25         5.5290    2.1050   -2.9870 ha        1 0SV      0.151500
     52 H26         7.5900    0.9490   -3.5460 hc        1 0SV      0.059700
     53 H27         7.2540    0.7730   -5.3180 hc        1 0SV      0.059700
     54 H28         7.5550   -0.7000   -4.3060 hc        1 0SV      0.059700
     55 H29         5.4010   -1.6630   -5.1050 ha        1 0SV      0.151500
     56 H30         2.9530   -1.8090   -4.7330 ha        1 0SV      0.154000
     57 H192        2.9700    1.8390    1.3310 hn        1 0SV      0.461300
@<TRIPOS>BOND
     1    1    2 2   
     2    2    3 1   
     3    2   10 1   
     4    3    4 1   
     5    3   27 1   
     6    3   57 1   
     7    4    5 1   
     8    4   28 1   
     9    4   29 1   
    10    5    6 1   
    11    5   30 1   
    12    5   31 1   
    13    6    7 1   
    14    6   32 1   
    15    6   33 1   
    16    7    8 1   
    17    7   34 1   
    18    7   35 1   
    19    8    9 1   
    20    8   36 1   
    21    8   37 1   
    22    9   38 1   
    23   10   11 1   
    24   10   39 1   
    25   11   12 1   
    26   11   19 2   
    27   12   13 1   
    28   12   20 1   
    29   13   14 2   
    30   14   15 1   
    31   14   19 1   
    32   15   16 1   
    33   15   17 1   
    34   15   18 1   
    35   16   40 1   
    36   16   41 1   
    37   16   42 1   
    38   17   43 1   
    39   17   44 1   
    40   17   45 1   
    41   18   46 1   
    42   18   47 1   
    43   18   48 1   
    44   19   49 1   
    45   20   21 ar  
    46   20   26 ar  
    47   21   22 ar  
    48   21   50 1   
    49   22   23 ar  
    50   22   51 1   
    51   23   24 1   
    52   23   25 ar  
    53   24   52 1   
    54   24   53 1   
    55   24   54 1   
    56   25   26 ar  
    57   25   55 1   
    58   26   56 1   
@<TRIPOS>SUBSTRUCTURE
     1 0SV         1 TEMP              0 ****  ****    0 ROOT
