@<TRIPOS>MOLECULE
0SV
   56    57     1     0     0
SMALL
bcc


@<TRIPOS>ATOM
      1 O20        -1.2570   -1.8480   -0.1490 o         1 0SV     -0.603100
      2 C18        -1.1720   -0.6110   -0.3110 c         1 0SV      0.748100
      3 N19        -2.3110    0.2090   -0.2040 n         1 0SV     -0.546900
      4 C21        -3.6000   -0.4450   -0.2100 c3        1 0SV      0.082000
      5 C22        -4.7530    0.5230    0.0510 c3        1 0SV     -0.088400
      6 C23        -6.0630   -0.2350    0.0590 c3        1 0SV     -0.078400
      7 C24        -7.2250    0.7010    0.3020 c3        1 0SV     -0.084400
      8 C25        -8.5350   -0.0690    0.3220 c3        1 0SV      0.132400
      9 O26        -9.5690    0.8790    0.5330 oh        1 0SV     -0.601800
     10 N17         0.0670    0.0170   -0.6210 n         1 0SV     -0.428100
     11 C1          1.2630   -0.6610   -0.3580 cc        1 0SV      0.019300
     12 N5          2.4740   -0.0210    0.0680 na        1 0SV      0.120300
     13 N4          3.4720   -0.9180    0.2010 nc        1 0SV     -0.494800
     14 C3          2.9500   -2.1470   -0.0550 cd        1 0SV      0.332600
     15 C12         3.6930   -3.4450    0.0260 c3        1 0SV     -0.075300
     16 C15         3.6250   -4.1310   -1.3340 c3        1 0SV     -0.084767
     17 C14         5.1530   -3.2440    0.4090 c3        1 0SV     -0.084767
     18 C13         3.0200   -4.3270    1.0740 c3        1 0SV     -0.084767
     19 C2          1.5490   -2.0360   -0.4180 cd        1 0SV     -0.276300
     20 C6          2.7000    1.3840    0.0420 ca        1 0SV      0.008800
     21 C11         2.2960    2.1650   -1.0590 ca        1 0SV     -0.128000
     22 C9          2.4930    3.5420   -1.0420 ca        1 0SV     -0.124000
     23 C7          3.1110    4.1670    0.0470 ca        1 0SV     -0.074300
     24 C16         3.3340    5.6300    0.0490 c3        1 0SV     -0.055800
     25 C8          3.5350    3.3840    1.1270 ca        1 0SV     -0.124000
     26 C10         3.3390    2.0070    1.1340 ca        1 0SV     -0.128000
     27 H1         -2.2860    1.1080   -0.6300 hn        1 0SV      0.294500
     28 H2         -3.7730   -0.9680   -1.1960 h1        1 0SV      0.055700
     29 H3         -3.5830   -1.2400    0.5910 h1        1 0SV      0.055700
     30 H4         -4.6090    1.0390    1.0360 hc        1 0SV      0.048700
     31 H5         -4.7820    1.3160   -0.7430 hc        1 0SV      0.048700
     32 H6         -6.2010   -0.7630   -0.9220 hc        1 0SV      0.045700
     33 H7         -6.0370   -1.0220    0.8590 hc        1 0SV      0.045700
     34 H8         -7.0970    1.2350    1.2800 hc        1 0SV      0.056200
     35 H9         -7.2690    1.4840   -0.4990 hc        1 0SV      0.056200
     36 H10        -8.6960   -0.6000   -0.6550 h1        1 0SV      0.021200
     37 H11        -8.5350   -0.8280    1.1490 h1        1 0SV      0.021200
     38 H12       -10.3960    0.3830    0.5570 ho        1 0SV      0.400000
     39 H13         0.1120    1.0110   -0.5180 hn        1 0SV      0.310500
     40 H14         4.1320   -3.5080   -2.1090 hc        1 0SV      0.038922
     41 H15         4.1330   -5.1240   -1.2830 hc        1 0SV      0.038922
     42 H16         2.5620   -4.2870   -1.6380 hc        1 0SV      0.038922
     43 H17         5.2330   -2.7560    1.4090 hc        1 0SV      0.038922
     44 H18         5.6680   -4.2340    0.4530 hc        1 0SV      0.038922
     45 H19         5.6710   -2.6050   -0.3450 hc        1 0SV      0.038922
     46 H20         1.9450   -4.4830    0.8180 hc        1 0SV      0.038922
     47 H21         3.5290   -5.3200    1.1150 hc        1 0SV      0.038922
     48 H22         3.0830   -3.8490    2.0800 hc        1 0SV      0.038922
     49 H23         0.8580   -2.8400   -0.6530 ha        1 0SV      0.192000
     50 H24         1.8460    1.6950   -1.9480 ha        1 0SV      0.152000
     51 H25         2.1690    4.1450   -1.9040 ha        1 0SV      0.138000
     52 H26         3.2640    6.0430    1.0850 hc        1 0SV      0.047367
     53 H27         4.3550    5.8590   -0.3500 hc        1 0SV      0.047367
     54 H28         2.5830    6.1530   -0.5930 hc        1 0SV      0.047367
     55 H29         4.0330    3.8630    1.9840 ha        1 0SV      0.138000
     56 H30         3.6900    1.4070    1.9880 ha        1 0SV      0.152000
@<TRIPOS>BOND
     1    1    2 2   
     2    2    3 1   
     3    2   10 1   
     4    3    4 1   
     5    3   27 1   
     6    4    5 1   
     7    4   28 1   
     8    4   29 1   
     9    5    6 1   
    10    5   30 1   
    11    5   31 1   
    12    6    7 1   
    13    6   32 1   
    14    6   33 1   
    15    7    8 1   
    16    7   34 1   
    17    7   35 1   
    18    8    9 1   
    19    8   36 1   
    20    8   37 1   
    21    9   38 1   
    22   10   11 1   
    23   10   39 1   
    24   11   12 1   
    25   11   19 2   
    26   12   13 1   
    27   12   20 1   
    28   13   14 2   
    29   14   15 1   
    30   14   19 1   
    31   15   16 1   
    32   15   17 1   
    33   15   18 1   
    34   16   40 1   
    35   16   41 1   
    36   16   42 1   
    37   17   43 1   
    38   17   44 1   
    39   17   45 1   
    40   18   46 1   
    41   18   47 1   
    42   18   48 1   
    43   19   49 1   
    44   20   21 ar  
    45   20   26 ar  
    46   21   22 ar  
    47   21   50 1   
    48   22   23 ar  
    49   22   51 1   
    50   23   24 1   
    51   23   25 ar  
    52   24   52 1   
    53   24   53 1   
    54   24   54 1   
    55   25   26 ar  
    56   25   55 1   
    57   26   56 1   
@<TRIPOS>SUBSTRUCTURE
     1 0SV         1 TEMP              0 ****  ****    0 ROOT
