@<TRIPOS>MOLECULE
0SV
   58    59     1     0     0
SMALL
bcc


@<TRIPOS>ATOM
      1 O20         4.4300   -3.2510    0.4550 o         1 0SV     -0.301100
      2 C18         3.5070   -2.5670    0.0460 c         1 0SV      0.478100
      3 N19         2.6560   -1.7820    0.9780 n4        1 0SV     -0.638800
      4 C21         3.1820   -0.3730    1.1460 c3        1 0SV      0.104800
      5 C22         2.2880    0.4630    2.0540 c3        1 0SV     -0.110400
      6 C23         2.7460    1.9100    1.9560 c3        1 0SV     -0.081400
      7 C24         1.7460    2.8430    2.6060 c3        1 0SV     -0.085400
      8 C25         2.0370    4.2880    2.2260 c3        1 0SV      0.130400
      9 O26         1.9340    4.3930    0.8110 oh        1 0SV     -0.642800
     10 N17         3.2110   -2.4990   -1.4300 n4        1 0SV     -0.442200
     11 C1          1.8500   -2.1620   -1.7270 cc        1 0SV     -0.285700
     12 N5          1.4020   -0.8650   -2.1250 na        1 0SV      0.237300
     13 N4          0.1190   -0.8890   -2.4150 nc        1 0SV     -0.364800
     14 C3         -0.3530   -2.1790   -2.2320 cd        1 0SV      0.354600
     15 C12        -1.7790   -2.5840   -2.4780 c3        1 0SV     -0.085300
     16 C15        -2.7020   -1.7690   -1.5790 c3        1 0SV     -0.098100
     17 C14        -2.1300   -2.3250   -3.9400 c3        1 0SV     -0.098100
     18 C13        -1.9490   -4.0660   -2.1720 c3        1 0SV     -0.098100
     19 C2          0.7170   -3.0280   -1.8030 cd        1 0SV     -0.172300
     20 C6          2.2870    0.2540   -2.2890 ca        1 0SV     -0.129200
     21 C11         2.0240    1.4600   -1.6130 ca        1 0SV     -0.126500
     22 C9          2.8780    2.5450   -1.7910 ca        1 0SV     -0.114500
     23 C7          3.9730    2.4650   -2.6620 ca        1 0SV     -0.001300
     24 C16         4.8470    3.6360   -2.8860 c3        1 0SV     -0.086800
     25 C8          4.2080    1.2630   -3.3530 ca        1 0SV     -0.114500
     26 C10         3.3750    0.1650   -3.1850 ca        1 0SV     -0.126500
     27 H1          2.6710   -2.2600    1.9000 hn        1 0SV      0.502800
     28 H2          3.2200    0.0950    0.1170 hx        1 0SV      0.121200
     29 H3          4.2230   -0.4450    1.5780 hx        1 0SV      0.121200
     30 H4          1.2140    0.3930    1.7320 hc        1 0SV      0.082200
     31 H5          2.3570    0.1120    3.1180 hc        1 0SV      0.082200
     32 H6          2.8540    2.2010    0.8730 hc        1 0SV      0.067700
     33 H7          3.7490    2.0270    2.4450 hc        1 0SV      0.067700
     34 H8          0.7060    2.5840    2.2750 hc        1 0SV      0.064700
     35 H9          1.7900    2.7490    3.7210 hc        1 0SV      0.064700
     36 H10         3.0770    4.5790    2.5350 h1        1 0SV      0.053700
     37 H11         1.2970    4.9650    2.7290 h1        1 0SV      0.053700
     38 H12         1.7590    5.3210    0.6110 ho        1 0SV      0.429000
     39 H13         3.8600   -1.8020   -1.8610 hn        1 0SV      0.518800
     40 H14        -2.6360   -0.6820   -1.8210 hc        1 0SV      0.056478
     41 H15        -3.7580   -2.1000   -1.7390 hc        1 0SV      0.056478
     42 H16        -2.4430   -1.9230   -0.5050 hc        1 0SV      0.056478
     43 H17        -2.0680   -1.2360   -4.1770 hc        1 0SV      0.056478
     44 H18        -1.4410   -2.8850   -4.6160 hc        1 0SV      0.056478
     45 H19        -3.1750   -2.6700   -4.1340 hc        1 0SV      0.056478
     46 H20        -1.7010   -4.2850   -1.1060 hc        1 0SV      0.056478
     47 H21        -1.3010   -4.6860   -2.8370 hc        1 0SV      0.056478
     48 H22        -3.0140   -4.3590   -2.3510 hc        1 0SV      0.056478
     49 H23         0.6650   -4.0970   -1.6000 ha        1 0SV      0.209000
     50 H24         1.1350    1.5740   -0.9690 ha        1 0SV      0.158500
     51 H25         2.6680    3.4860   -1.2430 ha        1 0SV      0.186500
     52 H26         5.8990    3.3230   -3.1020 hc        1 0SV      0.080367
     53 H27         4.8490    4.3170   -1.9980 hc        1 0SV      0.080367
     54 H28         4.4710    4.2190   -3.7680 hc        1 0SV      0.080367
     55 H29         5.0490    1.2040   -4.0660 ha        1 0SV      0.186500
     56 H30         3.5270   -0.7280   -3.8140 ha        1 0SV      0.158500
     57 H192        1.6750   -1.7460    0.6450 hn        1 0SV      0.502800
     58 H172        3.4170   -3.4400   -1.8280 hn        1 0SV      0.518800
@<TRIPOS>BOND
     1    1    2 2   
     2    2    3 1   
     3    2   10 1   
     4    3    4 1   
     5    3   27 1   
     6    3   57 1   
     7    4    5 1   
     8    4   28 1   
     9    4   29 1   
    10    5    6 1   
    11    5   30 1   
    12    5   31 1   
    13    6    7 1   
    14    6   32 1   
    15    6   33 1   
    16    7    8 1   
    17    7   34 1   
    18    7   35 1   
    19    8    9 1   
    20    8   36 1   
    21    8   37 1   
    22    9   38 1   
    23   10   11 1   
    24   10   39 1   
    25   10   58 1   
    26   11   12 1   
    27   11   19 2   
    28   12   13 1   
    29   12   20 1   
    30   13   14 2   
    31   14   15 1   
    32   14   19 1   
    33   15   16 1   
    34   15   17 1   
    35   15   18 1   
    36   16   40 1   
    37   16   41 1   
    38   16   42 1   
    39   17   43 1   
    40   17   44 1   
    41   17   45 1   
    42   18   46 1   
    43   18   47 1   
    44   18   48 1   
    45   19   49 1   
    46   20   21 ar  
    47   20   26 ar  
    48   21   22 ar  
    49   21   50 1   
    50   22   23 ar  
    51   22   51 1   
    52   23   24 1   
    53   23   25 ar  
    54   24   52 1   
    55   24   53 1   
    56   24   54 1   
    57   25   26 ar  
    58   25   55 1   
    59   26   56 1   
@<TRIPOS>SUBSTRUCTURE
     1 0SV         1 TEMP              0 ****  ****    0 ROOT
