@<TRIPOS>MOLECULE
0SW
   35    37     1     0     0
SMALL
bcc


@<TRIPOS>ATOM
      1 N11        -0.1100   -0.0150    0.1130 n4        1 0SW     -0.754700
      2 C10         1.3720   -0.0090    0.0290 ca        1 0SW      0.517200
      3 C2          2.1100   -0.0090    1.2700 ca        1 0SW     -0.251600
      4 C4          1.5360   -0.0140    2.5640 ca        1 0SW     -0.153000
      5 C6          2.3420   -0.0140    3.6790 ca        1 0SW     -0.065000
      6 C5          3.7520   -0.0070    3.5500 ca        1 0SW     -0.091000
      7 C3          4.3470   -0.0020    2.3130 ca        1 0SW     -0.141300
      8 N8          1.9540   -0.0030   -1.1720 nb        1 0SW     -0.661000
      9 C7          3.3380    0.0030   -1.1760 ca        1 0SW      0.653900
     10 N9          4.1410    0.0030   -0.1150 nb        1 0SW     -0.610000
     11 C1          3.5420   -0.0020    1.1280 ca        1 0SW      0.428600
     12 C12        -0.8420   -0.0160   -1.1940 c3        1 0SW      0.111800
     13 C13        -2.3580   -0.0230   -0.9880 c3        1 0SW     -0.051100
     14 C14        -3.0190   -0.0220   -2.3220 ca        1 0SW     -0.128300
     15 C19        -3.3390    1.1890   -2.9460 ca        1 0SW     -0.115000
     16 C18        -3.9760    1.1870   -4.1860 ca        1 0SW     -0.117000
     17 C16        -4.2950   -0.0210   -4.8080 ca        1 0SW     -0.099000
     18 C15        -3.9790   -1.2290   -4.1860 ca        1 0SW     -0.117000
     19 C17        -3.3420   -1.2320   -2.9460 ca        1 0SW     -0.115000
     20 H1         -0.3860    0.8170    0.6520 hn        1 0SW      0.457800
     21 H2          0.4450   -0.0190    2.6990 ha        1 0SW      0.125000
     22 H3          1.8970   -0.0180    4.6880 ha        1 0SW      0.166000
     23 H4          4.3710   -0.0070    4.4640 ha        1 0SW      0.172000
     24 H5          5.4470    0.0030    2.2100 ha        1 0SW      0.186000
     25 H6          3.8030    0.0070   -2.1890 h5        1 0SW      0.097100
     26 H7         -0.5350    0.9020   -1.7740 hx        1 0SW      0.123700
     27 H8         -0.5270   -0.9290   -1.7780 hx        1 0SW      0.123700
     28 H9         -2.6700   -0.9330   -0.4090 hc        1 0SW      0.065700
     29 H10        -2.6780    0.8830   -0.4050 hc        1 0SW      0.065700
     30 H11        -3.0990    2.1440   -2.4560 ha        1 0SW      0.131500
     31 H12        -4.2300    2.1420   -4.6730 ha        1 0SW      0.151000
     32 H13        -4.8000   -0.0200   -5.7860 ha        1 0SW      0.153000
     33 H14        -4.2360   -2.1830   -4.6720 ha        1 0SW      0.151000
     34 H15        -3.1050   -2.1880   -2.4550 ha        1 0SW      0.131500
     35 H112       -0.3790   -0.8520    0.6480 hn        1 0SW      0.457800
@<TRIPOS>BOND
     1    1    2 1   
     2    1   12 1   
     3    1   20 1   
     4    1   35 1   
     5    2    3 ar  
     6    2    8 ar  
     7    3    4 ar  
     8    3   11 ar  
     9    4    5 ar  
    10    4   21 1   
    11    5    6 ar  
    12    5   22 1   
    13    6    7 ar  
    14    6   23 1   
    15    7   11 ar  
    16    7   24 1   
    17    8    9 ar  
    18    9   10 ar  
    19    9   25 1   
    20   10   11 ar  
    21   12   13 1   
    22   12   26 1   
    23   12   27 1   
    24   13   14 1   
    25   13   28 1   
    26   13   29 1   
    27   14   15 ar  
    28   14   19 ar  
    29   15   16 ar  
    30   15   30 1   
    31   16   17 ar  
    32   16   31 1   
    33   17   18 ar  
    34   17   32 1   
    35   18   19 ar  
    36   18   33 1   
    37   19   34 1   
@<TRIPOS>SUBSTRUCTURE
     1 0SW         1 TEMP              0 ****  ****    0 ROOT
