@<TRIPOS>MOLECULE
0SW
   34    36     1     0     0
SMALL
bcc


@<TRIPOS>ATOM
      1 N11        -0.2300    0.5340    0.1900 nh        1 0SW     -0.852900
      2 C10        -1.3190   -0.3160    0.0500 ca        1 0SW      0.702200
      3 C2         -2.6710    0.2530   -0.0030 ca        1 0SW     -0.294600
      4 C4         -2.9540    1.6370    0.0250 ca        1 0SW     -0.092000
      5 C6         -4.2520    2.0910   -0.0320 ca        1 0SW     -0.146000
      6 C5         -5.3240    1.1770   -0.1160 ca        1 0SW     -0.104000
      7 C3         -5.0910   -0.1760   -0.1380 ca        1 0SW     -0.180300
      8 N8         -1.1320   -1.6590    0.0230 nb        1 0SW     -0.784000
      9 C7         -2.2630   -2.4360   -0.0390 ca        1 0SW      0.674900
     10 N9         -3.5350   -2.0470   -0.0950 nb        1 0SW     -0.725000
     11 C1         -3.7530   -0.6800   -0.0790 ca        1 0SW      0.438600
     12 C12         1.1230    0.0360    0.0950 c3        1 0SW      0.206800
     13 C13         2.1660    1.1520    0.2180 c3        1 0SW     -0.049100
     14 C14         3.5370    0.5850    0.1030 ca        1 0SW     -0.084300
     15 C19         4.3430    0.4410    1.2380 ca        1 0SW     -0.123000
     16 C18         5.6310   -0.0790    1.1230 ca        1 0SW     -0.127500
     17 C16         6.1240   -0.4600   -0.1240 ca        1 0SW     -0.127000
     18 C15         5.3250   -0.3190   -1.2590 ca        1 0SW     -0.127500
     19 C17         4.0370    0.2010   -1.1470 ca        1 0SW     -0.123000
     20 H1         -0.3700    1.4720   -0.1090 hn        1 0SW      0.421800
     21 H2         -2.1430    2.3770    0.1020 ha        1 0SW      0.126000
     22 H3         -4.4660    3.1700   -0.0100 ha        1 0SW      0.136000
     23 H4         -6.3540    1.5630   -0.1620 ha        1 0SW      0.137000
     24 H5         -5.9250   -0.8920   -0.2000 ha        1 0SW      0.154000
     25 H6         -2.0680   -3.5300   -0.0500 h5        1 0SW      0.050100
     26 H7          1.2810   -0.7120    0.9240 h1        1 0SW      0.062200
     27 H8          1.2830   -0.5030   -0.8850 h1        1 0SW      0.062200
     28 H9          2.0120    1.9150   -0.5920 hc        1 0SW      0.052200
     29 H10         2.0480    1.6780    1.2030 hc        1 0SW      0.052200
     30 H11         3.9580    0.7390    2.2250 ha        1 0SW      0.132000
     31 H12         6.2590   -0.1890    2.0200 ha        1 0SW      0.133000
     32 H13         7.1410   -0.8700   -0.2140 ha        1 0SW      0.133000
     33 H14         5.7110   -0.6190   -2.2440 ha        1 0SW      0.133000
     34 H15         3.4080    0.3100   -2.0430 ha        1 0SW      0.132000
@<TRIPOS>BOND
     1    1    2 1   
     2    1   12 1   
     3    1   20 1   
     4    2    3 ar  
     5    2    8 ar  
     6    3    4 ar  
     7    3   11 ar  
     8    4    5 ar  
     9    4   21 1   
    10    5    6 ar  
    11    5   22 1   
    12    6    7 ar  
    13    6   23 1   
    14    7   11 ar  
    15    7   24 1   
    16    8    9 ar  
    17    9   10 ar  
    18    9   25 1   
    19   10   11 ar  
    20   12   13 1   
    21   12   26 1   
    22   12   27 1   
    23   13   14 1   
    24   13   28 1   
    25   13   29 1   
    26   14   15 ar  
    27   14   19 ar  
    28   15   16 ar  
    29   15   30 1   
    30   16   17 ar  
    31   16   31 1   
    32   17   18 ar  
    33   17   32 1   
    34   18   19 ar  
    35   18   33 1   
    36   19   34 1   
@<TRIPOS>SUBSTRUCTURE
     1 0SW         1 TEMP              0 ****  ****    0 ROOT
