@<TRIPOS>MOLECULE
0SW
   34    36     1     0     0
SMALL
bcc


@<TRIPOS>ATOM
      1 N11         0.0100   -0.1950   -0.0350 nu        1 0SW     -0.852900
      2 C10         1.3920   -0.0540   -0.0390 ca        1 0SW      0.702200
      3 C2          2.1110    0.0030    1.2390 ca        1 0SW     -0.294600
      4 C4          1.4850   -0.0210    2.5060 ca        1 0SW     -0.092000
      5 C6          2.2320    0.0400    3.6600 ca        1 0SW     -0.146000
      6 C5          3.6400    0.1250    3.5950 ca        1 0SW     -0.104000
      7 C3          4.2850    0.1430    2.3830 ca        1 0SW     -0.180300
      8 N8          2.0670   -0.0300   -1.2150 nb        1 0SW     -0.784000
      9 C7          3.4370    0.0330   -1.1350 ca        1 0SW      0.674900
     10 N9          4.2040    0.0920   -0.0480 nb        1 0SW     -0.725000
     11 C1          3.5380    0.0800    1.1650 ca        1 0SW      0.438600
     12 C12        -0.7530   -0.1040   -1.2580 c3        1 0SW      0.206800
     13 C13        -2.2620   -0.2280   -1.0170 c3        1 0SW     -0.049100
     14 C14        -2.9970   -0.1170   -2.3060 ca        1 0SW     -0.084300
     15 C19        -3.1610    1.1320   -2.9170 ca        1 0SW     -0.123000
     16 C18        -3.8590    1.2400   -4.1180 ca        1 0SW     -0.127500
     17 C16        -4.4000    0.1030   -4.7180 ca        1 0SW     -0.127000
     18 C15        -4.2390   -1.1440   -4.1140 ca        1 0SW     -0.127500
     19 C17        -3.5400   -1.2550   -2.9130 ca        1 0SW     -0.123000
     20 H1         -0.4550    0.1070    0.7910 hn        1 0SW      0.421800
     21 H2          0.3910   -0.0990    2.5930 ha        1 0SW      0.126000
     22 H3          1.7400    0.0210    4.6440 ha        1 0SW      0.136000
     23 H4          4.2160    0.1740    4.5320 ha        1 0SW      0.137000
     24 H5          5.3830    0.2050    2.3290 ha        1 0SW      0.154000
     25 H6          3.9540    0.0410   -2.1190 h5        1 0SW      0.050100
     26 H7         -0.5500    0.8750   -1.7850 h1        1 0SW      0.062200
     27 H8         -0.4180   -0.9340   -1.9440 h1        1 0SW      0.062200
     28 H9         -2.6080    0.5830   -0.3210 hc        1 0SW      0.052200
     29 H10        -2.4890   -1.2120   -0.5260 hc        1 0SW      0.052200
     30 H11        -2.7350    2.0300   -2.4450 ha        1 0SW      0.132000
     31 H12        -3.9840    2.2250   -4.5920 ha        1 0SW      0.133000
     32 H13        -4.9510    0.1890   -5.6660 ha        1 0SW      0.133000
     33 H14        -4.6630   -2.0420   -4.5850 ha        1 0SW      0.133000
     34 H15        -3.4150   -2.2410   -2.4400 ha        1 0SW      0.132000
@<TRIPOS>BOND
     1    1    2 1   
     2    1   12 1   
     3    1   20 1   
     4    2    3 ar  
     5    2    8 ar  
     6    3    4 ar  
     7    3   11 ar  
     8    4    5 ar  
     9    4   21 1   
    10    5    6 ar  
    11    5   22 1   
    12    6    7 ar  
    13    6   23 1   
    14    7   11 ar  
    15    7   24 1   
    16    8    9 ar  
    17    9   10 ar  
    18    9   25 1   
    19   10   11 ar  
    20   12   13 1   
    21   12   26 1   
    22   12   27 1   
    23   13   14 1   
    24   13   28 1   
    25   13   29 1   
    26   14   15 ar  
    27   14   19 ar  
    28   15   16 ar  
    29   15   30 1   
    30   16   17 ar  
    31   16   31 1   
    32   17   18 ar  
    33   17   32 1   
    34   18   19 ar  
    35   18   33 1   
    36   19   34 1   
@<TRIPOS>SUBSTRUCTURE
     1 0SW         1 TEMP              0 ****  ****    0 ROOT
