@<TRIPOS>MOLECULE
0SW
   34    36     1     0     0
SMALL
bcc


@<TRIPOS>ATOM
      1 N11         0.0100   -0.1930   -0.0350 nh        1 0SW     -0.852900
      2 C10         1.3920   -0.0580   -0.0410 ca        1 0SW      0.702200
      3 C2          2.1120    0.0010    1.2370 ca        1 0SW     -0.294600
      4 C4          1.4880   -0.0170    2.5040 ca        1 0SW     -0.092000
      5 C6          2.2360    0.0440    3.6580 ca        1 0SW     -0.146000
      6 C5          3.6440    0.1240    3.5910 ca        1 0SW     -0.104000
      7 C3          4.2880    0.1360    2.3790 ca        1 0SW     -0.180300
      8 N8          2.0670   -0.0390   -1.2170 nb        1 0SW     -0.784000
      9 C7          3.4370    0.0190   -1.1390 ca        1 0SW      0.674900
     10 N9          4.2050    0.0790   -0.0520 nb        1 0SW     -0.725000
     11 C1          3.5390    0.0720    1.1620 ca        1 0SW      0.438600
     12 C12        -0.7540   -0.1030   -1.2580 c3        1 0SW      0.206800
     13 C13        -2.2630   -0.2240   -1.0140 c3        1 0SW     -0.049100
     14 C14        -2.9980   -0.1130   -2.3030 ca        1 0SW     -0.084300
     15 C19        -3.1650    1.1360   -2.9130 ca        1 0SW     -0.123000
     16 C18        -3.8640    1.2440   -4.1140 ca        1 0SW     -0.127500
     17 C16        -4.4030    0.1060   -4.7150 ca        1 0SW     -0.127000
     18 C15        -4.2390   -1.1410   -4.1110 ca        1 0SW     -0.127500
     19 C17        -3.5400   -1.2510   -2.9100 ca        1 0SW     -0.123000
     20 H1         -0.4530    0.1120    0.7900 hn        1 0SW      0.421800
     21 H2          0.3940   -0.0910    2.5920 ha        1 0SW      0.126000
     22 H3          1.7450    0.0290    4.6420 ha        1 0SW      0.136000
     23 H4          4.2220    0.1730    4.5270 ha        1 0SW      0.137000
     24 H5          5.3870    0.1940    2.3230 ha        1 0SW      0.154000
     25 H6          3.9530    0.0230   -2.1230 h5        1 0SW      0.050100
     26 H7         -0.4220   -0.9350   -1.9420 h1        1 0SW      0.062200
     27 H8         -0.5500    0.8740   -1.7860 h1        1 0SW      0.062200
     28 H9         -2.4920   -1.2060   -0.5220 hc        1 0SW      0.052200
     29 H10        -2.6070    0.5900   -0.3200 hc        1 0SW      0.052200
     30 H11        -2.7400    2.0340   -2.4410 ha        1 0SW      0.132000
     31 H12        -3.9900    2.2280   -4.5880 ha        1 0SW      0.133000
     32 H13        -4.9540    0.1920   -5.6620 ha        1 0SW      0.133000
     33 H14        -4.6620   -2.0400   -4.5830 ha        1 0SW      0.133000
     34 H15        -3.4130   -2.2370   -2.4390 ha        1 0SW      0.132000
@<TRIPOS>BOND
     1    1    2 1   
     2    1   12 1   
     3    1   20 1   
     4    2    3 ar  
     5    2    8 ar  
     6    3    4 ar  
     7    3   11 ar  
     8    4    5 ar  
     9    4   21 1   
    10    5    6 ar  
    11    5   22 1   
    12    6    7 ar  
    13    6   23 1   
    14    7   11 ar  
    15    7   24 1   
    16    8    9 ar  
    17    9   10 ar  
    18    9   25 1   
    19   10   11 ar  
    20   12   13 1   
    21   12   26 1   
    22   12   27 1   
    23   13   14 1   
    24   13   28 1   
    25   13   29 1   
    26   14   15 ar  
    27   14   19 ar  
    28   15   16 ar  
    29   15   30 1   
    30   16   17 ar  
    31   16   31 1   
    32   17   18 ar  
    33   17   32 1   
    34   18   19 ar  
    35   18   33 1   
    36   19   34 1   
@<TRIPOS>SUBSTRUCTURE
     1 0SW         1 TEMP              0 ****  ****    0 ROOT
