@<TRIPOS>MOLECULE
0SW
   34    29     1     0     0
SMALL
bcc


@<TRIPOS>ATOM
      1 N11         0.1340    0.0210    0.8210 n3        1 0SW     -0.296000
      2 C10         1.5790   -0.0490    0.8930 c2        1 0SW      0.180000
      3 C2          2.3620   -0.7380    1.8120 c2        1 0SW     -0.164000
      4 C4          1.7670   -1.3250    2.9550 c1        1 0SW     -0.092000
      5 C6          2.5490   -2.0100    3.8680 c1        1 0SW     -0.125833
      6 C5          3.9180   -2.1220    3.6640 c1        1 0SW     -0.125833
      7 C3          4.5020   -1.5470    2.5450 c1        1 0SW     -0.115000
      8 N8          2.1470    0.5080   -0.1920 n1        1 0SW     -0.257000
      9 C7          3.5010    0.3960   -0.3920 c1        1 0SW      0.011000
     10 N9          4.2760   -0.2820    0.5130 n1        1 0SW     -0.198000
     11 C1          3.7040   -0.8470    1.6120 c1        1 0SW      0.045000
     12 C12        -0.5110    0.4180   -0.4150 c3        1 0SW     -0.030000
     13 C13        -2.0060    0.6760   -0.1540 c3        1 0SW     -0.135000
     14 C14        -2.7350    0.8650   -1.4920 c1        1 0SW     -0.077000
     15 C19        -3.3150   -0.2250   -2.1240 c1        1 0SW     -0.125833
     16 C18        -4.0430   -0.0430   -3.2910 c1        1 0SW     -0.125833
     17 C16        -4.1910    1.2300   -3.8270 c1        1 0SW     -0.125833
     18 C15        -3.6120    2.3190   -3.1960 c1        1 0SW     -0.125833
     19 C17        -2.8840    2.1380   -2.0280 c1        1 0SW     -0.123000
     20 H1         -0.3700   -0.1810    1.5540 hn        1 0SW      0.217000
     21 H2          0.8100   -1.2460    3.0980 ha        1 0SW      0.126000
     22 H3          2.1410   -2.4130    4.6520 ha        1 0SW      0.133500
     23 H4          4.4680   -2.6050    4.3070 ha        1 0SW      0.133500
     24 H5          5.4640   -1.6260    2.4020 ha        1 0SW      0.154000
     25 H6          3.9090    0.7980   -1.1740 ha        1 0SW      0.187000
     26 H7         -0.0930    1.2370   -0.7540 h1        1 0SW      0.101000
     27 H8         -0.4150   -0.2960   -1.0760 h1        1 0SW      0.101000
     28 H9         -2.3890   -0.0850    0.3200 hc        1 0SW      0.092000
     29 H10        -2.1070    1.4840    0.3910 hc        1 0SW      0.092000
     30 H11        -3.2110   -1.1170   -1.7490 ha        1 0SW      0.133500
     31 H12        -4.4520   -0.8120   -3.7370 ha        1 0SW      0.133500
     32 H13        -4.7040    1.3580   -4.6500 ha        1 0SW      0.133500
     33 H14        -3.7160    3.2140   -3.5720 ha        1 0SW      0.133500
     34 H15        -2.4760    2.9060   -1.5840 ha        1 0SW      0.135000
@<TRIPOS>BOND
     1    1    2 1   
     2    1   12 1   
     3    1   20 1   
     4    2    3 1   
     5    2    8 1   
     6    3    4 1   
     7    3   11 1   
     8    4   21 1   
     9    5    6 1   
    10    5   22 1   
    11    6   23 1   
    12    7   11 1   
    13    7   24 1   
    14    9   10 1   
    15    9   25 1   
    16   12   13 1   
    17   12   26 1   
    18   12   27 1   
    19   13   14 1   
    20   13   28 1   
    21   13   29 1   
    22   14   19 1   
    23   15   16 1   
    24   15   30 1   
    25   16   31 1   
    26   17   18 1   
    27   17   32 1   
    28   18   33 1   
    29   19   34 1   
@<TRIPOS>SUBSTRUCTURE
     1 0SW         1 TEMP              0 ****  ****    0 ROOT
