@<TRIPOS>MOLECULE
0SX
   32    35     1     0     0
SMALL
bcc


@<TRIPOS>ATOM
      1 CAH         1.2160   -0.7530    1.1770 c3        1 0SX     -0.093400
      2 CAF         1.7740    0.6200    1.5310 c3        1 0SX     -0.104400
      3 CAG         0.6130    1.6100    1.3440 c3        1 0SX      0.149800
      4 NAJ        -0.5210    0.9220    0.7380 n3        1 0SX     -0.826200
      5 CAT        -0.2170   -0.5060    0.6460 c3        1 0SX      0.130200
      6 CAN        -1.2070   -1.3640    1.4640 cc        1 0SX      0.490900
      7 NAI        -1.5560   -2.5470    0.9470 nd        1 0SX     -0.601300
      8 CAR        -2.4070   -3.3020    1.7220 cd        1 0SX      0.176400
      9 CAQ        -3.0000   -4.6140    1.5020 ca        1 0SX     -0.093800
     10 CAE        -2.9430   -5.5630    0.4890 ca        1 0SX     -0.050000
     11 CAM        -3.6830   -6.7370    0.6590 ca        1 0SX     -0.012600
     12 CL         -3.6400   -7.9250   -0.5570 cl        1 0SX     -0.089400
     13 CAC        -4.4640   -6.9690    1.8060 ca        1 0SX     -0.092000
     14 CAD        -4.5350   -6.0300    2.8320 ca        1 0SX     -0.121000
     15 CAP        -3.7990   -4.8610    2.6650 ca        1 0SX      0.083100
     16 OAL        -3.7370   -3.8000    3.5770 os        1 0SX     -0.143200
     17 CAS        -2.8840   -2.8710    2.9740 cc        1 0SX     -0.109100
     18 CAO        -2.5180   -1.5870    3.5390 c         1 0SX      0.725700
     19 OAA        -2.8760   -1.0940    4.6200 o         1 0SX     -0.601500
     20 NAK        -1.6330   -0.8720    2.6970 n         1 0SX     -0.457400
     21 H1          1.2070   -1.4250    2.0690 hc        1 0SX      0.063700
     22 H2          1.8290   -1.2490    0.3850 hc        1 0SX      0.063700
     23 H3          2.1460    0.6460    2.5840 hc        1 0SX      0.056200
     24 H4          2.6280    0.8870    0.8620 hc        1 0SX      0.056200
     25 H5          0.2720    1.9990    2.3440 h1        1 0SX      0.050700
     26 H6          0.9370    2.4920    0.7290 h1        1 0SX      0.050700
     27 H7         -0.7470    1.2960   -0.1620 hn        1 0SX      0.377800
     28 H9         -0.2880   -0.8550   -0.4260 h1        1 0SX      0.084700
     29 H10        -2.3350   -5.3890   -0.4120 ha        1 0SX      0.166000
     30 H11        -5.0310   -7.9100    1.8960 ha        1 0SX      0.154000
     31 H12        -5.1410   -6.2000    3.7320 ha        1 0SX      0.162000
     32 H13        -1.3660    0.0480    2.9790 hn        1 0SX      0.353500
@<TRIPOS>BOND
     1    1    2 1   
     2    1    5 1   
     3    1   21 1   
     4    1   22 1   
     5    2    3 1   
     6    2   23 1   
     7    2   24 1   
     8    3    4 1   
     9    3   25 1   
    10    3   26 1   
    11    4    5 1   
    12    4   27 1   
    13    5    6 1   
    14    5   28 1   
    15    6    7 2   
    16    6   20 1   
    17    7    8 1   
    18    8    9 1   
    19    8   17 2   
    20    9   10 ar  
    21    9   15 ar  
    22   10   11 ar  
    23   10   29 1   
    24   11   12 1   
    25   11   13 ar  
    26   13   14 ar  
    27   13   30 1   
    28   14   15 ar  
    29   14   31 1   
    30   15   16 1   
    31   16   17 1   
    32   17   18 1   
    33   18   19 2   
    34   18   20 1   
    35   20   32 1   
@<TRIPOS>SUBSTRUCTURE
     1 0SX         1 TEMP              0 ****  ****    0 ROOT
