@<TRIPOS>MOLECULE
0SX
   32    35     1     0     0
SMALL
bcc


@<TRIPOS>ATOM
      1 CAH         1.2370   -0.7080    1.5670 c3        1 0SX     -0.093400
      2 CAF         1.6950    0.7060    1.9030 c3        1 0SX     -0.104400
      3 CAG         0.5750    1.6400    1.4160 c3        1 0SX      0.149800
      4 NAJ        -0.4100    0.8700    0.6670 n7        1 0SX     -0.826200
      5 CAT        -0.0710   -0.5510    0.7560 c3        1 0SX      0.130200
      6 CAN        -1.1850   -1.3720    1.4420 cc        1 0SX      0.490900
      7 NAI        -1.4100   -2.6030    0.9700 nd        1 0SX     -0.601300
      8 CAR        -2.3810   -3.3200    1.6310 cd        1 0SX      0.176400
      9 CAQ        -2.9000   -4.6630    1.4150 ca        1 0SX     -0.093800
     10 CAE        -2.6350   -5.6890    0.5160 ca        1 0SX     -0.050000
     11 CAM        -3.3750   -6.8680    0.6420 ca        1 0SX     -0.012600
     12 Cl         -3.0810   -8.1480   -0.4390 cl        1 0SX     -0.089400
     13 CAC        -4.3570   -7.0320    1.6350 ca        1 0SX     -0.092000
     14 CAD        -4.6380   -6.0170    2.5460 ca        1 0SX     -0.121000
     15 CAP        -3.9030   -4.8420    2.4220 ca        1 0SX      0.083100
     16 OAL        -4.0340   -3.7100    3.2360 os        1 0SX     -0.143200
     17 CAS        -3.0960   -2.8050    2.7290 cc        1 0SX     -0.109100
     18 CAO        -2.8660   -1.4690    3.2420 c         1 0SX      0.725700
     19 OAA        -3.4320   -0.9020    4.1900 o         1 0SX     -0.601500
     20 NAK        -1.8470   -0.7960    2.5250 ns        1 0SX     -0.457400
     21 H1          1.0690   -1.3070    2.4950 hc        1 0SX      0.063700
     22 H2          1.9990   -1.2460    0.9520 hc        1 0SX      0.063700
     23 H3          1.8570    0.8280    3.0020 hc        1 0SX      0.056200
     24 H4          2.6570    0.9460    1.3890 hc        1 0SX      0.056200
     25 H5          0.9970    2.4790    0.8000 h1        1 0SX      0.050700
     26 H6          0.0430    2.0970    2.2960 h1        1 0SX      0.050700
     27 H7         -0.4660    1.1620   -0.2880 hn        1 0SX      0.377800
     28 H9          0.0700   -0.9870   -0.2770 h1        1 0SX      0.084700
     29 H10        -1.8690   -5.5690   -0.2650 ha        1 0SX      0.166000
     30 H11        -4.9160   -7.9810    1.6960 ha        1 0SX      0.154000
     31 H12        -5.4030   -6.1330    3.3250 ha        1 0SX      0.162000
     32 H13        -1.6550    0.1520    2.7730 hn        1 0SX      0.353500
@<TRIPOS>BOND
     1    1    2 1   
     2    1    5 1   
     3    1   21 1   
     4    1   22 1   
     5    2    3 1   
     6    2   23 1   
     7    2   24 1   
     8    3    4 1   
     9    3   25 1   
    10    3   26 1   
    11    4    5 1   
    12    4   27 1   
    13    5    6 1   
    14    5   28 1   
    15    6    7 2   
    16    6   20 1   
    17    7    8 1   
    18    8    9 1   
    19    8   17 2   
    20    9   10 ar  
    21    9   15 ar  
    22   10   11 ar  
    23   10   29 1   
    24   11   12 1   
    25   11   13 ar  
    26   13   14 ar  
    27   13   30 1   
    28   14   15 ar  
    29   14   31 1   
    30   15   16 1   
    31   16   17 1   
    32   17   18 1   
    33   18   19 2   
    34   18   20 1   
    35   20   32 1   
@<TRIPOS>SUBSTRUCTURE
     1 0SX         1 TEMP              0 ****  ****    0 ROOT
