@<TRIPOS>MOLECULE
0SX
   32    28     1     0     0
SMALL
bcc


@<TRIPOS>ATOM
      1 CAH         1.5240    1.8520   -2.3810 c3        1 0SX     -0.172000
      2 CAF         2.7610    1.7550   -2.6290 c3        1 0SX     -0.183000
      3 CAG         3.3810    1.2220   -1.3790 c3        1 0SX     -0.087000
      4 NAJ         2.3150    1.3300   -0.2880 n3        1 0SX     -0.305000
      5 CAT         1.3760    2.0930   -0.7780 c3        1 0SX      0.008000
      6 CAN         0.1900    1.4740   -0.4280 c2        1 0SX      0.121000
      7 NAI         0.2140    0.1750    0.2210 n1        1 0SX     -0.173000
      8 CAR        -1.0340   -0.4600    0.6330 c1        1 0SX      0.024000
      9 CAQ        -1.3010   -1.6600    1.3130 c1        1 0SX     -0.082000
     10 CAE        -0.4470   -2.6750    1.8370 c1        1 0SX     -0.050000
     11 CAM        -1.0060   -3.7750    2.5420 c1        1 0SX     -0.091000
     12 CL         -0.0210   -5.0890    3.1340 cl        1 0SX     -0.011000
     13 CAC        -2.3970   -3.8590    2.7210 c1        1 0SX     -0.092000
     14 CAD        -3.2320   -2.8600    2.2050 c1        1 0SX     -0.121000
     15 CAP        -2.6710   -1.7500    1.4940 c1        1 0SX      0.038000
     16 OAL        -3.2460   -0.6350    0.9410 o         1 0SX     -0.054000
     17 CAS        -2.2220    0.1650    0.4060 c1        1 0SX     -0.134000
     18 CAO        -2.2460    1.5210   -0.2720 c1        1 0SX      0.364000
     19 OAA        -3.3240    2.1160   -0.4270 o         1 0SX     -0.326000
     20 NAK        -1.0470    2.1310   -0.6600 n2        1 0SX     -0.297000
     21 H1          1.1210    2.6520   -2.8980 hc        1 0SX      0.103000
     22 H2          1.0450    0.9840   -2.6510 hc        1 0SX      0.103000
     23 H3          2.9100    1.1520   -3.3540 hc        1 0SX      0.095500
     24 H4          3.1280    2.6250   -2.8360 hc        1 0SX      0.095500
     25 H5          3.6370    0.2870   -1.5050 h1        1 0SX      0.090000
     26 H6          4.1580    1.7530   -1.1400 h1        1 0SX      0.090000
     27 H7          2.6790    1.7320    0.4600 hn        1 0SX      0.173000
     28 H9          1.2780    3.0060   -0.4400 h1        1 0SX      0.124000
     29 H10         0.5530   -2.5850    1.7560 ha        1 0SX      0.166000
     30 H11        -2.7960   -4.6380    3.2210 ha        1 0SX      0.154000
     31 H12        -4.2120   -2.9220    2.3320 ha        1 0SX      0.162000
     32 H13        -1.0680    2.8850   -1.1540 hn        1 0SX      0.267000
@<TRIPOS>BOND
     1    1    2 1   
     2    1    5 1   
     3    1   21 1   
     4    1   22 1   
     5    2    3 1   
     6    2   23 1   
     7    2   24 1   
     8    3    4 1   
     9    3   25 1   
    10    3   26 1   
    11    4    5 1   
    12    4   27 1   
    13    5    6 1   
    14    5   28 1   
    15    6    7 1   
    16    6   20 1   
    17    8    9 1   
    18    8   17 1   
    19    9   10 1   
    20   10   29 1   
    21   11   12 1   
    22   11   13 1   
    23   13   30 1   
    24   14   15 1   
    25   14   31 1   
    26   16   17 1   
    27   18   19 1   
    28   20   32 1   
@<TRIPOS>SUBSTRUCTURE
     1 0SX         1 TEMP              0 ****  ****    0 ROOT
