@<TRIPOS>MOLECULE
0SX
   32    35     1     0     0
SMALL
bcc


@<TRIPOS>ATOM
      1 CAH         1.2270   -0.7000    1.4750 c3        1 0SX     -0.093400
      2 CAF         1.6960    0.7110    1.8090 c3        1 0SX     -0.104400
      3 CAG         0.5560    1.6490    1.3800 c3        1 0SX      0.149800
      4 NAJ        -0.4590    0.8860    0.6630 n3        1 0SX     -0.826200
      5 CAT        -0.1150   -0.5350    0.7200 c3        1 0SX      0.130200
      6 CAN        -1.1980   -1.3670    1.4400 cc        1 0SX      0.490900
      7 NAI        -1.4370   -2.5940    0.9640 nd        1 0SX     -0.601300
      8 CAR        -2.3800   -3.3220    1.6550 cd        1 0SX      0.176400
      9 CAQ        -2.9020   -4.6650    1.4450 ca        1 0SX     -0.093800
     10 CAE        -2.6700   -5.6790    0.5240 ca        1 0SX     -0.050000
     11 CAM        -3.4000   -6.8620    0.6660 ca        1 0SX     -0.012600
     12 CL         -3.1460   -8.1300   -0.4400 cl        1 0SX     -0.089400
     13 CAC        -4.3420   -7.0410    1.6960 ca        1 0SX     -0.092000
     14 CAD        -4.5900   -6.0370    2.6290 ca        1 0SX     -0.121000
     15 CAP        -3.8630   -4.8580    2.4890 ca        1 0SX      0.083100
     16 OAL        -3.9660   -3.7360    3.3200 os        1 0SX     -0.143200
     17 CAS        -3.0520   -2.8220    2.7870 cc        1 0SX     -0.109100
     18 CAO        -2.8050   -1.4900    3.3050 c         1 0SX      0.725700
     19 OAA        -3.3350   -0.9370    4.2800 o         1 0SX     -0.601500
     20 NAK        -1.8180   -0.8060    2.5550 n         1 0SX     -0.457400
     21 H1          1.9630   -1.2290    0.8230 hc        1 0SX      0.063700
     22 H2          1.0970   -1.3090    2.4020 hc        1 0SX      0.063700
     23 H3          1.9040    0.8200    2.9010 hc        1 0SX      0.056200
     24 H4          2.6350    0.9590    1.2570 hc        1 0SX      0.056200
     25 H5          0.9500    2.4960    0.7580 h1        1 0SX      0.050700
     26 H6          0.0590    2.0940    2.2870 h1        1 0SX      0.050700
     27 H7         -0.5550    1.1900   -0.2850 hn        1 0SX      0.377800
     28 H9         -0.0150   -0.9580   -0.3230 h1        1 0SX      0.084700
     29 H10        -1.9350   -5.5480   -0.2850 ha        1 0SX      0.166000
     30 H11        -4.8940   -7.9920    1.7680 ha        1 0SX      0.154000
     31 H12        -5.3220   -6.1650    3.4370 ha        1 0SX      0.162000
     32 H13        -1.6190    0.1400    2.8070 hn        1 0SX      0.353500
@<TRIPOS>BOND
     1    1    2 1   
     2    1    5 1   
     3    1   21 1   
     4    1   22 1   
     5    2    3 1   
     6    2   23 1   
     7    2   24 1   
     8    3    4 1   
     9    3   25 1   
    10    3   26 1   
    11    4    5 1   
    12    4   27 1   
    13    5    6 1   
    14    5   28 1   
    15    6    7 2   
    16    6   20 1   
    17    7    8 1   
    18    8    9 1   
    19    8   17 2   
    20    9   10 ar  
    21    9   15 ar  
    22   10   11 ar  
    23   10   29 1   
    24   11   12 1   
    25   11   13 ar  
    26   13   14 ar  
    27   13   30 1   
    28   14   15 ar  
    29   14   31 1   
    30   15   16 1   
    31   16   17 1   
    32   17   18 1   
    33   18   19 2   
    34   18   20 1   
    35   20   32 1   
@<TRIPOS>SUBSTRUCTURE
     1 0SX         1 TEMP              0 ****  ****    0 ROOT
