@<TRIPOS>MOLECULE
0SX
   32    35     1     0     0
SMALL
bcc


@<TRIPOS>ATOM
      1 CAH         3.4020   -2.2920    0.0280 c3        1 0SX     -0.093400
      2 CAF         4.8010   -2.3140    0.6320 c3        1 0SX     -0.104400
      3 CAG         5.3690   -0.8990    0.4370 c3        1 0SX      0.149800
      4 NAJ         4.4590   -0.1190   -0.3940 n3        1 0SX     -0.826200
      5 CAT         3.2490   -0.9040   -0.6400 c3        1 0SX      0.130200
      6 CAN         1.9860   -0.2160   -0.0770 cc        1 0SX      0.490900
      7 NAI         0.8610   -0.3360   -0.7890 nd        1 0SX     -0.601300
      8 CAR        -0.2530    0.2560   -0.2370 cd        1 0SX      0.176400
      9 CAQ        -1.6290    0.3410   -0.7050 ca        1 0SX     -0.093800
     10 CAE        -2.3190   -0.1130   -1.8230 ca        1 0SX     -0.050000
     11 CAM        -3.6820    0.1860   -1.9070 ca        1 0SX     -0.012600
     12 CL         -4.5640   -0.3520   -3.2590 cl        1 0SX     -0.089400
     13 CAC        -4.3510    0.9190   -0.9100 ca        1 0SX     -0.092000
     14 CAD        -3.6780    1.3830    0.2170 ca        1 0SX     -0.121000
     15 CAP        -2.3210    1.0870    0.3030 ca        1 0SX      0.083100
     16 OAL        -1.4700    1.4610    1.3510 os        1 0SX     -0.143200
     17 CAS        -0.2240    0.9410    0.9930 cc        1 0SX     -0.109100
     18 CAO         0.9930    1.0830    1.7680 c         1 0SX      0.725700
     19 OAA         1.1490    1.6650    2.8520 o         1 0SX     -0.601500
     20 NAK         2.0930    0.4410    1.1480 n         1 0SX     -0.457400
     21 H1          3.2790   -3.0940   -0.7410 hc        1 0SX      0.063700
     22 H2          2.6230   -2.4520    0.8120 hc        1 0SX      0.063700
     23 H3          4.7680   -2.5770    1.7170 hc        1 0SX      0.056200
     24 H4          5.4450   -3.0690    0.1180 hc        1 0SX      0.056200
     25 H5          5.4470   -0.3740    1.4300 h1        1 0SX      0.050700
     26 H6          6.3990   -0.9420   -0.0070 h1        1 0SX      0.050700
     27 H7          4.8840    0.1570   -1.2560 hn        1 0SX      0.377800
     28 H9          3.0840   -1.0350   -1.7500 h1        1 0SX      0.084700
     29 H10        -1.8040   -0.6860   -2.6080 ha        1 0SX      0.166000
     30 H11        -5.4270    1.1310   -1.0210 ha        1 0SX      0.154000
     31 H12        -4.1880    1.9560    1.0020 ha        1 0SX      0.162000
     32 H13         2.9870    0.5300    1.5840 hn        1 0SX      0.353500
@<TRIPOS>BOND
     1    1    2 1   
     2    1    5 1   
     3    1   21 1   
     4    1   22 1   
     5    2    3 1   
     6    2   23 1   
     7    2   24 1   
     8    3    4 1   
     9    3   25 1   
    10    3   26 1   
    11    4    5 1   
    12    4   27 1   
    13    5    6 1   
    14    5   28 1   
    15    6    7 2   
    16    6   20 1   
    17    7    8 1   
    18    8    9 1   
    19    8   17 2   
    20    9   10 ar  
    21    9   15 ar  
    22   10   11 ar  
    23   10   29 1   
    24   11   12 1   
    25   11   13 ar  
    26   13   14 ar  
    27   13   30 1   
    28   14   15 ar  
    29   14   31 1   
    30   15   16 1   
    31   16   17 1   
    32   17   18 1   
    33   18   19 2   
    34   18   20 1   
    35   20   32 1   
@<TRIPOS>SUBSTRUCTURE
     1 0SX         1 TEMP              0 ****  ****    0 ROOT
