@<TRIPOS>MOLECULE
0SY
   27    29     1     0     0
SMALL
bcc


@<TRIPOS>ATOM
      1 CAF        -0.0040   -0.1500    0.0460 cc        1 0SY     -0.085000
      2 CAO         1.4190   -0.0610    0.0340 cc        1 0SY     -0.217600
      3 CAL         2.3930   -0.1500    1.1180 c         1 0SY      0.741100
      4 OAA         2.1140   -0.4250    2.3010 o         1 0SY     -0.637500
      5 NAJ         3.7250    0.0470    0.7520 ns        1 0SY     -0.578900
      6 CAG         4.0980    0.6510   -0.4970 c3        1 0SY      0.108000
      7 CAH         3.2420    0.2500   -1.7100 c3        1 0SY     -0.028100
      8 CAP         1.8250    0.1380   -1.3090 cd        1 0SY     -0.062600
      9 NAK         0.7000    0.1640   -2.1070 na        1 0SY     -0.147100
     10 CAN        -0.4350   -0.0070   -1.2910 cd        1 0SY     -0.105300
     11 CAM        -1.7910   -0.0240   -1.7960 ca        1 0SY      0.036000
     12 CAD        -2.0880   -0.3020   -3.1400 ca        1 0SY     -0.247800
     13 CAB        -3.4320   -0.3040   -3.5490 ca        1 0SY      0.400700
     14 NAI        -4.4660   -0.0550   -2.7230 nb        1 0SY     -0.665000
     15 CAC        -4.1710    0.2070   -1.4340 ca        1 0SY      0.400700
     16 CAE        -2.8620    0.2370   -0.9240 ca        1 0SY     -0.247800
     17 H1         -0.6300   -0.3110    0.9200 ha        1 0SY      0.173000
     18 H2          4.3990    0.0760    1.4820 hn        1 0SY      0.319500
     19 H3          4.0590    1.7780   -0.4040 h1        1 0SY      0.039700
     20 H4          3.5900   -0.7400   -2.1120 hc        1 0SY      0.064200
     21 H5          0.6790    0.3040   -3.0830 hn        1 0SY      0.300700
     22 H6         -1.3020   -0.5330   -3.8700 ha        1 0SY      0.142500
     23 H7         -3.6990   -0.5200   -4.5990 h4        1 0SY      0.023600
     24 H8         -5.0350    0.4060   -0.7750 h4        1 0SY      0.023600
     25 H9         -2.6820    0.4620    0.1350 ha        1 0SY      0.142500
     26 H10         5.1670    0.3640   -0.7150 h1        1 0SY      0.039700
     27 H11         3.3880    1.0180   -2.5150 hc        1 0SY      0.064200
@<TRIPOS>BOND
     1    1    2 1   
     2    1   10 2   
     3    1   17 1   
     4    2    3 1   
     5    2    8 2   
     6    3    4 2   
     7    3    5 1   
     8    5    6 1   
     9    5   18 1   
    10    6    7 1   
    11    6   19 1   
    12    6   26 1   
    13    7    8 1   
    14    7   20 1   
    15    7   27 1   
    16    8    9 1   
    17    9   10 1   
    18    9   21 1   
    19   10   11 1   
    20   11   12 ar  
    21   11   16 ar  
    22   12   13 ar  
    23   12   22 1   
    24   13   14 ar  
    25   13   23 1   
    26   14   15 ar  
    27   15   16 ar  
    28   15   24 1   
    29   16   25 1   
@<TRIPOS>SUBSTRUCTURE
     1 0SY         1 TEMP              0 ****  ****    0 ROOT
