@<TRIPOS>MOLECULE
0SY
   27    22     1     0     0
SMALL
bcc


@<TRIPOS>ATOM
      1 CAF        -0.3030    0.1160    1.1860 c1        1 0SY     -0.085000
      2 CAO         1.0660   -0.0370    1.1800 c1        1 0SY     -0.133900
      3 CAL         2.1690    0.0540    2.2690 c1        1 0SY      0.611500
      4 OAA         1.8840    0.3470    3.3870 o         1 0SY     -0.595500
      5 NAJ         3.4660    0.1440    1.8430 n3        1 0SY     -0.418400
      6 CAG         3.8220   -0.5640    0.6960 c3        1 0SY      0.051300
      7 CAH         3.0210   -0.3490   -0.4510 c3        1 0SY     -0.031200
      8 CAP         1.4970   -0.1550   -0.1930 ce        1 0SY      0.042300
      9 NAK         0.3760   -0.0720   -0.9960 ne        1 0SY     -0.507000
     10 CAN        -0.7530    0.0970   -0.1550 c1        1 0SY      0.139400
     11 CAM        -2.1840    0.1810   -0.6000 c1        1 0SY      0.036000
     12 CAD        -2.6710    1.3490   -1.1030 c1        1 0SY     -0.071500
     13 CAB        -3.9720    1.4140   -1.5790 c1        1 0SY     -0.071500
     14 NAI        -4.7710    0.3060   -1.5460 n1        1 0SY     -0.464800
     15 CAC        -4.2900   -0.8710   -1.0420 c1        1 0SY      0.318300
     16 CAE        -2.9910   -0.9410   -0.5660 c1        1 0SY     -0.113500
     17 H1         -0.8590    0.2190    1.9690 DU        1 0SY      0.212000
     18 H2          4.1220    0.4600    2.4140 hn        1 0SY      0.282700
     19 H3          4.7250   -0.2890    0.4610 h1        1 0SY      0.039700
     20 H4          3.1200   -1.1580   -1.0330 hc        1 0SY      0.064200
     21 H5          0.3640   -0.1170   -1.8940 DU        1 0SY      0.212000
     22 H6         -2.1180    2.1230   -1.1280 ha        1 0SY      0.088500
     23 H7         -4.3090    2.2310   -1.9290 ha        1 0SY      0.088500
     24 H8         -4.8780   -1.6830   -1.0180 ha        1 0SY      0.104500
     25 H9         -2.6470   -1.7800   -0.2060 ha        1 0SY      0.094500
     26 H10         3.7500   -1.5480    0.9260 h1        1 0SY      0.039700
     27 H11         3.3650    0.5230   -0.8930 hc        1 0SY      0.064200
@<TRIPOS>BOND
     1    1    2 2   
     2    1   10 2   
     3    2    8 2   
     4    3    4 2   
     5    3    5 2   
     6    5    6 1   
     7    5   18 1   
     8    6    7 1   
     9    6   19 1   
    10    6   26 1   
    11    7    8 1   
    12    7   20 1   
    13    7   27 1   
    14    8    9 1   
    15    9   10 2   
    16   11   16 3   
    17   12   13 3   
    18   12   22 1   
    19   13   23 1   
    20   14   15 3   
    21   15   24 1   
    22   16   25 1   
@<TRIPOS>SUBSTRUCTURE
     1 0SY         1 TEMP              0 ****  ****    0 ROOT
