@<TRIPOS>MOLECULE
0SY
   27    29     1     0     0
SMALL
bcc


@<TRIPOS>ATOM
      1 CAF         0.3000    1.0000    0.1380 cc        1 0SY     -0.085000
      2 CAO         1.6120    0.4420    0.1170 cc        1 0SY     -0.217600
      3 CAL         2.9250    1.0770    0.2010 c         1 0SY      0.741100
      4 OAA         3.1120    2.2920    0.4040 o         1 0SY     -0.637500
      5 NAJ         4.0200    0.2210    0.0860 n         1 0SY     -0.578900
      6 CAG         3.9020   -1.1120   -0.4380 c3        1 0SY      0.108000
      7 CAH         2.6360   -1.8810   -0.0210 c3        1 0SY     -0.028100
      8 CAP         1.4790   -0.9640    0.0040 cd        1 0SY     -0.062600
      9 NAK         0.1350   -1.2740   -0.0370 na        1 0SY     -0.147100
     10 CAN        -0.6060   -0.0780    0.0380 cd        1 0SY     -0.105300
     11 CAM        -2.0520   -0.0270    0.0150 ca        1 0SY      0.036000
     12 CAD        -2.8470   -1.1370    0.3450 ca        1 0SY     -0.247800
     13 CAB        -4.2450   -1.0020    0.3010 ca        1 0SY      0.400700
     14 NAI        -4.8770    0.1380   -0.0380 nb        1 0SY     -0.665000
     15 CAC        -4.1040    1.1970   -0.3490 ca        1 0SY      0.400700
     16 CAE        -2.7000    1.1680   -0.3410 ca        1 0SY     -0.247800
     17 H1          0.0530    2.0550    0.2250 ha        1 0SY      0.173000
     18 H2          4.9230    0.6350    0.0540 hn        1 0SY      0.319500
     19 H3          3.9310   -1.0830   -1.5680 h1        1 0SY      0.039700
     20 H4          2.4830   -2.7270   -0.7400 hc        1 0SY      0.064200
     21 H5         -0.2540   -2.1750   -0.1310 hn        1 0SY      0.300700
     22 H6         -2.4060   -2.0940    0.6500 ha        1 0SY      0.142500
     23 H7         -4.8990   -1.8550    0.5560 h4        1 0SY      0.023600
     24 H8         -4.6450    2.1220   -0.6220 h4        1 0SY      0.023600
     25 H9         -2.1220    2.0620   -0.6080 ha        1 0SY      0.142500
     26 H10         4.7980   -1.7020   -0.0900 h1        1 0SY      0.039700
     27 H11         2.7790   -2.3220    1.0040 hc        1 0SY      0.064200
@<TRIPOS>BOND
     1    1    2 1   
     2    1   10 2   
     3    1   17 1   
     4    2    3 1   
     5    2    8 2   
     6    3    4 2   
     7    3    5 1   
     8    5    6 1   
     9    5   18 1   
    10    6    7 1   
    11    6   19 1   
    12    6   26 1   
    13    7    8 1   
    14    7   20 1   
    15    7   27 1   
    16    8    9 1   
    17    9   10 1   
    18    9   21 1   
    19   10   11 1   
    20   11   12 ar  
    21   11   16 ar  
    22   12   13 ar  
    23   12   22 1   
    24   13   14 ar  
    25   13   23 1   
    26   14   15 ar  
    27   15   16 ar  
    28   15   24 1   
    29   16   25 1   
@<TRIPOS>SUBSTRUCTURE
     1 0SY         1 TEMP              0 ****  ****    0 ROOT
