@<TRIPOS>MOLECULE
0SY
   27    29     1     0     0
SMALL
bcc


@<TRIPOS>ATOM
      1 CAF        -0.0050   -0.1540    0.0450 cc        1 0SY     -0.085000
      2 CAO         1.4180   -0.0640    0.0340 cc        1 0SY     -0.217600
      3 CAL         2.3920   -0.1560    1.1190 c         1 0SY      0.741100
      4 OAA         2.1120   -0.4350    2.3000 o         1 0SY     -0.637500
      5 NAJ         3.7240    0.0440    0.7540 n         1 0SY     -0.578900
      6 CAG         4.0970    0.6510   -0.4930 c3        1 0SY      0.108000
      7 CAH         3.2420    0.2540   -1.7080 c3        1 0SY     -0.028100
      8 CAP         1.8250    0.1400   -1.3080 cd        1 0SY     -0.062600
      9 NAK         0.7000    0.1670   -2.1060 na        1 0SY     -0.147100
     10 CAN        -0.4350   -0.0070   -1.2910 cd        1 0SY     -0.105300
     11 CAM        -1.7910   -0.0230   -1.7980 ca        1 0SY      0.036000
     12 CAD        -2.0860   -0.2980   -3.1430 ca        1 0SY     -0.247800
     13 CAB        -3.4310   -0.2990   -3.5520 ca        1 0SY      0.400700
     14 NAI        -4.4650   -0.0540   -2.7260 nb        1 0SY     -0.665000
     15 CAC        -4.1710    0.2040   -1.4360 ca        1 0SY      0.400700
     16 CAE        -2.8630    0.2340   -0.9260 ca        1 0SY     -0.247800
     17 H1         -0.6310   -0.3180    0.9180 ha        1 0SY      0.173000
     18 H2          4.3980    0.0710    1.4840 hn        1 0SY      0.319500
     19 H3          5.1660    0.3660   -0.7110 h1        1 0SY      0.039700
     20 H4          3.3880    1.0250   -2.5100 hc        1 0SY      0.064200
     21 H5          0.6800    0.3110   -3.0820 hn        1 0SY      0.300700
     22 H6         -1.3000   -0.5260   -3.8730 ha        1 0SY      0.142500
     23 H7         -3.6970   -0.5120   -4.6030 h4        1 0SY      0.023600
     24 H8         -5.0360    0.4000   -0.7770 h4        1 0SY      0.023600
     25 H9         -2.6830    0.4550    0.1350 ha        1 0SY      0.142500
     26 H10         4.0580    1.7780   -0.3960 h1        1 0SY      0.039700
     27 H11         3.5910   -0.7340   -2.1140 hc        1 0SY      0.064200
@<TRIPOS>BOND
     1    1    2 1   
     2    1   10 2   
     3    1   17 1   
     4    2    3 1   
     5    2    8 2   
     6    3    4 2   
     7    3    5 1   
     8    5    6 1   
     9    5   18 1   
    10    6    7 1   
    11    6   19 1   
    12    6   26 1   
    13    7    8 1   
    14    7   20 1   
    15    7   27 1   
    16    8    9 1   
    17    9   10 1   
    18    9   21 1   
    19   10   11 1   
    20   11   12 ar  
    21   11   16 ar  
    22   12   13 ar  
    23   12   22 1   
    24   13   14 ar  
    25   13   23 1   
    26   14   15 ar  
    27   15   16 ar  
    28   15   24 1   
    29   16   25 1   
@<TRIPOS>SUBSTRUCTURE
     1 0SY         1 TEMP              0 ****  ****    0 ROOT
