@<TRIPOS>MOLECULE
0SZ
   36    38     1     0     0
SMALL
bcc


@<TRIPOS>ATOM
      1 OAA         0.5130   -0.9880    0.1420 o         1 0SZ     -0.823300
      2 CAP         1.7680   -0.9980    0.0070 c         1 0SZ      0.912200
      3 OAD         2.5850   -1.4340    0.8650 o         1 0SZ     -0.823300
      4 CAQ         2.3430   -0.4550   -1.2970 ca        1 0SZ     -0.157600
      5 CAL         3.7250   -0.3440   -1.4600 ca        1 0SZ      0.011000
      6 CAH         1.5020   -0.0830   -2.3460 ca        1 0SZ     -0.038000
      7 CAG         2.0430    0.3820   -3.5500 ca        1 0SZ     -0.188000
      8 CAK         3.4200    0.4670   -3.7060 ca        1 0SZ     -0.041000
      9 CAT         4.2890    0.1050   -2.6620 ca        1 0SZ     -0.435500
     10 SAV         5.9330    0.2230   -2.8560 sy        1 0SZ      1.520200
     11 OAB         6.2310    0.6560   -4.1780 o         1 0SZ     -0.672300
     12 OAC         6.5060    1.0220   -1.8390 o         1 0SZ     -0.672300
     13 NAU         6.4570   -1.3230   -2.6770 n3        1 0SZ     -0.806500
     14 CAN         6.6820   -2.2010   -3.7900 c3        1 0SZ      0.230800
     15 CAM         8.0830   -2.8220   -3.8030 c3        1 0SZ     -0.049100
     16 CAR         8.4860   -3.3210   -2.4620 ca        1 0SZ     -0.067300
     17 CAI         9.5380   -4.2370   -2.3440 ca        1 0SZ     -0.135000
     18 CAE         9.9350   -4.6960   -1.0910 ca        1 0SZ     -0.140000
     19 CAF         9.2830   -4.2440    0.0570 ca        1 0SZ     -0.134000
     20 CAJ         8.2360   -3.3330   -0.0510 ca        1 0SZ     -0.121000
     21 CAS         7.8330   -2.8660   -1.3070 ca        1 0SZ     -0.070300
     22 CAO         6.6810   -1.9060   -1.3800 c3        1 0SZ      0.257100
     23 H2          4.3660   -0.6270   -0.6040 ha        1 0SZ      0.159000
     24 H3          0.4120   -0.1660   -2.2000 ha        1 0SZ      0.158000
     25 H4          1.3790    0.6770   -4.3730 ha        1 0SZ      0.117000
     26 H5          3.8490    0.8240   -4.6570 ha        1 0SZ      0.135000
     27 H6          5.9240   -3.0380   -3.7650 h1        1 0SZ      0.053200
     28 H7          6.5350   -1.6230   -4.7480 h1        1 0SZ      0.053200
     29 H8          8.8320   -2.0590   -4.1460 hc        1 0SZ      0.052200
     30 H9          8.0900   -3.6610   -4.5480 hc        1 0SZ      0.052200
     31 H10        10.0500   -4.5930   -3.2490 ha        1 0SZ      0.122000
     32 H11        10.7620   -5.4160   -1.0060 ha        1 0SZ      0.120000
     33 H12         9.5950   -4.6070    1.0460 ha        1 0SZ      0.125000
     34 H13         7.7160   -2.9760    0.8520 ha        1 0SZ      0.143000
     35 H14         5.7510   -2.4660   -1.0530 h1        1 0SZ      0.075700
     36 H15         6.8600   -1.0690   -0.6390 h1        1 0SZ      0.075700
@<TRIPOS>BOND
     1    1    2 1   
     2    2    3 1   
     3    2    4 1   
     4    4    5 ar  
     5    4    6 ar  
     6    5    9 ar  
     7    5   23 1   
     8    6    7 ar  
     9    6   24 1   
    10    7    8 ar  
    11    7   25 1   
    12    8    9 ar  
    13    8   26 1   
    14    9   10 1   
    15   10   11 2   
    16   10   12 2   
    17   10   13 1   
    18   13   14 1   
    19   13   22 1   
    20   14   15 1   
    21   14   27 1   
    22   14   28 1   
    23   15   16 1   
    24   15   29 1   
    25   15   30 1   
    26   16   17 ar  
    27   16   21 ar  
    28   17   18 ar  
    29   17   31 1   
    30   18   19 ar  
    31   18   32 1   
    32   19   20 ar  
    33   19   33 1   
    34   20   21 ar  
    35   20   34 1   
    36   21   22 1   
    37   22   35 1   
    38   22   36 1   
@<TRIPOS>SUBSTRUCTURE
     1 0SZ         1 TEMP              0 ****  ****    0 ROOT
