@<TRIPOS>MOLECULE
0SZ
   36    38     1     0     0
SMALL
bcc


@<TRIPOS>ATOM
      1 OAA         0.5200   -0.9700    0.1540 o         1 0SZ     -0.823300
      2 CAP         1.7740   -0.9830    0.0160 c         1 0SZ      0.912200
      3 OAD         2.5930   -1.4180    0.8720 o         1 0SZ     -0.823300
      4 CAQ         2.3470   -0.4450   -1.2910 ca        1 0SZ     -0.157600
      5 CAL         3.7280   -0.3380   -1.4580 ca        1 0SZ      0.011000
      6 CAH         1.5040   -0.0730   -2.3390 ca        1 0SZ     -0.038000
      7 CAG         2.0430    0.3860   -3.5460 ca        1 0SZ     -0.188000
      8 CAK         3.4190    0.4670   -3.7060 ca        1 0SZ     -0.041000
      9 CAT         4.2900    0.1060   -2.6640 ca        1 0SZ     -0.435500
     10 SAV         5.9350    0.2190   -2.8620 sy        1 0SZ      1.520200
     11 OAB         6.2290    0.6460   -4.1880 o         1 0SZ     -0.672300
     12 OAC         6.5120    1.0200   -1.8510 o         1 0SZ     -0.672300
     13 NAU         6.4550   -1.3270   -2.6790 n3        1 0SZ     -0.806500
     14 CAN         6.6730   -2.2110   -3.7890 c3        1 0SZ      0.230800
     15 CAM         8.0720   -2.8360   -3.8060 c3        1 0SZ     -0.049100
     16 CAR         8.4820   -3.3280   -2.4650 ca        1 0SZ     -0.067300
     17 CAI         9.5330   -4.2450   -2.3470 ca        1 0SZ     -0.135000
     18 CAE         9.9350   -4.6990   -1.0940 ca        1 0SZ     -0.140000
     19 CAF         9.2900   -4.2400    0.0540 ca        1 0SZ     -0.134000
     20 CAJ         8.2430   -3.3280   -0.0520 ca        1 0SZ     -0.121000
     21 CAS         7.8350   -2.8670   -1.3090 ca        1 0SZ     -0.070300
     22 CAO         6.6840   -1.9050   -1.3810 c3        1 0SZ      0.257100
     23 H2          4.3710   -0.6210   -0.6040 ha        1 0SZ      0.159000
     24 H3          0.4140   -0.1530   -2.1900 ha        1 0SZ      0.158000
     25 H4          1.3770    0.6810   -4.3680 ha        1 0SZ      0.117000
     26 H5          3.8460    0.8200   -4.6600 ha        1 0SZ      0.135000
     27 H6          5.9130   -3.0460   -3.7560 h1        1 0SZ      0.053200
     28 H7          6.5230   -1.6370   -4.7490 h1        1 0SZ      0.053200
     29 H8          8.8220   -2.0750   -4.1570 hc        1 0SZ      0.052200
     30 H9          8.0730   -3.6780   -4.5470 hc        1 0SZ      0.052200
     31 H10        10.0390   -4.6070   -3.2540 ha        1 0SZ      0.122000
     32 H11        10.7610   -5.4200   -1.0100 ha        1 0SZ      0.120000
     33 H12         9.6060   -4.5990    1.0440 ha        1 0SZ      0.125000
     34 H13         7.7280   -2.9660    0.8510 ha        1 0SZ      0.142000
     35 H14         6.8670   -1.0650   -0.6440 h1        1 0SZ      0.075700
     36 H15         5.7550   -2.4620   -1.0470 h1        1 0SZ      0.075700
@<TRIPOS>BOND
     1    1    2 1   
     2    2    3 1   
     3    2    4 1   
     4    4    5 ar  
     5    4    6 ar  
     6    5    9 ar  
     7    5   23 1   
     8    6    7 ar  
     9    6   24 1   
    10    7    8 ar  
    11    7   25 1   
    12    8    9 ar  
    13    8   26 1   
    14    9   10 1   
    15   10   11 2   
    16   10   12 2   
    17   10   13 1   
    18   13   14 1   
    19   13   22 1   
    20   14   15 1   
    21   14   27 1   
    22   14   28 1   
    23   15   16 1   
    24   15   29 1   
    25   15   30 1   
    26   16   17 ar  
    27   16   21 ar  
    28   17   18 ar  
    29   17   31 1   
    30   18   19 ar  
    31   18   32 1   
    32   19   20 ar  
    33   19   33 1   
    34   20   21 ar  
    35   20   34 1   
    36   21   22 1   
    37   22   35 1   
    38   22   36 1   
@<TRIPOS>SUBSTRUCTURE
     1 0SZ         1 TEMP              0 ****  ****    0 ROOT
