@<TRIPOS>MOLECULE
0SZ
   36    38     1     0     0
SMALL
bcc


@<TRIPOS>ATOM
      1 OAA         0.5120   -0.9990    0.1440 o         1 0SZ     -0.823300
      2 CAP         1.7670   -1.0040    0.0080 c         1 0SZ      0.912200
      3 OAD         2.5870   -1.4330    0.8670 o         1 0SZ     -0.823300
      4 CAQ         2.3380   -0.4650   -1.2990 ca        1 0SZ     -0.157600
      5 CAL         3.7190   -0.3500   -1.4640 ca        1 0SZ      0.011000
      6 CAH         1.4950   -0.1010   -2.3490 ca        1 0SZ     -0.038000
      7 CAG         2.0330    0.3590   -3.5550 ca        1 0SZ     -0.188000
      8 CAK         3.4080    0.4480   -3.7140 ca        1 0SZ     -0.041000
      9 CAT         4.2800    0.0960   -2.6690 ca        1 0SZ     -0.435500
     10 SAV         5.9240    0.2180   -2.8650 sy        1 0SZ      1.520200
     11 OAB         6.2180    0.6450   -4.1910 o         1 0SZ     -0.672300
     12 OAC         6.4950    1.0250   -1.8540 o         1 0SZ     -0.672300
     13 NAU         6.4540   -1.3240   -2.6790 n3        1 0SZ     -0.806500
     14 CAN         6.6800   -2.2080   -3.7880 c3        1 0SZ      0.230800
     15 CAM         8.0830   -2.8240   -3.8010 c3        1 0SZ     -0.049100
     16 CAR         8.4920   -3.3120   -2.4580 ca        1 0SZ     -0.067300
     17 CAI         9.5480   -4.2230   -2.3370 ca        1 0SZ     -0.135000
     18 CAE         9.9500   -4.6740   -1.0820 ca        1 0SZ     -0.140000
     19 CAF         9.2990   -4.2170    0.0650 ca        1 0SZ     -0.134000
     20 CAJ         8.2480   -3.3110   -0.0450 ca        1 0SZ     -0.121000
     21 CAS         7.8400   -2.8540   -1.3040 ca        1 0SZ     -0.070300
     22 CAO         6.6830   -1.8990   -1.3790 c3        1 0SZ      0.257100
     23 H2          4.3620   -0.6270   -0.6080 ha        1 0SZ      0.159000
     24 H3          0.4050   -0.1880   -2.2010 ha        1 0SZ      0.158000
     25 H4          1.3660    0.6480   -4.3800 ha        1 0SZ      0.117000
     26 H5          3.8350    0.8020   -4.6680 ha        1 0SZ      0.135000
     27 H6          5.9250   -3.0480   -3.7560 h1        1 0SZ      0.053200
     28 H7          6.5290   -1.6360   -4.7490 h1        1 0SZ      0.053200
     29 H8          8.8290   -2.0590   -4.1500 hc        1 0SZ      0.052200
     30 H9          8.0910   -3.6670   -4.5410 hc        1 0SZ      0.052200
     31 H10        10.0590   -4.5830   -3.2410 ha        1 0SZ      0.122000
     32 H11        10.7800   -5.3890   -0.9950 ha        1 0SZ      0.120000
     33 H12         9.6140   -4.5730    1.0560 ha        1 0SZ      0.125000
     34 H13         7.7280   -2.9510    0.8560 ha        1 0SZ      0.142000
     35 H14         6.8600   -1.0570   -0.6430 h1        1 0SZ      0.075700
     36 H15         5.7570   -2.4610   -1.0470 h1        1 0SZ      0.075700
@<TRIPOS>BOND
     1    1    2 1   
     2    2    3 1   
     3    2    4 1   
     4    4    5 ar  
     5    4    6 ar  
     6    5    9 ar  
     7    5   23 1   
     8    6    7 ar  
     9    6   24 1   
    10    7    8 ar  
    11    7   25 1   
    12    8    9 ar  
    13    8   26 1   
    14    9   10 1   
    15   10   11 2   
    16   10   12 2   
    17   10   13 1   
    18   13   14 1   
    19   13   22 1   
    20   14   15 1   
    21   14   27 1   
    22   14   28 1   
    23   15   16 1   
    24   15   29 1   
    25   15   30 1   
    26   16   17 ar  
    27   16   21 ar  
    28   17   18 ar  
    29   17   31 1   
    30   18   19 ar  
    31   18   32 1   
    32   19   20 ar  
    33   19   33 1   
    34   20   21 ar  
    35   20   34 1   
    36   21   22 1   
    37   22   35 1   
    38   22   36 1   
@<TRIPOS>SUBSTRUCTURE
     1 0SZ         1 TEMP              0 ****  ****    0 ROOT
