@<TRIPOS>MOLECULE
0SZ
   36    31     1     0     0
SMALL
bcc


@<TRIPOS>ATOM
      1 OAA        -5.5980    3.0040    1.4620 o         1 0SZ     -0.558000
      2 CAP        -5.2230    1.8090    1.3370 c2        1 0SZ      0.361000
      3 OAD        -5.7350    0.9110    2.0560 o         1 0SZ     -0.558000
      4 CAQ        -4.1990    1.4440    0.2840 c2        1 0SZ     -0.137000
      5 CAL        -2.8500    1.6310    0.5370 c2        1 0SZ      0.011000
      6 CAH        -4.6150    0.9920   -0.9590 c1        1 0SZ     -0.038000
      7 CAG        -3.6820    0.7280   -1.9480 c1        1 0SZ     -0.121000
      8 CAK        -2.3310    0.9140   -1.6950 c1        1 0SZ     -0.121000
      9 CAT        -1.9150    1.3660   -0.4530 c1        1 0SZ     -0.880000
     10 SAV        -0.2060    1.7440   -0.1770 ss        1 0SZ      2.859000
     11 OAB         0.2810    2.6900   -1.1410 o         1 0SZ     -0.951500
     12 OAC        -0.0240    2.4740    1.0470 o         1 0SZ     -0.951500
     13 NAU         0.6890    0.3690   -0.1890 n2        1 0SZ     -0.826000
     14 CAN         0.9140   -0.3070   -1.3860 c3        1 0SZ     -0.006000
     15 CAM         2.2000   -0.9140   -1.5490 c3        1 0SZ     -0.135000
     16 CAR         2.8430   -1.5110   -0.2710 c2        1 0SZ     -0.060000
     17 CAI         4.1260   -2.0380   -0.2810 c2        1 0SZ     -0.135000
     18 CAE         4.7670   -2.3450    0.9280 c1        1 0SZ     -0.140000
     19 CAF         4.1040   -2.1160    2.1630 c1        1 0SZ     -0.121000
     20 CAJ         2.8060   -1.5830    2.1760 c1        1 0SZ     -0.121000
     21 CAS         2.1700   -1.2790    0.9820 c1        1 0SZ     -0.063000
     22 CAO         0.9300   -0.2990    0.9750 c2        1 0SZ      0.013000
     23 H2         -2.5570    1.9490    1.4130 ha        1 0SZ      0.159000
     24 H3         -5.5660    0.8610   -1.1380 ha        1 0SZ      0.158000
     25 H4         -3.9750    0.4100   -2.8240 ha        1 0SZ      0.129750
     26 H5         -1.6730    0.7280   -2.3920 ha        1 0SZ      0.129750
     27 H6          0.8010    0.3410   -2.1140 h1        1 0SZ      0.092500
     28 H7          0.2430   -1.0200   -1.4500 h1        1 0SZ      0.092500
     29 H8          2.8080   -0.2270   -1.8920 hc        1 0SZ      0.091500
     30 H9          2.1010   -1.6430   -2.1970 hc        1 0SZ      0.091500
     31 H10         4.5830   -2.1960   -1.1300 ha        1 0SZ      0.122000
     32 H11         5.6700   -2.7160    0.9210 ha        1 0SZ      0.120000
     33 H12         4.5680   -2.2860    3.0030 ha        1 0SZ      0.129750
     34 H13         2.3520   -1.4260    3.0240 ha        1 0SZ      0.129750
     35 H14         0.1300   -0.8210    1.1950 h4        1 0SZ      0.115000
     36 H15         1.0650    0.3650    1.6820 h4        1 0SZ      0.115000
@<TRIPOS>BOND
     1    1    2 1   
     2    2    3 1   
     3    2    4 1   
     4    4    5 1   
     5    4    6 1   
     6    5    9 1   
     7    5   23 1   
     8    6   24 1   
     9    7    8 1   
    10    7   25 1   
    11    8   26 1   
    12   10   11 1   
    13   10   12 1   
    14   13   14 1   
    15   13   22 1   
    16   14   15 1   
    17   14   27 1   
    18   14   28 1   
    19   15   16 1   
    20   15   29 1   
    21   15   30 1   
    22   16   17 1   
    23   16   21 1   
    24   17   18 1   
    25   17   31 1   
    26   18   32 1   
    27   19   20 1   
    28   19   33 1   
    29   20   34 1   
    30   22   35 1   
    31   22   36 1   
@<TRIPOS>SUBSTRUCTURE
     1 0SZ         1 TEMP              0 ****  ****    0 ROOT
