@<TRIPOS>MOLECULE
0SZ
   36    38     1     0     0
SMALL
bcc


@<TRIPOS>ATOM
      1 OAA         4.7020    2.2690   -1.1760 o         1 0SZ     -0.823300
      2 CAP         3.5690    2.0150   -0.6820 c         1 0SZ      0.912200
      3 OAD         2.7180    2.8820   -0.3400 o         1 0SZ     -0.823300
      4 CAQ         3.1920    0.5490   -0.4980 ca        1 0SZ     -0.157600
      5 CAL         1.9960    0.2090    0.1380 ca        1 0SZ      0.011000
      6 CAH         4.0200   -0.4660   -0.9770 ca        1 0SZ     -0.038000
      7 CAG         3.6450   -1.8060   -0.8320 ca        1 0SZ     -0.188000
      8 CAK         2.4440   -2.1290   -0.2180 ca        1 0SZ     -0.041000
      9 CAT         1.5950   -1.1260    0.2810 ca        1 0SZ     -0.435500
     10 SAV         0.1660   -1.5250    1.0260 sy        1 0SZ      1.520200
     11 OAB        -0.0160   -2.9360    0.9910 o         1 0SZ     -0.672300
     12 OAC         0.0970   -0.9620    2.3220 o         1 0SZ     -0.672300
     13 NAU        -0.9760   -0.8230    0.0790 n3        1 0SZ     -0.806500
     14 CAN        -1.6600   -1.5290   -0.9670 c3        1 0SZ      0.230800
     15 CAM        -3.1870   -1.4540   -0.8570 c3        1 0SZ     -0.049100
     16 CAR        -3.6590   -0.0770   -0.5550 ca        1 0SZ     -0.067300
     17 CAI        -4.9960    0.2690   -0.7830 ca        1 0SZ     -0.135000
     18 CAE        -5.4530    1.5510   -0.4870 ca        1 0SZ     -0.140000
     19 CAF        -4.5750    2.4990    0.0400 ca        1 0SZ     -0.134000
     20 CAJ        -3.2440    2.1640    0.2710 ca        1 0SZ     -0.121000
     21 CAS        -2.7800    0.8770   -0.0230 ca        1 0SZ     -0.070300
     22 CAO        -1.3300    0.5660    0.2150 c3        1 0SZ      0.257100
     23 H2          1.3690    1.0340    0.5250 ha        1 0SZ      0.159000
     24 H3          4.9660   -0.1830   -1.4680 ha        1 0SZ      0.158000
     25 H4          4.3010   -2.6040   -1.2080 ha        1 0SZ      0.117000
     26 H5          2.1420   -3.1850   -0.1110 ha        1 0SZ      0.135000
     27 H6         -1.3570   -1.1000   -1.9670 h1        1 0SZ      0.053200
     28 H7         -1.3490   -2.6140   -0.9410 h1        1 0SZ      0.053200
     29 H8         -3.6280   -1.8140   -1.8230 hc        1 0SZ      0.052200
     30 H9         -3.5410   -2.1440   -0.0440 hc        1 0SZ      0.052200
     31 H10        -5.6860   -0.4790   -1.2010 ha        1 0SZ      0.122000
     32 H11        -6.5040    1.8150   -0.6700 ha        1 0SZ      0.120000
     33 H12        -4.9340    3.5120    0.2730 ha        1 0SZ      0.125000
     34 H13        -2.5470    2.9100    0.6840 ha        1 0SZ      0.142000
     35 H14        -1.0530    0.9040    1.2600 h1        1 0SZ      0.075700
     36 H15        -0.7250    1.1830   -0.5200 h1        1 0SZ      0.075700
@<TRIPOS>BOND
     1    1    2 1   
     2    2    3 1   
     3    2    4 1   
     4    4    5 ar  
     5    4    6 ar  
     6    5    9 ar  
     7    5   23 1   
     8    6    7 ar  
     9    6   24 1   
    10    7    8 ar  
    11    7   25 1   
    12    8    9 ar  
    13    8   26 1   
    14    9   10 1   
    15   10   11 2   
    16   10   12 2   
    17   10   13 1   
    18   13   14 1   
    19   13   22 1   
    20   14   15 1   
    21   14   27 1   
    22   14   28 1   
    23   15   16 1   
    24   15   29 1   
    25   15   30 1   
    26   16   17 ar  
    27   16   21 ar  
    28   17   18 ar  
    29   17   31 1   
    30   18   19 ar  
    31   18   32 1   
    32   19   20 ar  
    33   19   33 1   
    34   20   21 ar  
    35   20   34 1   
    36   21   22 1   
    37   22   35 1   
    38   22   36 1   
@<TRIPOS>SUBSTRUCTURE
     1 0SZ         1 TEMP              0 ****  ****    0 ROOT
