@<TRIPOS>MOLECULE
0T0
   41    34     1     0     0
SMALL
bcc


@<TRIPOS>ATOM
      1 CAN         2.3250   -1.1060   -0.8890 c3        1 0T0     -0.016000
      2 CAM         3.0770   -0.2800    0.0350 c3        1 0T0     -0.149000
      3 CAT         3.4170    1.1410   -0.4460 c1        1 0T0     -0.054000
      4 CAJ         4.1740    2.0310    0.3090 c1        1 0T0     -0.118500
      5 CAE         4.3580    3.3470   -0.1380 c1        1 0T0     -0.118500
      6 CAF         3.7730    3.7680   -1.3550 c1        1 0T0     -0.118500
      7 CAK         3.0070    2.8690   -2.1190 c1        1 0T0     -0.118500
      8 CAU         2.8240    1.5790   -1.6870 c1        1 0T0     -0.095000
      9 CAO         1.7620    0.6200   -2.3730 c3        1 0T0      0.028000
     10 NAV         1.3750   -0.4670   -1.6610 n3        1 0T0     -0.825000
     11 SAW        -0.0880   -1.2300   -2.0100 s4        1 0T0      2.058800
     12 OAC        -0.4870   -0.9960   -3.4080 o         1 0T0     -0.535900
     13 OAD         0.0590   -2.7250   -1.9900 o         1 0T0     -0.535900
     14 CAS        -1.3830   -0.6940   -0.8560 c1        1 0T0     -0.485000
     15 CAL        -1.8990   -1.5910    0.0610 c1        1 0T0      0.014000
     16 CAI        -1.8350    0.6200   -0.8680 c1        1 0T0      0.014000
     17 CAG        -2.8350    1.0440    0.0720 c1        1 0T0     -0.118500
     18 CAH        -3.3390    0.1660    0.9690 c1        1 0T0     -0.118500
     19 CAR        -2.8850   -1.1680    0.9860 c1        1 0T0     -0.485000
     20 CAQ        -3.4710   -2.1770    2.0280 c1        1 0T0      0.345000
     21 OAB        -3.2360   -3.3510    1.9190 o         1 0T0     -0.366000
     22 NAP        -4.4650   -1.7350    2.9650 n2        1 0T0     -0.378000
     23 CAA        -4.7770   -2.5380    4.0810 c3        1 0T0     -0.078000
     24 H1          2.9490   -1.5120   -1.4820 h1        1 0T0      0.102000
     25 H2          1.8440   -1.8090   -0.3450 h1        1 0T0      0.102000
     26 H3          2.5590   -0.1940    0.8270 hc        1 0T0      0.106500
     27 H4          3.9050   -0.7320    0.2190 hc        1 0T0      0.106500
     28 H5          4.5710    1.7450    1.1410 ha        1 0T0      0.137000
     29 H6          4.8630    3.9400    0.3610 ha        1 0T0      0.137000
     30 H7          3.9090    4.7430   -1.6860 ha        1 0T0      0.137000
     31 H8          2.6070    3.1580   -2.9450 ha        1 0T0      0.137000
     32 H9          0.9720    1.1420   -2.5700 h1        1 0T0      0.103500
     33 H10         2.1240    0.3220   -3.1850 h1        1 0T0      0.103500
     34 H11        -1.6020   -2.4590    0.0710 ha        1 0T0      0.162500
     35 H12        -1.4620    1.2740   -1.5300 ha        1 0T0      0.162500
     36 H13        -3.1500    1.9600    0.0650 ha        1 0T0      0.137000
     37 H14        -4.0060    0.4530    1.5930 ha        1 0T0      0.137000
     38 H15        -4.9390   -1.0780    2.7840 hn        1 0T0      0.225000
     39 H16        -5.5120   -2.0660    4.6580 h1        1 0T0      0.086000
     40 H17        -3.9980   -2.6680    4.6060 h1        1 0T0      0.086000
     41 H18        -5.0860   -3.3450    3.7940 h1        1 0T0      0.086000
@<TRIPOS>BOND
     1    1    2 1   
     2    1   10 1   
     3    1   24 1   
     4    1   25 1   
     5    2    3 1   
     6    2   26 1   
     7    2   27 1   
     8    3    8 1   
     9    4    5 1   
    10    4   28 1   
    11    5   29 1   
    12    6    7 1   
    13    6   30 1   
    14    7   31 1   
    15    8    9 1   
    16    9   10 1   
    17    9   32 1   
    18    9   33 1   
    19   10   11 1   
    20   11   12 1   
    21   11   13 1   
    22   14   16 1   
    23   15   19 1   
    24   15   34 1   
    25   16   35 1   
    26   17   18 1   
    27   17   36 1   
    28   18   37 1   
    29   20   21 1   
    30   22   23 1   
    31   22   38 1   
    32   23   39 1   
    33   23   40 1   
    34   23   41 1   
@<TRIPOS>SUBSTRUCTURE
     1 0T0         1 TEMP              0 ****  ****    0 ROOT
