@<TRIPOS>MOLECULE
0T0
   42    44     1     0     0
SMALL
bcc


@<TRIPOS>ATOM
      1 CAN        -0.0810   -0.2620    0.1670 c3        1 0T0      0.223800
      2 CAM         1.4450   -0.3490    0.1070 c3        1 0T0     -0.050100
      3 CAT         2.0790   -0.0180    1.4100 ca        1 0T0     -0.070300
      4 CAJ         3.4130   -0.3770    1.6430 ca        1 0T0     -0.121000
      5 CAE         4.0280   -0.0500    2.8490 ca        1 0T0     -0.113000
      6 CAF         3.3170    0.6380    3.8330 ca        1 0T0     -0.119000
      7 CAK         1.9900    0.9990    3.6100 ca        1 0T0     -0.118000
      8 CAU         1.3680    0.6700    2.4010 ca        1 0T0     -0.104300
      9 CAO        -0.0720    1.0510    2.2150 c3        1 0T0      0.267100
     10 NAV        -0.5680    0.9080    0.8630 n3        1 0T0     -0.825500
     11 SAW        -1.4690    2.0280    0.1530 sy        1 0T0      1.500200
     12 OAC        -1.3790    3.2680    0.8060 o         1 0T0     -0.633800
     13 OAD        -1.3410    1.9900   -1.2490 o         1 0T0     -0.633800
     14 CAS        -3.0950    1.4720    0.4520 ca        1 0T0     -0.321500
     15 CAL        -3.7550    0.7080   -0.5110 ca        1 0T0      0.049000
     16 CAI        -3.7760    1.8440    1.6120 ca        1 0T0      0.044000
     17 CAG        -5.1050    1.4510    1.8190 ca        1 0T0     -0.139000
     18 CAH        -5.7690    0.7050    0.8540 ca        1 0T0     -0.054000
     19 CAR        -5.0960    0.3430   -0.3260 ca        1 0T0     -0.232600
     20 CAQ        -5.7300   -0.4530   -1.3740 c         1 0T0      0.580700
     21 OAB        -5.2910   -1.3930   -2.0170 o         1 0T0     -0.402100
     22 NAP        -7.1470   -0.0290   -1.7620 n4        1 0T0     -0.679800
     23 CAA        -7.1140    0.9850   -2.8410 c3        1 0T0      0.082100
     24 H1         -0.4850   -0.2540   -0.8870 h1        1 0T0      0.056700
     25 H2         -0.4760   -1.1790    0.6930 h1        1 0T0      0.056700
     26 H3          1.8370    0.3550   -0.6770 hc        1 0T0      0.070200
     27 H4          1.7210   -1.3910   -0.2070 hc        1 0T0      0.070200
     28 H5          3.9740   -0.9170    0.8660 ha        1 0T0      0.140000
     29 H6          5.0770   -0.3340    3.0250 ha        1 0T0      0.144000
     30 H7          3.8040    0.8990    4.7850 ha        1 0T0      0.144000
     31 H8          1.4300    1.5450    4.3840 ha        1 0T0      0.135000
     32 H9         -0.2080    2.1270    2.5390 h1        1 0T0      0.063700
     33 H10        -0.6930    0.3950    2.8960 h1        1 0T0      0.063700
     34 H11        -3.2190    0.4130   -1.4350 ha        1 0T0      0.182000
     35 H12        -3.2660    2.4700    2.3690 ha        1 0T0      0.182000
     36 H13        -5.6220    1.7360    2.7500 ha        1 0T0      0.172000
     37 H14        -6.8040    0.3820    1.0450 ha        1 0T0      0.134000
     38 H15        -7.6640   -0.8540   -2.0920 hn        1 0T0      0.458300
     39 H16        -8.1650    1.2690   -3.1200 hx        1 0T0      0.113033
     40 H17        -6.5610    1.8960   -2.4860 hx        1 0T0      0.113033
     41 H18        -6.5910    0.5540   -3.7380 hx        1 0T0      0.113033
     42 HAP2       -7.6270    0.3570   -0.9430 hn        1 0T0      0.458300
@<TRIPOS>BOND
     1    1    2 1   
     2    1   10 1   
     3    1   24 1   
     4    1   25 1   
     5    2    3 1   
     6    2   26 1   
     7    2   27 1   
     8    3    4 ar  
     9    3    8 ar  
    10    4    5 ar  
    11    4   28 1   
    12    5    6 ar  
    13    5   29 1   
    14    6    7 ar  
    15    6   30 1   
    16    7    8 ar  
    17    7   31 1   
    18    8    9 1   
    19    9   10 1   
    20    9   32 1   
    21    9   33 1   
    22   10   11 1   
    23   11   12 2   
    24   11   13 2   
    25   11   14 1   
    26   14   15 ar  
    27   14   16 ar  
    28   15   19 ar  
    29   15   34 1   
    30   16   17 ar  
    31   16   35 1   
    32   17   18 ar  
    33   17   36 1   
    34   18   19 ar  
    35   18   37 1   
    36   19   20 1   
    37   20   21 2   
    38   20   22 1   
    39   22   23 1   
    40   22   38 1   
    41   22   42 1   
    42   23   39 1   
    43   23   40 1   
    44   23   41 1   
@<TRIPOS>SUBSTRUCTURE
     1 0T0         1 TEMP              0 ****  ****    0 ROOT
