@<TRIPOS>MOLECULE
0T0
   41    43     1     0     0
SMALL
bcc


@<TRIPOS>ATOM
      1 CAN        -1.2210    1.3130   -0.2330 c3        1 0T0      0.224800
      2 CAM        -2.5930    1.9130   -0.5470 c3        1 0T0     -0.051100
      3 CAT        -3.6970    1.1700    0.1150 ca        1 0T0     -0.064300
      4 CAJ        -4.9580    1.7640    0.2430 ca        1 0T0     -0.126000
      5 CAE        -6.0070    1.0700    0.8390 ca        1 0T0     -0.125000
      6 CAF        -5.8060   -0.2280    1.3130 ca        1 0T0     -0.128000
      7 CAK        -4.5550   -0.8270    1.1900 ca        1 0T0     -0.122000
      8 CAU        -3.4970   -0.1320    0.5940 ca        1 0T0     -0.090300
      9 CAO        -2.1570   -0.8040    0.5090 c3        1 0T0      0.268100
     10 NAV        -1.1890   -0.1260   -0.3160 n3        1 0T0     -0.816500
     11 SAW        -0.1740   -0.9210   -1.3040 sy        1 0T0      1.510200
     12 OAC        -0.6740   -2.2120   -1.5830 o         1 0T0     -0.649800
     13 OAD         0.1580   -0.1110   -2.4100 o         1 0T0     -0.649800
     14 CAS         1.2230   -1.1030   -0.3560 ca        1 0T0     -0.373500
     15 CAL         2.1110   -0.0370   -0.1830 ca        1 0T0      0.030000
     16 CAI         1.5240   -2.3330    0.2420 ca        1 0T0     -0.003000
     17 CAG         2.6800   -2.4940    1.0010 ca        1 0T0     -0.163000
     18 CAH         3.5610   -1.4250    1.1690 ca        1 0T0     -0.047000
     19 CAR         3.2800   -0.1940    0.5690 ca        1 0T0     -0.167600
     20 CAQ         4.1730    0.9900    0.7340 c         1 0T0      0.669700
     21 OAB         3.7040    2.1330    0.9100 o         1 0T0     -0.600100
     22 NAP         5.5340    0.7650    0.6950 n         1 0T0     -0.568900
     23 CAA         6.4900    1.8260    0.7610 c3        1 0T0      0.077300
     24 H1         -0.4660    1.7370   -0.9570 h1        1 0T0      0.058200
     25 H2         -0.9220    1.6250    0.8100 h1        1 0T0      0.058200
     26 H3         -2.5900    2.9850   -0.2140 hc        1 0T0      0.064200
     27 H4         -2.7660    1.9050   -1.6580 hc        1 0T0      0.064200
     28 H5         -5.1170    2.7870   -0.1330 ha        1 0T0      0.133000
     29 H6         -6.9950    1.5430    0.9360 ha        1 0T0      0.133000
     30 H7         -6.6350   -0.7780    1.7820 ha        1 0T0      0.133000
     31 H8         -4.3950   -1.8500    1.5610 ha        1 0T0      0.133000
     32 H9         -1.7500   -0.8840    1.5630 h1        1 0T0      0.062700
     33 H10        -2.3020   -1.8530    0.1080 h1        1 0T0      0.062700
     34 H11         1.8970    0.9430   -0.6480 ha        1 0T0      0.166000
     35 H12         0.8360   -3.1860    0.0950 ha        1 0T0      0.162000
     36 H13         2.9000   -3.4650    1.4690 ha        1 0T0      0.146000
     37 H14         4.4650   -1.5550    1.7850 ha        1 0T0      0.141000
     38 H15         5.8640   -0.1330    0.4360 hn        1 0T0      0.310500
     39 H16         6.9510    2.0100   -0.2470 h1        1 0T0      0.046367
     40 H17         5.9940    2.7710    1.1100 h1        1 0T0      0.046367
     41 H18         7.3040    1.5490    1.4830 h1        1 0T0      0.046367
@<TRIPOS>BOND
     1    1    2 1   
     2    1   10 1   
     3    1   24 1   
     4    1   25 1   
     5    2    3 1   
     6    2   26 1   
     7    2   27 1   
     8    3    4 ar  
     9    3    8 ar  
    10    4    5 ar  
    11    4   28 1   
    12    5    6 ar  
    13    5   29 1   
    14    6    7 ar  
    15    6   30 1   
    16    7    8 ar  
    17    7   31 1   
    18    8    9 1   
    19    9   10 1   
    20    9   32 1   
    21    9   33 1   
    22   10   11 1   
    23   11   12 2   
    24   11   13 2   
    25   11   14 1   
    26   14   15 ar  
    27   14   16 ar  
    28   15   19 ar  
    29   15   34 1   
    30   16   17 ar  
    31   16   35 1   
    32   17   18 ar  
    33   17   36 1   
    34   18   19 ar  
    35   18   37 1   
    36   19   20 1   
    37   20   21 2   
    38   20   22 1   
    39   22   23 1   
    40   22   38 1   
    41   23   39 1   
    42   23   40 1   
    43   23   41 1   
@<TRIPOS>SUBSTRUCTURE
     1 0T0         1 TEMP              0 ****  ****    0 ROOT
