@<TRIPOS>MOLECULE
0T0
   42    44     1     0     0
SMALL
bcc


@<TRIPOS>ATOM
      1 CAN        -0.0680   -0.2180    0.1350 c3        1 0T0      0.223800
      2 CAM         1.4590   -0.2800    0.0750 c3        1 0T0     -0.050100
      3 CAT         2.0870    0.0040    1.3920 ca        1 0T0     -0.070300
      4 CAJ         3.4250   -0.3430    1.6120 ca        1 0T0     -0.121000
      5 CAE         4.0340   -0.0590    2.8320 ca        1 0T0     -0.113000
      6 CAF         3.3110    0.5770    3.8430 ca        1 0T0     -0.119000
      7 CAK         1.9800    0.9270    3.6320 ca        1 0T0     -0.118000
      8 CAU         1.3640    0.6410    2.4090 ca        1 0T0     -0.104300
      9 CAO        -0.0810    1.0080    2.2360 c3        1 0T0      0.267100
     10 NAV        -0.5730    0.9150    0.8780 n3        1 0T0     -0.825500
     11 SAW        -1.4900    2.0500    0.2140 sy        1 0T0      1.500200
     12 OAC        -1.4190    3.2630    0.9200 o         1 0T0     -0.633800
     13 OAD        -1.3580    2.0730   -1.1880 o         1 0T0     -0.633800
     14 CAS        -3.1070    1.4580    0.4860 ca        1 0T0     -0.321500
     15 CAL        -3.7540    0.7270   -0.5110 ca        1 0T0      0.049000
     16 CAI        -3.7960    1.7700    1.6590 ca        1 0T0      0.044000
     17 CAG        -5.1190    1.3490    1.8460 ca        1 0T0     -0.139000
     18 CAH        -5.7700    0.6360    0.8490 ca        1 0T0     -0.054000
     19 CAR        -5.0910    0.3340   -0.3440 ca        1 0T0     -0.232600
     20 CAQ        -5.7120   -0.4240   -1.4270 c         1 0T0      0.580700
     21 OAB        -5.2580   -1.3300   -2.1080 o         1 0T0     -0.402100
     22 NAP        -7.1340   -0.0040   -1.8000 ny        1 0T0     -0.679800
     23 CAA        -7.1140    1.0560   -2.8330 c3        1 0T0      0.082100
     24 H1         -0.4500   -1.1620    0.6220 h1        1 0T0      0.056700
     25 H2         -0.4710   -0.1720   -0.9180 h1        1 0T0      0.056700
     26 H3          1.7510   -1.3040   -0.2820 hc        1 0T0      0.070200
     27 H4          1.8420    0.4610   -0.6780 hc        1 0T0      0.070200
     28 H5          3.9950   -0.8420    0.8140 ha        1 0T0      0.140000
     29 H6          5.0860   -0.3350    2.9980 ha        1 0T0      0.144000
     30 H7          3.7930    0.8050    4.8050 ha        1 0T0      0.144000
     31 H8          1.4110    1.4320    4.4280 ha        1 0T0      0.135000
     32 H9         -0.2330    2.0670    2.6060 h1        1 0T0      0.063700
     33 H10        -0.6930    0.3140    2.8880 h1        1 0T0      0.063700
     34 H11        -3.2130    0.4790   -1.4450 ha        1 0T0      0.182000
     35 H12        -3.2960    2.3700    2.4440 ha        1 0T0      0.182000
     36 H13        -5.6420    1.5870    2.7870 ha        1 0T0      0.172000
     37 H14        -6.8010    0.2900    1.0230 ha        1 0T0      0.134000
     38 H15        -7.6380   -0.8220   -2.1670 hn        1 0T0      0.458300
     39 H16        -6.5820    0.6720   -3.7470 hx        1 0T0      0.113033
     40 H17        -6.5740    1.9590   -2.4380 hx        1 0T0      0.113033
     41 H18        -8.1680    1.3360   -3.1020 hx        1 0T0      0.113033
     42 HAP2       -7.6200    0.3380   -0.9650 hn        1 0T0      0.458300
@<TRIPOS>BOND
     1    1    2 1   
     2    1   10 1   
     3    1   24 1   
     4    1   25 1   
     5    2    3 1   
     6    2   26 1   
     7    2   27 1   
     8    3    4 ar  
     9    3    8 ar  
    10    4    5 ar  
    11    4   28 1   
    12    5    6 ar  
    13    5   29 1   
    14    6    7 ar  
    15    6   30 1   
    16    7    8 ar  
    17    7   31 1   
    18    8    9 1   
    19    9   10 1   
    20    9   32 1   
    21    9   33 1   
    22   10   11 1   
    23   11   12 2   
    24   11   13 2   
    25   11   14 1   
    26   14   15 ar  
    27   14   16 ar  
    28   15   19 ar  
    29   15   34 1   
    30   16   17 ar  
    31   16   35 1   
    32   17   18 ar  
    33   17   36 1   
    34   18   19 ar  
    35   18   37 1   
    36   19   20 1   
    37   20   21 2   
    38   20   22 1   
    39   22   23 1   
    40   22   38 1   
    41   22   42 1   
    42   23   39 1   
    43   23   40 1   
    44   23   41 1   
@<TRIPOS>SUBSTRUCTURE
     1 0T0         1 TEMP              0 ****  ****    0 ROOT
