@<TRIPOS>MOLECULE
0T0
   42    44     1     0     0
SMALL
bcc


@<TRIPOS>ATOM
      1 CAN        -0.0730   -0.2320    0.1470 c3        1 0T0      0.223800
      2 CAM         1.4540   -0.3040    0.0880 c3        1 0T0     -0.050100
      3 CAT         2.0830   -0.0040    1.4010 ca        1 0T0     -0.070300
      4 CAJ         3.4190   -0.3560    1.6270 ca        1 0T0     -0.121000
      5 CAE         4.0290   -0.0580    2.8430 ca        1 0T0     -0.113000
      6 CAF         3.3090    0.5970    3.8440 ca        1 0T0     -0.119000
      7 CAK         1.9800    0.9510    3.6280 ca        1 0T0     -0.118000
      8 CAU         1.3630    0.6510    2.4080 ca        1 0T0     -0.104300
      9 CAO        -0.0790    1.0240    2.2290 c3        1 0T0      0.267100
     10 NAV        -0.5710    0.9140    0.8730 n3        1 0T0     -0.825500
     11 SAW        -1.4820    2.0440    0.1920 sy        1 0T0      1.500200
     12 OAC        -1.4040    3.2670    0.8790 o         1 0T0     -0.633800
     13 OAD        -1.3510    2.0450   -1.2100 o         1 0T0     -0.633800
     14 CAS        -3.1030    1.4650    0.4730 ca        1 0T0     -0.321500
     15 CAL        -3.7530    0.7210   -0.5110 ca        1 0T0      0.049000
     16 CAI        -3.7900    1.8000    1.6410 ca        1 0T0      0.044000
     17 CAG        -5.1150    1.3890    1.8340 ca        1 0T0     -0.139000
     18 CAH        -5.7700    0.6620    0.8490 ca        1 0T0     -0.054000
     19 CAR        -5.0920    0.3380   -0.3390 ca        1 0T0     -0.232600
     20 CAQ        -5.7160   -0.4360   -1.4090 c         1 0T0      0.580700
     21 OAB        -5.2670   -1.3550   -2.0750 o         1 0T0     -0.402100
     22 NAP        -7.1360   -0.0150   -1.7890 n4        1 0T0     -0.679800
     23 CAA        -7.1090    1.0270   -2.8420 c3        1 0T0      0.082100
     24 H1         -0.4750   -0.2000   -0.9070 h1        1 0T0      0.056700
     25 H2         -0.4600   -1.1670    0.6470 h1        1 0T0      0.056700
     26 H3          1.8420    0.4240   -0.6760 hc        1 0T0      0.070200
     27 H4          1.7400   -1.3340   -0.2550 hc        1 0T0      0.070200
     28 H5          3.9870   -0.8700    0.8370 ha        1 0T0      0.140000
     29 H6          5.0800   -0.3370    3.0140 ha        1 0T0      0.144000
     30 H7          3.7920    0.8360    4.8040 ha        1 0T0      0.144000
     31 H8          1.4140    1.4710    4.4150 ha        1 0T0      0.135000
     32 H9         -0.6960    0.3440    2.8910 h1        1 0T0      0.063700
     33 H10        -0.2250    2.0900    2.5830 h1        1 0T0      0.063700
     34 H11        -3.2130    0.4550   -1.4420 ha        1 0T0      0.182000
     35 H12        -3.2870    2.4110    2.4150 ha        1 0T0      0.182000
     36 H13        -5.6370    1.6450    2.7710 ha        1 0T0      0.172000
     37 H14        -6.8030    0.3240    1.0290 ha        1 0T0      0.134000
     38 H15        -7.6450   -0.8360   -2.1420 hn        1 0T0      0.458300
     39 H16        -6.5800    0.6240   -3.7480 hx        1 0T0      0.113033
     40 H17        -6.5650    1.9330   -2.4620 hx        1 0T0      0.113033
     41 H18        -8.1620    1.3080   -3.1150 hx        1 0T0      0.113033
     42 HAP2       -7.6200    0.3450   -0.9610 hn        1 0T0      0.458300
@<TRIPOS>BOND
     1    1    2 1   
     2    1   10 1   
     3    1   24 1   
     4    1   25 1   
     5    2    3 1   
     6    2   26 1   
     7    2   27 1   
     8    3    4 ar  
     9    3    8 ar  
    10    4    5 ar  
    11    4   28 1   
    12    5    6 ar  
    13    5   29 1   
    14    6    7 ar  
    15    6   30 1   
    16    7    8 ar  
    17    7   31 1   
    18    8    9 1   
    19    9   10 1   
    20    9   32 1   
    21    9   33 1   
    22   10   11 1   
    23   11   12 2   
    24   11   13 2   
    25   11   14 1   
    26   14   15 ar  
    27   14   16 ar  
    28   15   19 ar  
    29   15   34 1   
    30   16   17 ar  
    31   16   35 1   
    32   17   18 ar  
    33   17   36 1   
    34   18   19 ar  
    35   18   37 1   
    36   19   20 1   
    37   20   21 2   
    38   20   22 1   
    39   22   23 1   
    40   22   38 1   
    41   22   42 1   
    42   23   39 1   
    43   23   40 1   
    44   23   41 1   
@<TRIPOS>SUBSTRUCTURE
     1 0T0         1 TEMP              0 ****  ****    0 ROOT
