@<TRIPOS>MOLECULE
0T2
   64    55     1     0     0
SMALL
bcc


@<TRIPOS>ATOM
      1 C1         -1.7690    1.2180   -1.8480 c3        1 0T2     -0.103000
      2 N2         -0.3820    1.5690   -1.8600 n3        1 0T2     -0.192000
      3 C3          0.3610    1.6130   -0.6270 c1        1 0T2      0.077000
      4 C4          1.2130    2.6810   -0.3670 c1        1 0T2     -0.138000
      5 C5          1.9260    2.7270    0.8270 c1        1 0T2     -0.118000
      6 C6          1.7880    1.7040    1.7620 c1        1 0T2      0.009000
      7 F7          2.5580    1.6900    2.8500 f         1 0T2     -0.115000
      8 C8          0.9360    0.6370    1.5020 c1        1 0T2      0.069000
      9 N9          0.8490   -0.4550    2.4350 n2        1 0T2     -0.310000
     10 C10         0.7300   -0.1930    3.8230 c1        1 0T2      0.360000
     11 O11         0.7020    0.9530    4.2230 o         1 0T2     -0.338000
     12 C12         0.5110   -1.3420    4.7960 c1        1 0T2     -0.113000
     13 C13        -0.5630   -2.2120    4.6130 c1        1 0T2     -0.105000
     14 C14        -0.8310   -3.1940    5.5590 c1        1 0T2     -0.105000
     15 C15        -0.0300   -3.3090    6.6850 c1        1 0T2     -0.117000
     16 C16         1.0430   -2.4400    6.8690 c1        1 0T2      0.041000
     17 O17         1.9520   -2.6600    7.9300 o         1 0T2     -0.208000
     18 C18         1.5690   -2.0490    9.1500 c3        1 0T2      0.186000
     19 C19         0.8570   -3.0810   10.0360 c3        1 0T2     -0.223500
     20 C20         2.8120   -1.5290    9.8720 c3        1 0T2     -0.223500
     21 C21         0.6300   -0.8920    8.8640 c1        1 0T2     -0.172000
     22 N22        -0.0750   -0.0230    8.6500 n1        1 0T2     -0.012000
     23 C23         1.3110   -1.4560    5.9200 c2        1 0T2     -0.044000
     24 CL2         2.6840   -0.4030    6.1230 cl        1 0T2      0.030000
     25 C25         0.2220    0.5910    0.3070 c1        1 0T2     -0.180000
     26 C26         0.2490    1.9440   -3.0890 c1        1 0T2      0.083000
     27 C27        -0.3510    3.0540   -3.7210 c1        1 0T2     -0.105000
     28 C28        -1.0290    2.8870   -4.9130 c1        1 0T2     -0.105000
     29 C29        -1.1170    1.6470   -5.4800 c1        1 0T2     -0.090000
     30 N30        -1.5780    1.2030   -6.9390 n1        1 0T2     -0.153000
     31 C31        -1.2320   -0.1700   -7.1240 c1        1 0T2     -0.128000
     32 N32        -1.8090    0.5950   -8.2120 n2        1 0T2     -0.297000
     33 C33        -1.5210    0.2300   -9.5860 c2        1 0T2      0.337000
     34 O34        -0.7950   -0.7170   -9.8230 o         1 0T2     -0.344000
     35 C35        -2.0090    1.0700  -10.6820 cx        1 0T2     -0.217000
     36 C36        -0.9370    0.8210  -11.7230 cx        1 0T2     -0.175000
     37 C37        -2.1540    0.0380  -11.7810 cx        1 0T2     -0.175000
     38 S38        -0.5470   -0.6660   -5.8280 ss        1 0T2      0.586000
     39 C39        -0.5080    0.5240   -4.8390 c1        1 0T2     -0.300000
     40 N40         0.1610    0.6920   -3.6610 n1        1 0T2     -0.119000
     41 H1         -2.1410    1.3890   -0.9580 h1        1 0T2      0.089333
     42 H2         -1.8670    0.2600   -2.0680 h1        1 0T2      0.089333
     43 H3         -2.2490    1.7580   -2.5130 h1        1 0T2      0.089333
     44 H4          1.3110    3.4030   -1.0270 ha        1 0T2      0.148000
     45 H5          2.5300    3.4830    1.0100 ha        1 0T2      0.149000
     46 H6          0.8390   -1.3120    2.1320 hn        1 0T2      0.248000
     47 H7         -1.1310   -2.1310    3.8140 ha        1 0T2      0.153750
     48 H8         -1.5910   -3.8090    5.4290 ha        1 0T2      0.153750
     49 H9         -0.2200   -4.0040    7.3540 ha        1 0T2      0.151000
     50 H10         0.6910   -2.6920   10.9250 hc        1 0T2      0.098333
     51 H11         1.4210   -3.8780   10.1270 hc        1 0T2      0.098333
     52 H12         0.0030   -3.3310    9.6250 hc        1 0T2      0.098333
     53 H13         2.5600   -1.2010   10.7590 hc        1 0T2      0.098333
     54 H14         3.2110   -0.7940    9.3510 hc        1 0T2      0.098333
     55 H15         3.4670   -2.2590    9.9660 hc        1 0T2      0.098333
     56 H16        -0.3820   -0.1660    0.1230 ha        1 0T2      0.177000
     57 H17        -0.2330    3.9580   -3.3440 ha        1 0T2      0.153750
     58 H18        -1.4470    3.6600   -5.3530 ha        1 0T2      0.153750
     59 H19        -2.2750    1.3660   -8.0320 hn        1 0T2      0.255000
     60 H20        -2.4850    1.7750  -10.1960 hc        1 0T2      0.135000
     61 H21        -0.1410    0.3440  -11.4070 hc        1 0T2      0.127500
     62 H22        -0.8460    1.5060  -12.4050 hc        1 0T2      0.127500
     63 H23        -2.7780    0.2730  -12.5050 hc        1 0T2      0.127500
     64 H24        -2.0720   -0.8940  -11.4980 hc        1 0T2      0.127500
@<TRIPOS>BOND
     1    1    2 1   
     2    1   41 1   
     3    1   42 1   
     4    1   43 1   
     5    2    3 1   
     6    2   26 1   
     7    3    4 1   
     8    4   44 1   
     9    5    6 1   
    10    5   45 1   
    11    6    7 1   
    12    8   25 1   
    13    9   10 1   
    14    9   46 1   
    15   10   11 1   
    16   12   23 1   
    17   13   14 1   
    18   13   47 1   
    19   14   48 1   
    20   15   16 1   
    21   15   49 1   
    22   16   23 1   
    23   17   18 1   
    24   18   19 1   
    25   18   20 1   
    26   18   21 1   
    27   19   50 1   
    28   19   51 1   
    29   19   52 1   
    30   20   53 1   
    31   20   54 1   
    32   20   55 1   
    33   21   22 1   
    34   23   24 1   
    35   25   56 1   
    36   26   40 1   
    37   27   28 1   
    38   27   57 1   
    39   28   58 1   
    40   29   39 1   
    41   30   31 1   
    42   31   38 1   
    43   32   33 1   
    44   32   59 1   
    45   33   34 1   
    46   33   35 1   
    47   35   36 1   
    48   35   37 1   
    49   35   60 1   
    50   36   37 1   
    51   36   61 1   
    52   36   62 1   
    53   37   63 1   
    54   37   64 1   
    55   38   39 1   
@<TRIPOS>SUBSTRUCTURE
     1 0T2         1 TEMP              0 ****  ****    0 ROOT
