@<TRIPOS>MOLECULE
0T2
   64    68     1     0     0
SMALL
bcc


@<TRIPOS>ATOM
      1 C1          1.0540    4.1680    0.2490 c3        1 0T2      0.184100
      2 N2          1.6920    2.9960    0.7980 nh        1 0T2     -0.642700
      3 C3          0.8350    2.0320    1.4060 ca        1 0T2      0.152600
      4 C4          1.2710    1.3440    2.5560 ca        1 0T2     -0.105000
      5 C5          0.4260    0.4450    3.1900 ca        1 0T2     -0.131000
      6 C6         -0.8720    0.2190    2.7100 ca        1 0T2      0.059900
      7 F7         -1.6760   -0.6640    3.3570 f         1 0T2     -0.149900
      8 C8         -1.3370    0.9040    1.5450 ca        1 0T2      0.049600
      9 N9         -2.6370    0.6470    1.0800 n         1 0T2     -0.460100
     10 C10        -3.3640    1.4110    0.1810 c         1 0T2      0.687700
     11 O11        -2.9370    2.4610   -0.3310 o         1 0T2     -0.579100
     12 C12        -4.7500    0.9220   -0.1110 ca        1 0T2     -0.135600
     13 C13        -5.8040    1.8040    0.1460 ca        1 0T2     -0.081000
     14 C14        -7.1180    1.4280   -0.1290 ca        1 0T2     -0.121000
     15 C15        -7.3880    0.1730   -0.6670 ca        1 0T2     -0.116000
     16 C16        -6.3360   -0.7150   -0.9300 ca        1 0T2      0.089100
     17 O17        -6.5890   -1.9000   -1.6050 os        1 0T2     -0.319900
     18 C18        -7.1680   -2.9740   -0.8310 c3        1 0T2      0.228900
     19 C19        -6.9810   -4.2070   -1.7170 c3        1 0T2     -0.105600
     20 C20        -6.4730   -3.1570    0.5120 c3        1 0T2     -0.105600
     21 C21        -8.6000   -2.7330   -0.6210 c1        1 0T2      0.187700
     22 N22        -9.7390   -2.5750   -0.4540 n1        1 0T2     -0.355800
     23 C23        -5.0030   -0.3450   -0.6550 ca        1 0T2      0.029400
     24 CL2        -3.7170   -1.3950   -1.0100 cl        1 0T2     -0.057400
     25 C25        -0.4580    1.7930    0.9020 ca        1 0T2     -0.165000
     26 C26         2.8780    2.5470    0.1620 ca        1 0T2      0.649200
     27 C27         3.6900    3.5000   -0.5550 ca        1 0T2     -0.276300
     28 C28         4.8860    3.1110   -1.1190 ca        1 0T2     -0.024000
     29 C29         5.2950    1.7670   -0.9850 ca        1 0T2     -0.043900
     30 N30         6.4600    1.1910   -1.4810 nc        1 0T2     -0.572100
     31 C31         6.4770   -0.1110   -1.1430 cd        1 0T2      0.385800
     32 N32         7.5190   -0.9680   -1.4980 n         1 0T2     -0.457400
     33 C33         7.5460   -2.3140   -1.1460 c         1 0T2      0.693100
     34 O34         6.6120   -2.8090   -0.4840 o         1 0T2     -0.586100
     35 C35         8.7280   -3.1090   -1.5960 cx        1 0T2     -0.226700
     36 C36         9.2020   -4.2230   -0.6910 cx        1 0T2     -0.097400
     37 C37         8.4940   -4.5560   -1.9660 cx        1 0T2     -0.097400
     38 S38         5.1000   -0.6820   -0.2220 ss        1 0T2      0.018500
     39 C39         4.4210    0.8770   -0.2590 ca        1 0T2      0.383600
     40 N40         3.2490    1.2410    0.2920 nb        1 0T2     -0.675000
     41 H1          0.9090    4.0960   -0.8630 h1        1 0T2      0.049700
     42 H2          0.0550    4.3190    0.7370 h1        1 0T2      0.049700
     43 H3          1.6940    5.0630    0.4770 h1        1 0T2      0.049700
     44 H4          2.2870    1.5030    2.9520 ha        1 0T2      0.156000
     45 H5          0.7650   -0.1020    4.0830 ha        1 0T2      0.152000
     46 H6         -3.0760   -0.1640    1.4620 hn        1 0T2      0.332500
     47 H7         -5.5830    2.8040    0.5520 ha        1 0T2      0.158000
     48 H8         -7.9430    2.1280    0.0710 ha        1 0T2      0.150000
     49 H9         -8.4210   -0.1250   -0.9040 ha        1 0T2      0.160000
     50 H10        -7.4330   -4.0300   -2.7220 hc        1 0T2      0.061033
     51 H11        -5.8910   -4.4080   -1.8440 hc        1 0T2      0.061033
     52 H12        -7.4710   -5.0860   -1.2360 hc        1 0T2      0.061033
     53 H13        -6.8890   -4.0510    1.0340 hc        1 0T2      0.061033
     54 H14        -5.3790   -3.3070    0.3440 hc        1 0T2      0.061033
     55 H15        -6.6200   -2.2580    1.1570 hc        1 0T2      0.061033
     56 H16        -0.7910    2.3120   -0.0150 ha        1 0T2      0.176000
     57 H17         3.3660    4.5450   -0.6530 ha        1 0T2      0.147000
     58 H18         5.5160    3.8290   -1.6650 ha        1 0T2      0.153000
     59 H19         8.2730   -0.5850   -2.0270 hn        1 0T2      0.340500
     60 H20         9.4890   -2.5410   -2.1670 hc        1 0T2      0.094700
     61 H21        10.2900   -4.3980   -0.6070 hc        1 0T2      0.087450
     62 H22         8.6720   -4.3810    0.2670 hc        1 0T2      0.087450
     63 H23         7.4620   -4.9490   -1.9110 hc        1 0T2      0.087450
     64 H24         9.0620   -4.9740   -2.8150 hc        1 0T2      0.087450
@<TRIPOS>BOND
     1    1    2 1   
     2    1   41 1   
     3    1   42 1   
     4    1   43 1   
     5    2    3 1   
     6    2   26 1   
     7    3    4 ar  
     8    3   25 ar  
     9    4    5 ar  
    10    4   44 1   
    11    5    6 ar  
    12    5   45 1   
    13    6    7 1   
    14    6    8 ar  
    15    8    9 1   
    16    8   25 ar  
    17    9   10 1   
    18    9   46 1   
    19   10   11 2   
    20   10   12 1   
    21   12   13 ar  
    22   12   23 ar  
    23   13   14 ar  
    24   13   47 1   
    25   14   15 ar  
    26   14   48 1   
    27   15   16 ar  
    28   15   49 1   
    29   16   17 1   
    30   16   23 ar  
    31   17   18 1   
    32   18   19 1   
    33   18   20 1   
    34   18   21 1   
    35   19   50 1   
    36   19   51 1   
    37   19   52 1   
    38   20   53 1   
    39   20   54 1   
    40   20   55 1   
    41   21   22 3   
    42   23   24 1   
    43   25   56 1   
    44   26   27 ar  
    45   26   40 ar  
    46   27   28 ar  
    47   27   57 1   
    48   28   29 ar  
    49   28   58 1   
    50   29   30 1   
    51   29   39 ar  
    52   30   31 2   
    53   31   32 1   
    54   31   38 1   
    55   32   33 1   
    56   32   59 1   
    57   33   34 2   
    58   33   35 1   
    59   35   36 1   
    60   35   37 1   
    61   35   60 1   
    62   36   37 1   
    63   36   61 1   
    64   36   62 1   
    65   37   63 1   
    66   37   64 1   
    67   38   39 1   
    68   39   40 ar  
@<TRIPOS>SUBSTRUCTURE
     1 0T2         1 TEMP              0 ****  ****    0 ROOT
