@<TRIPOS>MOLECULE
0T2
   64    68     1     0     0
SMALL
bcc


@<TRIPOS>ATOM
      1 C1          0.6340    1.0500    0.9980 c3        1 0T2      0.184100
      2 N2          2.0510    0.9200    0.7570 nh        1 0T2     -0.642700
      3 C3          2.8090    0.2580    1.7680 ca        1 0T2      0.150600
      4 C4          4.1110    0.7070    2.0640 ca        1 0T2     -0.104000
      5 C5          4.8370    0.1070    3.0840 ca        1 0T2     -0.132000
      6 C6          4.2850   -0.9350    3.8410 ca        1 0T2      0.062900
      7 F7          5.0200   -1.4960    4.8350 f         1 0T2     -0.147900
      8 C8          2.9660   -1.4080    3.5590 ca        1 0T2      0.048600
      9 N9          2.4430   -2.4640    4.3240 n         1 0T2     -0.459100
     10 C10         1.1090   -2.8190    4.4370 c         1 0T2      0.687700
     11 O11         0.1860   -2.2170    3.8580 o         1 0T2     -0.581100
     12 C12         0.8180   -3.9620    5.3610 ca        1 0T2     -0.134600
     13 C13        -0.0680   -3.7160    6.4150 ca        1 0T2     -0.078000
     14 C14        -0.3930   -4.7310    7.3120 ca        1 0T2     -0.127000
     15 C15         0.1500   -6.0020    7.1540 ca        1 0T2     -0.116000
     16 C16         1.0180   -6.2640    6.0840 ca        1 0T2      0.086100
     17 O17         1.6510   -7.4950    6.0140 os        1 0T2     -0.324900
     18 C18         0.9100   -8.5720    5.3950 c3        1 0T2      0.230900
     19 C19         1.9220   -9.7180    5.3340 c3        1 0T2     -0.105600
     20 C20        -0.2980   -8.9620    6.2400 c3        1 0T2     -0.105600
     21 C21         0.4750   -8.2180    4.0430 c1        1 0T2      0.179700
     22 N22         0.1230   -7.9650    2.9650 n1        1 0T2     -0.336800
     23 C23         1.3650   -5.2400    5.1790 ca        1 0T2      0.035400
     24 CL2         2.4220   -5.5440    3.8890 cl        1 0T2     -0.046400
     25 C25         2.2560   -0.8070    2.5060 ca        1 0T2     -0.163000
     26 C26         2.4700    0.8070   -0.5930 ca        1 0T2      0.650200
     27 C27         1.6370    1.3600   -1.6330 ca        1 0T2     -0.277300
     28 C28         2.0540    1.3340   -2.9470 ca        1 0T2     -0.024000
     29 C29         3.3020    0.7530   -3.2520 ca        1 0T2     -0.043900
     30 N30         3.8870    0.6340   -4.5090 nc        1 0T2     -0.572100
     31 C31         5.0750    0.0180   -4.3770 cd        1 0T2      0.385800
     32 N32         5.9090   -0.2520   -5.4620 n         1 0T2     -0.457400
     33 C33         7.1440   -0.8810   -5.3320 c         1 0T2      0.692100
     34 O34         7.5550   -1.2320   -4.2070 o         1 0T2     -0.585100
     35 C35         7.9260   -1.1050   -6.5840 cx        1 0T2     -0.226700
     36 C36         9.4330   -1.0490   -6.4830 cx        1 0T2     -0.097400
     37 C37         8.7530   -2.3670   -6.6720 cx        1 0T2     -0.097400
     38 S38         5.5270   -0.4350   -2.7450 ss        1 0T2      0.019500
     39 C39         4.0700    0.2160   -2.1550 ca        1 0T2      0.384600
     40 N40         3.6740    0.2300   -0.8690 nb        1 0T2     -0.675000
     41 H1          0.3040    2.0660    0.6500 h1        1 0T2      0.049367
     42 H2          0.4280    0.9730    2.0990 h1        1 0T2      0.049367
     43 H3          0.0340    0.2660    0.4610 h1        1 0T2      0.049367
     44 H4          4.5670    1.5250    1.4840 ha        1 0T2      0.156000
     45 H5          5.8580    0.4480    3.3130 ha        1 0T2      0.151000
     46 H6          3.1110   -2.9840    4.8520 hn        1 0T2      0.335500
     47 H7         -0.5100   -2.7120    6.5230 ha        1 0T2      0.158000
     48 H8         -1.0810   -4.5270    8.1470 ha        1 0T2      0.147000
     49 H9         -0.0840   -6.8080    7.8660 ha        1 0T2      0.151000
     50 H10         2.2370   -9.9880    6.3700 hc        1 0T2      0.059033
     51 H11         2.8230   -9.4060    4.7550 hc        1 0T2      0.059033
     52 H12         1.4500  -10.6020    4.8440 hc        1 0T2      0.059033
     53 H13        -0.7630   -9.8880    5.8250 hc        1 0T2      0.059033
     54 H14        -1.0590   -8.1460    6.2420 hc        1 0T2      0.059033
     55 H15         0.0310   -9.1560    7.2890 hc        1 0T2      0.059033
     56 H16         1.2450   -1.1780    2.2560 ha        1 0T2      0.175000
     57 H17         0.6670    1.8130   -1.3880 ha        1 0T2      0.147000
     58 H18         1.4280    1.7560   -3.7480 ha        1 0T2      0.153000
     59 H19         5.5930    0.0230   -6.3670 hn        1 0T2      0.339500
     60 H20         7.4520   -0.7270   -7.5110 hc        1 0T2      0.094700
     61 H21         9.9950   -0.5970   -7.3200 hc        1 0T2      0.087450
     62 H22         9.8830   -0.8200   -5.4980 hc        1 0T2      0.087450
     63 H23         8.7210   -3.0740   -5.8210 hc        1 0T2      0.087450
     64 H24         8.8160   -2.8810   -7.6470 hc        1 0T2      0.087450
@<TRIPOS>BOND
     1    1    2 1   
     2    1   41 1   
     3    1   42 1   
     4    1   43 1   
     5    2    3 1   
     6    2   26 1   
     7    3    4 ar  
     8    3   25 ar  
     9    4    5 ar  
    10    4   44 1   
    11    5    6 ar  
    12    5   45 1   
    13    6    7 1   
    14    6    8 ar  
    15    8    9 1   
    16    8   25 ar  
    17    9   10 1   
    18    9   46 1   
    19   10   11 2   
    20   10   12 1   
    21   12   13 ar  
    22   12   23 ar  
    23   13   14 ar  
    24   13   47 1   
    25   14   15 ar  
    26   14   48 1   
    27   15   16 ar  
    28   15   49 1   
    29   16   17 1   
    30   16   23 ar  
    31   17   18 1   
    32   18   19 1   
    33   18   20 1   
    34   18   21 1   
    35   19   50 1   
    36   19   51 1   
    37   19   52 1   
    38   20   53 1   
    39   20   54 1   
    40   20   55 1   
    41   21   22 3   
    42   23   24 1   
    43   25   56 1   
    44   26   27 ar  
    45   26   40 ar  
    46   27   28 ar  
    47   27   57 1   
    48   28   29 ar  
    49   28   58 1   
    50   29   30 1   
    51   29   39 ar  
    52   30   31 2   
    53   31   32 1   
    54   31   38 1   
    55   32   33 1   
    56   32   59 1   
    57   33   34 2   
    58   33   35 1   
    59   35   36 1   
    60   35   37 1   
    61   35   60 1   
    62   36   37 1   
    63   36   61 1   
    64   36   62 1   
    65   37   63 1   
    66   37   64 1   
    67   38   39 1   
    68   39   40 ar  
@<TRIPOS>SUBSTRUCTURE
     1 0T2         1 TEMP              0 ****  ****    0 ROOT
