@<TRIPOS>MOLECULE
0T2
   67    71     1     0     0
SMALL
bcc


@<TRIPOS>ATOM
      1 C1          1.2730   -0.1590    0.3890 c3        1 0T2      0.086100
      2 N2          2.7300    0.1200    0.5350 n4        1 0T2     -0.544500
      3 C3          3.4030   -0.6370    1.6080 ca        1 0T2     -0.046400
      4 C4          4.7330   -0.2840    1.9300 ca        1 0T2     -0.039000
      5 C5          5.3770   -0.9000    2.9900 ca        1 0T2     -0.119000
      6 C6          4.7090   -1.8690    3.7660 ca        1 0T2      0.221900
      7 F7          5.3350   -2.4430    4.8090 f         1 0T2     -0.072900
      8 C8          3.3710   -2.2350    3.4400 ca        1 0T2     -0.056400
      9 N9          2.6720   -3.2200    4.2560 n4        1 0T2     -0.584200
     10 C10         1.2670   -2.8220    4.7470 c         1 0T2      0.600700
     11 O11         0.8630   -1.7300    4.3850 o         1 0T2     -0.428100
     12 C12         0.6330   -3.8160    5.6130 ca        1 0T2     -0.194600
     13 C13        -0.0420   -3.3120    6.7330 ca        1 0T2     -0.060000
     14 C14        -0.6950   -4.1900    7.6030 ca        1 0T2     -0.078000
     15 C15        -0.6880   -5.5550    7.3610 ca        1 0T2     -0.098000
     16 C16        -0.0340   -6.0790    6.2230 ca        1 0T2      0.187100
     17 O17         0.0650   -7.4110    5.9400 os        1 0T2     -0.318900
     18 C18        -0.9970   -8.3280    6.3590 c3        1 0T2      0.239900
     19 C19        -0.9360   -9.4350    5.3040 c3        1 0T2     -0.109600
     20 C20        -0.6700   -8.8860    7.7370 c3        1 0T2     -0.109600
     21 C21        -2.3010   -7.6710    6.3250 c1        1 0T2      0.146700
     22 N22        -3.3560   -7.1860    6.2790 n1        1 0T2     -0.287800
     23 C23         0.6260   -5.2010    5.3390 ca        1 0T2     -0.019600
     24 CL2         1.3600   -5.8080    3.9180 cl        1 0T2     -0.056400
     25 C25         2.7330   -1.6240    2.3450 ca        1 0T2     -0.032000
     26 C26         3.4100   -0.0740   -0.7860 ca        1 0T2      0.505200
     27 C27         3.4780   -1.3790   -1.3590 ca        1 0T2     -0.215300
     28 C28         4.0590   -1.5340   -2.6080 ca        1 0T2      0.028000
     29 C29         4.5600   -0.3840   -3.2640 ca        1 0T2      0.008100
     30 N30         5.1540   -0.3280   -4.5150 nc        1 0T2     -0.444100
     31 C31         5.4830    0.9500   -4.7820 cd        1 0T2      0.356100
     32 N32         6.1390    1.3070   -6.0300 n4        1 0T2     -0.625800
     33 C33         7.6540    0.9210   -6.0740 c         1 0T2      0.615100
     34 O34         8.1150    0.5420   -5.0170 o         1 0T2     -0.396100
     35 C35         8.2520    1.0960   -7.3990 cx        1 0T2     -0.306700
     36 C36         9.7350    1.4580   -7.4600 cx        1 0T2     -0.048400
     37 C37         9.3110    0.0840   -7.8340 cx        1 0T2     -0.048400
     38 S38         5.1100    2.1150   -3.5580 ss        1 0T2      0.190500
     39 C39         4.4530    0.8980   -2.5880 ca        1 0T2      0.374600
     40 N40         3.8910    1.0450   -1.3670 nb        1 0T2     -0.605000
     41 H1          1.1110   -1.2170    0.0520 hx        1 0T2      0.119700
     42 H2          0.7620    0.0250    1.3740 hx        1 0T2      0.119700
     43 H3          0.8540    0.5450   -0.3840 hx        1 0T2      0.119700
     44 H4          5.2760    0.4890    1.3540 ha        1 0T2      0.190000
     45 H5          6.4190   -0.6290    3.2540 ha        1 0T2      0.221000
     46 H6          3.2390   -3.4240    5.0960 hn        1 0T2      0.485800
     47 H7         -0.0610   -2.2260    6.9300 ha        1 0T2      0.174000
     48 H8         -1.2210   -3.7880    8.4880 ha        1 0T2      0.192000
     49 H9         -1.2040   -6.2360    8.0620 ha        1 0T2      0.194000
     50 H10        -1.1570   -9.0250    4.2910 hc        1 0T2      0.073700
     51 H11         0.0840   -9.8890    5.2990 hc        1 0T2      0.073700
     52 H12        -1.6890  -10.2200    5.5590 hc        1 0T2      0.073700
     53 H13        -1.4030   -9.6900    7.9920 hc        1 0T2      0.073700
     54 H14         0.3580   -9.3250    7.7210 hc        1 0T2      0.073700
     55 H15        -0.7100   -8.1020    8.5280 hc        1 0T2      0.073700
     56 H16         1.6930   -1.9140    2.1050 ha        1 0T2      0.182000
     57 H17         3.0790   -2.2560   -0.8250 ha        1 0T2      0.179000
     58 H18         4.1280   -2.5290   -3.0880 ha        1 0T2      0.213000
     59 H19         5.6760    0.8220   -6.8170 hn        1 0T2      0.481300
     60 H20         7.5900    1.5140   -8.1860 hc        1 0T2      0.129700
     61 H21        10.0430    2.1780   -8.2460 hc        1 0T2      0.120200
     62 H22        10.2830    1.6160   -6.5110 hc        1 0T2      0.120200
     63 H23         9.5500   -0.7590   -7.1560 hc        1 0T2      0.120200
     64 H24         9.3010   -0.2250   -8.8990 hc        1 0T2      0.120200
     65 H211        2.8210    1.1230    0.8060 hn        1 0T2      0.490800
     66 H92         2.5560   -4.1240    3.7300 hn        1 0T2      0.485800
     67 H322        6.0520    2.3200   -6.1810 hn        1 0T2      0.481300
@<TRIPOS>BOND
     1    1    2 1   
     2    1   41 1   
     3    1   42 1   
     4    1   43 1   
     5    2    3 1   
     6    2   26 1   
     7    2   65 1   
     8    3    4 ar  
     9    3   25 ar  
    10    4    5 ar  
    11    4   44 1   
    12    5    6 ar  
    13    5   45 1   
    14    6    7 1   
    15    6    8 ar  
    16    8    9 1   
    17    8   25 ar  
    18    9   10 1   
    19    9   46 1   
    20    9   66 1   
    21   10   11 2   
    22   10   12 1   
    23   12   13 ar  
    24   12   23 ar  
    25   13   14 ar  
    26   13   47 1   
    27   14   15 ar  
    28   14   48 1   
    29   15   16 ar  
    30   15   49 1   
    31   16   17 1   
    32   16   23 ar  
    33   17   18 1   
    34   18   19 1   
    35   18   20 1   
    36   18   21 1   
    37   19   50 1   
    38   19   51 1   
    39   19   52 1   
    40   20   53 1   
    41   20   54 1   
    42   20   55 1   
    43   21   22 3   
    44   23   24 1   
    45   25   56 1   
    46   26   27 ar  
    47   26   40 ar  
    48   27   28 ar  
    49   27   57 1   
    50   28   29 ar  
    51   28   58 1   
    52   29   30 1   
    53   29   39 ar  
    54   30   31 2   
    55   31   32 1   
    56   31   38 1   
    57   32   33 1   
    58   32   59 1   
    59   32   67 1   
    60   33   34 2   
    61   33   35 1   
    62   35   36 1   
    63   35   37 1   
    64   35   60 1   
    65   36   37 1   
    66   36   61 1   
    67   36   62 1   
    68   37   63 1   
    69   37   64 1   
    70   38   39 1   
    71   39   40 ar  
@<TRIPOS>SUBSTRUCTURE
     1 0T2         1 TEMP              0 ****  ****    0 ROOT
