@<TRIPOS>MOLECULE
0T2
   64    68     1     0     0
SMALL
bcc


@<TRIPOS>ATOM
      1 C1          0.5710    1.0550    0.9440 c3        1 0T2      0.184100
      2 N2          1.9930    0.9440    0.7220 nh        1 0T2     -0.642700
      3 C3          2.7480    0.3060    1.7500 ca        1 0T2      0.150600
      4 C4          4.0400    0.7780    2.0570 ca        1 0T2     -0.104000
      5 C5          4.7610    0.2020    3.0920 ca        1 0T2     -0.132000
      6 C6          4.2160   -0.8400    3.8550 ca        1 0T2      0.062900
      7 F7          4.9470   -1.3780    4.8650 f         1 0T2     -0.147900
      8 C8          2.9090   -1.3370    3.5620 ca        1 0T2      0.048600
      9 N9          2.3920   -2.3910    4.3330 ns        1 0T2     -0.459100
     10 C10         1.0630   -2.7660    4.4330 c         1 0T2      0.687700
     11 O11         0.1380   -2.1870    3.8350 o         1 0T2     -0.581100
     12 C12         0.7770   -3.9040    5.3670 ca        1 0T2     -0.134600
     13 C13        -0.1260   -3.6600    6.4060 ca        1 0T2     -0.078000
     14 C14        -0.4470   -4.6700    7.3110 ca        1 0T2     -0.127000
     15 C15         0.1190   -5.9340    7.1740 ca        1 0T2     -0.116000
     16 C16         1.0040   -6.1940    6.1180 ca        1 0T2      0.086100
     17 O17         1.6590   -7.4150    6.0710 os        1 0T2     -0.324900
     18 C18         0.9420   -8.5110    5.4550 c3        1 0T2      0.230900
     19 C19         1.9740   -9.6410    5.4190 c3        1 0T2     -0.105600
     20 C20        -0.2690   -8.9120    6.2890 c3        1 0T2     -0.105600
     21 C21         0.5180   -8.1790    4.0940 c1        1 0T2      0.179700
     22 N22         0.1760   -7.9430    3.0090 n1        1 0T2     -0.336800
     23 C23         1.3470   -5.1750    5.2060 ca        1 0T2      0.035400
     24 Cl2         2.4260   -5.4760    3.9340 cl        1 0T2     -0.047400
     25 C25         2.2020   -0.7590    2.4930 ca        1 0T2     -0.163000
     26 C26         2.4310    0.8220   -0.6210 ca        1 0T2      0.650200
     27 C27         1.6030    1.3510   -1.6780 ca        1 0T2     -0.277300
     28 C28         2.0360    1.3160   -2.9870 ca        1 0T2     -0.024000
     29 C29         3.2970    0.7510   -3.2690 ca        1 0T2     -0.043900
     30 N30         3.9000    0.6270   -4.5170 nc        1 0T2     -0.572100
     31 C31         5.0960    0.0310   -4.3630 cd        1 0T2      0.385800
     32 N32         5.9480   -0.2380   -5.4340 ns        1 0T2     -0.457400
     33 C33         7.1910   -0.8460   -5.2810 c         1 0T2      0.692100
     34 O34         7.5930   -1.1780   -4.1480 o         1 0T2     -0.585100
     35 C35         7.9920   -1.0710   -6.5210 cx        1 0T2     -0.226700
     36 C36         9.4970   -0.9940   -6.4010 cx        1 0T2     -0.097400
     37 C37         8.8380   -2.3230   -6.5850 cx        1 0T2     -0.097400
     38 S38         5.5340   -0.3960   -2.7200 ss        1 0T2      0.019500
     39 C39         4.0590    0.2380   -2.1570 ca        1 0T2      0.384600
     40 N40         3.6470    0.2610   -0.8750 nb        1 0T2     -0.675000
     41 H1          0.2300    2.0620    0.5800 h1        1 0T2      0.049367
     42 H2          0.3530    0.9880    2.0430 h1        1 0T2      0.049367
     43 H3         -0.0090    0.2560    0.4090 h1        1 0T2      0.049367
     44 H4          4.4900    1.5960    1.4740 ha        1 0T2      0.156000
     45 H5          5.7740    0.5610    3.3300 ha        1 0T2      0.151000
     46 H6          3.0620   -2.8950    4.8750 hn        1 0T2      0.335500
     47 H7         -0.5850   -2.6620    6.4970 ha        1 0T2      0.158000
     48 H8         -1.1480   -4.4670    8.1340 ha        1 0T2      0.147000
     49 H9         -0.1120   -6.7350    7.8930 ha        1 0T2      0.151000
     50 H10         2.2810   -9.8940    6.4620 hc        1 0T2      0.059033
     51 H11         2.8760   -9.3200    4.8470 hc        1 0T2      0.059033
     52 H12         1.5230  -10.5370    4.9340 hc        1 0T2      0.059033
     53 H13        -0.7140   -9.8500    5.8790 hc        1 0T2      0.059033
     54 H14        -1.0430   -8.1080    6.2740 hc        1 0T2      0.059033
     55 H15         0.0500   -9.0880    7.3440 hc        1 0T2      0.059033
     56 H16         1.2010   -1.1480    2.2360 ha        1 0T2      0.175000
     57 H17         0.6230    1.7910   -1.4500 ha        1 0T2      0.147000
     58 H18         1.4140    1.7190   -3.8000 ha        1 0T2      0.153000
     59 H19         5.6400    0.0220   -6.3460 hn        1 0T2      0.339500
     60 H20         7.5250   -0.7090   -7.4580 hc        1 0T2      0.094700
     61 H21        10.0630   -0.5430   -7.2340 hc        1 0T2      0.087450
     62 H22         9.9310   -0.7500   -5.4120 hc        1 0T2      0.087450
     63 H23         8.8040   -3.0220   -5.7280 hc        1 0T2      0.087450
     64 H24         8.9200   -2.8460   -7.5540 hc        1 0T2      0.087450
@<TRIPOS>BOND
     1    1    2 1   
     2    1   41 1   
     3    1   42 1   
     4    1   43 1   
     5    2    3 1   
     6    2   26 1   
     7    3    4 ar  
     8    3   25 ar  
     9    4    5 ar  
    10    4   44 1   
    11    5    6 ar  
    12    5   45 1   
    13    6    7 1   
    14    6    8 ar  
    15    8    9 1   
    16    8   25 ar  
    17    9   10 1   
    18    9   46 1   
    19   10   11 2   
    20   10   12 1   
    21   12   13 ar  
    22   12   23 ar  
    23   13   14 ar  
    24   13   47 1   
    25   14   15 ar  
    26   14   48 1   
    27   15   16 ar  
    28   15   49 1   
    29   16   17 1   
    30   16   23 ar  
    31   17   18 1   
    32   18   19 1   
    33   18   20 1   
    34   18   21 1   
    35   19   50 1   
    36   19   51 1   
    37   19   52 1   
    38   20   53 1   
    39   20   54 1   
    40   20   55 1   
    41   21   22 3   
    42   23   24 1   
    43   25   56 1   
    44   26   27 ar  
    45   26   40 ar  
    46   27   28 ar  
    47   27   57 1   
    48   28   29 ar  
    49   28   58 1   
    50   29   30 1   
    51   29   39 ar  
    52   30   31 2   
    53   31   32 1   
    54   31   38 1   
    55   32   33 1   
    56   32   59 1   
    57   33   34 2   
    58   33   35 1   
    59   35   36 1   
    60   35   37 1   
    61   35   60 1   
    62   36   37 1   
    63   36   61 1   
    64   36   62 1   
    65   37   63 1   
    66   37   64 1   
    67   38   39 1   
    68   39   40 ar  
@<TRIPOS>SUBSTRUCTURE
     1 0T2         1 TEMP              0 ****  ****    0 ROOT
