@<TRIPOS>MOLECULE
0T3
   30    32     1     0     0
SMALL
bcc


@<TRIPOS>ATOM
      1 C01         2.8610   -2.1010   -0.1370 c3        1 0T3     -0.082400
      2 C02         1.3570   -1.9280   -0.1670 c3        1 0T3     -0.084400
      3 C03         0.9080   -0.6720    0.6130 c3        1 0T3      0.102300
      4 N04         1.7430    0.4670    0.3100 na        1 0T3     -0.205900
      5 C05         1.5540    1.8170    0.6310 cc        1 0T3      0.397400
      6 N06         2.6150    2.5620    0.2560 nd        1 0T3     -0.667000
      7 C07         3.5270    1.6760   -0.3160 cd        1 0T3      0.295200
      8 C08         3.0100    0.3650   -0.2910 cc        1 0T3     -0.211900
      9 C09         3.5710   -0.9140   -0.7660 c3        1 0T3     -0.004100
     10 C10        -0.5590   -0.4290    0.3500 ca        1 0T3     -0.089300
     11 C11        -1.4840   -0.6520    1.3750 ca        1 0T3     -0.118500
     12 C12        -2.8460   -0.4690    1.1460 ca        1 0T3     -0.092000
     13 C13        -3.2910   -0.0540   -0.1170 ca        1 0T3     -0.009000
     14 C14        -2.3660    0.1760   -1.1450 ca        1 0T3     -0.092000
     15 C15        -1.0060   -0.0140   -0.9090 ca        1 0T3     -0.118500
     16 C16        -4.6800    0.1340   -0.3540 cg        1 0T3      0.228800
     17 N17        -5.8170    0.2870   -0.5480 n1        1 0T3     -0.353800
     18 H1          3.2030   -2.2220    0.9240 hc        1 0T3      0.051700
     19 H2          3.1380   -3.0350   -0.6900 hc        1 0T3      0.051700
     20 H3          1.0060   -1.8530   -1.2290 hc        1 0T3      0.059200
     21 H4          0.8570   -2.8150    0.3000 hc        1 0T3      0.059200
     22 H5          1.0410   -0.8890    1.7200 h1        1 0T3      0.063700
     23 H6          0.6450    2.1870    1.1160 h5        1 0T3      0.063100
     24 H7          4.4850    2.0160   -0.7060 h4        1 0T3      0.042100
     25 H8          4.6660   -0.9520   -0.5230 hc        1 0T3      0.059200
     26 H9          3.4710   -0.9630   -1.8850 hc        1 0T3      0.059200
     27 H10        -1.1400   -0.9750    2.3710 ha        1 0T3      0.147000
     28 H11        -3.5700   -0.6480    1.9560 ha        1 0T3      0.150000
     29 H12        -2.7130    0.5060   -2.1360 ha        1 0T3      0.150000
     30 H13        -0.2820    0.1690   -1.7180 ha        1 0T3      0.147000
@<TRIPOS>BOND
     1    1    2 1   
     2    1    9 1   
     3    1   18 1   
     4    1   19 1   
     5    2    3 1   
     6    2   20 1   
     7    2   21 1   
     8    3    4 1   
     9    3   10 1   
    10    3   22 1   
    11    4    5 1   
    12    4    8 1   
    13    5    6 2   
    14    5   23 1   
    15    6    7 1   
    16    7    8 2   
    17    7   24 1   
    18    8    9 1   
    19    9   25 1   
    20    9   26 1   
    21   10   11 ar  
    22   10   15 ar  
    23   11   12 ar  
    24   11   27 1   
    25   12   13 ar  
    26   12   28 1   
    27   13   14 ar  
    28   13   16 1   
    29   14   15 ar  
    30   14   29 1   
    31   15   30 1   
    32   16   17 3   
@<TRIPOS>SUBSTRUCTURE
     1 0T3         1 TEMP              0 ****  ****    0 ROOT
