@<TRIPOS>MOLECULE
0T3
   30    32     1     0     0
SMALL
bcc


@<TRIPOS>ATOM
      1 C01        -0.0110   -0.0580    0.0280 c3        1 0T3     -0.082400
      2 C02         1.5010   -0.0060    0.0860 c3        1 0T3     -0.084400
      3 C03         2.0240   -0.1370    1.5340 c3        1 0T3      0.102300
      4 N04         1.3380   -1.1850    2.2530 na        1 0T3     -0.205900
      5 C05         1.6470   -1.7600    3.4930 cc        1 0T3      0.397400
      6 N06         0.6990   -2.6440    3.8690 nd        1 0T3     -0.667000
      7 C07        -0.2590   -2.6410    2.8570 cd        1 0T3      0.295200
      8 C08         0.1130   -1.7390    1.8410 cc        1 0T3     -0.211900
      9 C09        -0.5450   -1.3720    0.5720 c3        1 0T3     -0.004100
     10 C10         3.5240   -0.3140    1.5000 ca        1 0T3     -0.089300
     11 C11         4.3450    0.7280    1.9450 ca        1 0T3     -0.118500
     12 C12         5.7320    0.6030    1.8900 ca        1 0T3     -0.092000
     13 C13         6.3060   -0.5750    1.3930 ca        1 0T3     -0.009000
     14 C14         5.4860   -1.6230    0.9520 ca        1 0T3     -0.092000
     15 C15         4.1000   -1.4880    1.0050 ca        1 0T3     -0.118500
     16 C16         7.7210   -0.7070    1.3360 cg        1 0T3      0.228800
     17 N17         8.8780   -0.8140    1.2900 n1        1 0T3     -0.353800
     18 H1         -0.3450    0.0670   -1.0340 hc        1 0T3      0.051700
     19 H2         -0.4370    0.7940    0.6200 hc        1 0T3      0.051700
     20 H3          1.8700    0.9690   -0.3220 hc        1 0T3      0.059200
     21 H4          1.9330   -0.8290   -0.5420 hc        1 0T3      0.059200
     22 H5          1.7920    0.8350    2.0730 h1        1 0T3      0.063700
     23 H6          2.5530   -1.5080    4.0520 h5        1 0T3      0.063100
     24 H7         -1.1450   -3.2710    2.9090 h4        1 0T3      0.042100
     25 H8         -0.3730   -2.1910   -0.1790 hc        1 0T3      0.059200
     26 H9         -1.6530   -1.2940    0.7380 hc        1 0T3      0.059200
     27 H10         3.9000    1.6540    2.3400 ha        1 0T3      0.147000
     28 H11         6.3740    1.4250    2.2390 ha        1 0T3      0.150000
     29 H12         5.9350   -2.5500    0.5650 ha        1 0T3      0.150000
     30 H13         3.4590   -2.3140    0.6600 ha        1 0T3      0.147000
@<TRIPOS>BOND
     1    1    2 1   
     2    1    9 1   
     3    1   18 1   
     4    1   19 1   
     5    2    3 1   
     6    2   20 1   
     7    2   21 1   
     8    3    4 1   
     9    3   10 1   
    10    3   22 1   
    11    4    5 1   
    12    4    8 1   
    13    5    6 2   
    14    5   23 1   
    15    6    7 1   
    16    7    8 2   
    17    7   24 1   
    18    8    9 1   
    19    9   25 1   
    20    9   26 1   
    21   10   11 ar  
    22   10   15 ar  
    23   11   12 ar  
    24   11   27 1   
    25   12   13 ar  
    26   12   28 1   
    27   13   14 ar  
    28   13   16 1   
    29   14   15 ar  
    30   14   29 1   
    31   15   30 1   
    32   16   17 3   
@<TRIPOS>SUBSTRUCTURE
     1 0T3         1 TEMP              0 ****  ****    0 ROOT
