@<TRIPOS>MOLECULE
0T3
   30    30     1     0     0
SMALL
bcc


@<TRIPOS>ATOM
      1 C01         0.0030    1.5270   -0.5520 c1        1 0T3     -0.163500
      2 C02         1.0030    1.7020   -1.1850 c1        1 0T3     -0.163500
      3 C03         2.0730   -0.0170    2.0350 c3        1 0T3      0.077600
      4 N04         1.2800   -1.0590    2.6130 na        1 0T3     -0.207900
      5 C05         1.2260   -1.4090    3.9730 cc        1 0T3      0.395400
      6 N06         0.3920   -2.4470    4.1840 nd        1 0T3     -0.664000
      7 C07        -0.1060   -2.7960    2.9320 cd        1 0T3      0.294200
      8 C08         0.4330   -1.9550    1.9350 cc        1 0T3     -0.213900
      9 C09         0.1810   -1.9610    0.4880 c3        1 0T3     -0.025800
     10 C10         3.5190   -0.3530    1.7940 ca        1 0T3     -0.089300
     11 C11         4.4950    0.6040    2.0970 ca        1 0T3     -0.123000
     12 C12         5.8390    0.3450    1.8410 ca        1 0T3     -0.090000
     13 C13         6.2180   -0.8830    1.2810 ca        1 0T3     -0.013000
     14 C14         5.2440   -1.8450    0.9800 ca        1 0T3     -0.090000
     15 C15         3.9010   -1.5760    1.2340 ca        1 0T3     -0.123000
     16 C16         7.5890   -1.1520    1.0190 cg        1 0T3      0.230800
     17 N17         8.7110   -1.3720    0.8040 n1        1 0T3     -0.356800
     18 H1         -0.1580   -0.9540    0.1300 hc        1 0T3      0.050367
     19 H2         -0.8900    1.3810    0.0040 ha        1 0T3      0.165000
     20 H3          1.6110    0.2730    1.0410 h1        1 0T3      0.075700
     21 H4          1.8880    1.8570   -1.7500 ha        1 0T3      0.165000
     22 H5          2.0140    0.8800    2.7200 h1        1 0T3      0.075700
     23 H6          1.7980   -0.8770    4.7390 h5        1 0T3      0.061100
     24 H7         -0.8140   -3.6150    2.8060 h4        1 0T3      0.042100
     25 H8          1.1070   -2.2380   -0.0780 hc        1 0T3      0.050367
     26 H9         -0.6150   -2.7100    0.2550 hc        1 0T3      0.050367
     27 H10         4.2040    1.5680    2.5410 ha        1 0T3      0.145500
     28 H11         6.6020    1.1010    2.0800 ha        1 0T3      0.148500
     29 H12         5.5400   -2.8120    0.5440 ha        1 0T3      0.148500
     30 H13         3.1400   -2.3370    0.9960 ha        1 0T3      0.145500
@<TRIPOS>BOND
     1    1    2 3   
     2    1   19 1   
     3    2   21 1   
     4    3    4 1   
     5    3   10 1   
     6    3   20 1   
     7    3   22 1   
     8    4    5 1   
     9    4    8 1   
    10    5    6 2   
    11    5   23 1   
    12    6    7 1   
    13    7    8 2   
    14    7   24 1   
    15    8    9 1   
    16    9   18 1   
    17    9   25 1   
    18    9   26 1   
    19   10   11 ar  
    20   10   15 ar  
    21   11   12 ar  
    22   11   27 1   
    23   12   13 ar  
    24   12   28 1   
    25   13   14 ar  
    26   13   16 1   
    27   14   15 ar  
    28   14   29 1   
    29   15   30 1   
    30   16   17 3   
@<TRIPOS>SUBSTRUCTURE
     1 0T3         1 TEMP              0 ****  ****    0 ROOT
