@<TRIPOS>MOLECULE
0T3
   30    30     1     0     0
SMALL
bcc


@<TRIPOS>ATOM
      1 C01         0.8020    1.0900   -1.2520 c1        1 0T3     -0.162000
      2 C02         0.9600    2.2740   -1.2930 c1        1 0T3     -0.162000
      3 C03         1.9990   -0.0670    2.0500 c3        1 0T3      0.079600
      4 N04         1.2390   -1.0990    2.6880 na        1 0T3     -0.207900
      5 C05         1.2700   -1.4390    4.0500 cc        1 0T3      0.397400
      6 N06         0.4610   -2.4840    4.3180 nd        1 0T3     -0.664000
      7 C07        -0.1070   -2.8480    3.1000 cd        1 0T3      0.298200
      8 C08         0.3630   -2.0100    2.0680 cc        1 0T3     -0.215900
      9 C09         0.0170   -2.0180    0.6400 c3        1 0T3     -0.024800
     10 C10         3.4460   -0.3890    1.7940 ca        1 0T3     -0.091300
     11 C11         4.4190    0.5720    2.0880 ca        1 0T3     -0.121500
     12 C12         5.7620    0.3200    1.8170 ca        1 0T3     -0.089500
     13 C13         6.1410   -0.9060    1.2530 ca        1 0T3     -0.011000
     14 C14         5.1690   -1.8730    0.9620 ca        1 0T3     -0.089500
     15 C15         3.8280   -1.6110    1.2300 ca        1 0T3     -0.121500
     16 C16         7.5110   -1.1680    0.9770 cg        1 0T3      0.229800
     17 N17         8.6320   -1.3820    0.7510 n1        1 0T3     -0.355800
     18 H1          0.6580    0.0380   -1.2270 ha        1 0T3      0.162000
     19 H2          0.9330   -2.0870    0.0000 hc        1 0T3      0.049033
     20 H3          1.0990    3.3260   -1.3300 ha        1 0T3      0.162000
     21 H4          1.5140    0.1680    1.0530 h1        1 0T3      0.074700
     22 H5          1.9350    0.8590    2.6950 h1        1 0T3      0.074700
     23 H6          1.8810   -0.8960    4.7770 h5        1 0T3      0.062100
     24 H7         -0.8130   -3.6740    3.0230 h4        1 0T3      0.042100
     25 H8         -0.6360   -2.9010    0.4250 hc        1 0T3      0.049033
     26 H9         -0.5400   -1.0880    0.3590 hc        1 0T3      0.049033
     27 H10         4.1280    1.5360    2.5340 ha        1 0T3      0.144500
     28 H11         6.5240    1.0800    2.0480 ha        1 0T3      0.148500
     29 H12         5.4650   -2.8380    0.5220 ha        1 0T3      0.148500
     30 H13         3.0670   -2.3740    1.0010 ha        1 0T3      0.144500
@<TRIPOS>BOND
     1    1    2 3   
     2    1   18 1   
     3    2   20 1   
     4    3    4 1   
     5    3   10 1   
     6    3   21 1   
     7    3   22 1   
     8    4    5 1   
     9    4    8 1   
    10    5    6 2   
    11    5   23 1   
    12    6    7 1   
    13    7    8 2   
    14    7   24 1   
    15    8    9 1   
    16    9   19 1   
    17    9   25 1   
    18    9   26 1   
    19   10   11 ar  
    20   10   15 ar  
    21   11   12 ar  
    22   11   27 1   
    23   12   13 ar  
    24   12   28 1   
    25   13   14 ar  
    26   13   16 1   
    27   14   15 ar  
    28   14   29 1   
    29   15   30 1   
    30   16   17 3   
@<TRIPOS>SUBSTRUCTURE
     1 0T3         1 TEMP              0 ****  ****    0 ROOT
