@<TRIPOS>MOLECULE
0T3
   30    25     1     0     0
SMALL
bcc


@<TRIPOS>ATOM
      1 C01        -1.2180    0.8800   -1.8420 c3        1 0T3     -0.161000
      2 C02         0.1930    0.8990   -1.7700 c3        1 0T3     -0.161000
      3 C03         0.7650    0.8730   -0.4590 c3        1 0T3      0.075000
      4 N04         0.0120    1.6490    0.6370 n3        1 0T3     -0.161000
      5 C05         0.3340    2.0640    1.8800 c1        1 0T3     -0.090000
      6 N06        -0.7170    2.8770    2.3550 n2        1 0T3     -0.140000
      7 C07        -1.6930    2.9480    1.3650 c1        1 0T3     -0.171000
      8 C08        -1.2710    2.2060    0.3040 c1        1 0T3     -0.115000
      9 C09        -1.8950    1.8310   -1.1000 c2        1 0T3     -0.091000
     10 C10         0.8660   -0.6020   -0.0140 c1        1 0T3     -0.080000
     11 C11        -0.1950   -1.2000    0.6480 c1        1 0T3     -0.102000
     12 C12        -0.1010   -2.5210    1.0580 c1        1 0T3     -0.102000
     13 C13         1.0550   -3.2440    0.8060 c1        1 0T3     -0.008000
     14 C14         2.1160   -2.6460    0.1430 c1        1 0T3     -0.091000
     15 C15         2.0210   -1.3250   -0.2670 c1        1 0T3     -0.130000
     16 C16         1.1420   -4.6990    1.2170 c1        1 0T3     -0.099000
     17 N17         1.2080   -5.7940    1.5280 n1        1 0T3     -0.030000
     18 H1         -1.5230   -0.0050   -1.5490 hc        1 0T3      0.091500
     19 H2         -1.4730    0.9940   -2.7820 hc        1 0T3      0.091500
     20 H3          0.4880    1.7350   -2.1920 hc        1 0T3      0.098500
     21 H4          0.5120    0.0970   -2.2350 hc        1 0T3      0.098500
     22 H5          1.6710    1.2360   -0.5180 h1        1 0T3      0.107000
     23 H6          1.1500    1.8400    2.3650 DU        1 0T3      0.189500
     24 H7         -2.5320    3.4430    1.4220 DU        1 0T3      0.189500
     25 H8         -1.9500    2.6500   -1.6350 ha        1 0T3      0.099500
     26 H9         -2.8060    1.5040   -0.9490 ha        1 0T3      0.099500
     27 H10        -1.0090   -0.6900    0.8260 ha        1 0T3      0.152000
     28 H11        -0.8490   -2.9420    1.5240 ha        1 0T3      0.152000
     29 H12         2.9290   -3.1560   -0.0340 ha        1 0T3      0.148000
     30 H13         2.7680   -0.9040   -0.7330 ha        1 0T3      0.140000
@<TRIPOS>BOND
     1    1    2 1   
     2    1    9 1   
     3    1   18 1   
     4    1   19 1   
     5    2    3 1   
     6    2   20 1   
     7    2   21 1   
     8    3    4 1   
     9    3   10 1   
    10    3   22 1   
    11    4    5 1   
    12    4    8 1   
    13    5    6 1   
    14    6    7 1   
    15    7    8 1   
    16    9   25 1   
    17    9   26 1   
    18   10   15 1   
    19   11   12 1   
    20   11   27 1   
    21   12   28 1   
    22   13   14 1   
    23   14   29 1   
    24   15   30 1   
    25   16   17 1   
@<TRIPOS>SUBSTRUCTURE
     1 0T3         1 TEMP              0 ****  ****    0 ROOT
