@<TRIPOS>MOLECULE
0T4
   38    34     1     0     0
SMALL
bcc


@<TRIPOS>ATOM
      1 O15        -2.2420   -0.4950    0.2770 o         1 0T4     -0.361000
      2 C14        -1.0270   -0.5110    0.2870 c1        1 0T4      0.346000
      3 C4         -0.2770   -0.5450    1.6090 c2        1 0T4     -0.104000
      4 C5          1.1090   -0.5470    1.6200 c1        1 0T4     -0.079000
      5 C6          1.7930   -0.5810    2.8270 c2        1 0T4     -0.149000
      6 C7          3.3050   -0.5120    2.8410 c3        1 0T4      0.467000
      7 F29         3.6970    0.7470    2.6080 f         1 0T4     -0.163667
      8 F27         3.7580   -0.9060    4.0380 f         1 0T4     -0.163667
      9 F28         3.7980   -1.3160    1.8900 f         1 0T4     -0.163667
     10 C1          1.0900   -0.6150    4.0210 c1        1 0T4     -0.085000
     11 C3         -0.9800   -0.5780    2.8040 c2        1 0T4     -0.078000
     12 C2         -0.2960   -0.6130    4.0100 c1        1 0T4     -0.033000
     13 N8         -1.0150   -0.7030    5.2310 n3        1 0T4     -0.106000
     14 O10        -0.3420   -0.8780    6.4110 oh        1 0T4     -0.264000
     15 N13        -0.3040   -0.4810   -0.9420 n2        1 0T4     -0.365000
     16 C12        -0.9970   -0.6070   -2.1780 c3        1 0T4      0.058000
     17 C13        -0.4560   -1.7960   -2.9400 c3        1 0T4     -0.219000
     18 C20        -0.8000    0.6480   -2.9970 c2        1 0T4     -0.104000
     19 C21        -1.8820    1.4690   -3.2780 c2        1 0T4     -0.112000
     20 C22        -1.7090    2.6000   -4.0610 c1        1 0T4     -0.129000
     21 C23        -0.4550    2.9100   -4.5630 c1        1 0T4     -0.124000
     22 C24         0.6260    2.0900   -4.2830 c1        1 0T4     -0.129000
     23 C25         0.4540    0.9580   -3.5000 c2        1 0T4     -0.124000
     24 H1          1.6030   -0.5510    0.7790 DU        1 0T4      0.145500
     25 H2          1.5710   -0.6390    4.8710 ha        1 0T4      0.165000
     26 H3         -1.9560   -0.5770    2.7960 ha        1 0T4      0.167000
     27 H6          0.5970   -0.3420   -0.9370 hn        1 0T4      0.224000
     28 H7         -1.9510   -0.7380   -2.0060 h1        1 0T4      0.135000
     29 H8          0.3120   -2.1700   -2.4590 hc        1 0T4      0.084333
     30 H9         -0.1730   -1.5100   -3.8350 hc        1 0T4      0.084333
     31 H10        -1.1550   -2.4780   -3.0200 hc        1 0T4      0.084333
     32 H11        -2.7650    1.2500   -2.9240 ha        1 0T4      0.140000
     33 H12        -2.4710    3.1780   -4.2580 ha        1 0T4      0.134000
     34 H13        -0.3330    3.7070   -5.1150 ha        1 0T4      0.133000
     35 H14         1.5090    2.3080   -4.6360 DU        1 0T4      0.145500
     36 H15         1.2150    0.3810   -3.3020 ha        1 0T4      0.127000
     37 H141       -1.9280   -0.6710    5.2260 hn        1 0T4      0.188000
     38 H151       -0.9220   -0.8840    7.0850 ho        1 0T4      0.229000
@<TRIPOS>BOND
     1    1    2 1   
     2    2    3 1   
     3    3    4 1   
     4    3   11 1   
     5    4    5 1   
     6    5    6 1   
     7    5   10 1   
     8    6    7 1   
     9    6    8 1   
    10    6    9 1   
    11   10   25 1   
    12   11   12 1   
    13   11   26 1   
    14   12   13 1   
    15   13   14 1   
    16   13   37 1   
    17   14   38 1   
    18   15   16 1   
    19   15   27 1   
    20   16   17 1   
    21   16   18 1   
    22   16   28 1   
    23   17   29 1   
    24   17   30 1   
    25   17   31 1   
    26   18   19 1   
    27   18   23 1   
    28   19   20 1   
    29   19   32 1   
    30   20   33 1   
    31   21   22 1   
    32   21   34 1   
    33   22   23 1   
    34   23   36 1   
@<TRIPOS>SUBSTRUCTURE
     1 0T4         1 TEMP              0 ****  ****    0 ROOT
