@<TRIPOS>MOLECULE
0T4
   40    41     1     0     0
SMALL
bcc


@<TRIPOS>ATOM
      1 O15         3.6130   -2.7660   -0.5380 o         1 0T4     -0.393100
      2 C14         3.4220   -1.5560   -0.4890 c         1 0T4      0.550700
      3 C4          3.3610   -0.7640    0.7590 ca        1 0T4     -0.169600
      4 C5          2.7730    0.5020    0.8390 ca        1 0T4     -0.002000
      5 C6          2.7370    1.1730    2.0650 ca        1 0T4     -0.149300
      6 C7          2.0970    2.5750    2.1360 c3        1 0T4      0.697200
      7 F29         1.5620    2.8610    3.3620 f         1 0T4     -0.199967
      8 F27         2.9910    3.5780    1.8730 f         1 0T4     -0.199967
      9 F28         1.0810    2.7400    1.2330 f         1 0T4     -0.199967
     10 C1          3.2800    0.6080    3.2180 ca        1 0T4     -0.006000
     11 C3          3.9040   -1.3670    1.9080 ca        1 0T4      0.021000
     12 C2          3.8500   -0.6760    3.1290 ca        1 0T4     -0.043400
     13 N8          4.3980   -1.3000    4.3590 n4        1 0T4     -0.407900
     14 O10         5.5240   -1.9850    4.0240 oh        1 0T4     -0.356300
     15 N13         3.2640   -0.8470   -1.7920 n4        1 0T4     -0.685800
     16 C12         1.7880   -0.7300   -2.2250 c3        1 0T4      0.223800
     17 C13         1.3510   -1.9750   -2.9780 c3        1 0T4     -0.135100
     18 C20         1.6330    0.5240   -3.0190 ca        1 0T4     -0.213300
     19 C21         0.9470    1.6100   -2.4560 ca        1 0T4     -0.104000
     20 C22         0.7430    2.7680   -3.2040 ca        1 0T4     -0.110500
     21 C23         1.2290    2.8530   -4.5110 ca        1 0T4     -0.061000
     22 C24         1.9220    1.7770   -5.0700 ca        1 0T4     -0.110500
     23 C25         2.1230    0.6140   -4.3290 ca        1 0T4     -0.104000
     24 H1          2.3120    0.9950   -0.0410 ha        1 0T4      0.188000
     25 H2          3.2390    1.1790    4.1680 ha        1 0T4      0.202000
     26 H3          4.3670   -2.3720    1.8350 ha        1 0T4      0.210000
     27 H6          3.6680    0.0950   -1.7400 hn        1 0T4      0.470800
     28 H7          1.1950   -0.6540   -1.2620 hx        1 0T4      0.090700
     29 H8          1.9050   -2.1020   -3.9400 hc        1 0T4      0.090700
     30 H9          1.4800   -2.8950   -2.3550 hc        1 0T4      0.090700
     31 H10         0.2620   -1.8610   -3.2220 hc        1 0T4      0.090700
     32 H11         0.5370    1.5480   -1.4350 ha        1 0T4      0.136000
     33 H12         0.1870    3.6140   -2.7670 ha        1 0T4      0.171000
     34 H13         1.0600    3.7690   -5.1040 ha        1 0T4      0.175000
     35 H14         2.3000    1.8420   -6.1040 ha        1 0T4      0.171000
     36 H15         2.6500   -0.2360   -4.7900 ha        1 0T4      0.136000
     37 H141        4.6090   -0.5540    5.0530 hn        1 0T4      0.486300
     38 H151        5.9590   -2.3120    4.8490 ho        1 0T4      0.494000
     39 H82         3.6840   -1.9540    4.7430 hn        1 0T4      0.486300
     40 H132        3.7630   -1.3780   -2.5220 hn        1 0T4      0.470800
@<TRIPOS>BOND
     1    1    2 2   
     2    2    3 1   
     3    2   15 1   
     4    3    4 ar  
     5    3   11 ar  
     6    4    5 ar  
     7    4   24 1   
     8    5    6 1   
     9    5   10 ar  
    10    6    7 1   
    11    6    8 1   
    12    6    9 1   
    13   10   12 ar  
    14   10   25 1   
    15   11   12 ar  
    16   11   26 1   
    17   12   13 1   
    18   13   14 1   
    19   13   37 1   
    20   13   39 1   
    21   14   38 1   
    22   15   16 1   
    23   15   27 1   
    24   15   40 1   
    25   16   17 1   
    26   16   18 1   
    27   16   28 1   
    28   17   29 1   
    29   17   30 1   
    30   17   31 1   
    31   18   19 ar  
    32   18   23 ar  
    33   19   20 ar  
    34   19   32 1   
    35   20   21 ar  
    36   20   33 1   
    37   21   22 ar  
    38   21   34 1   
    39   22   23 ar  
    40   22   35 1   
    41   23   36 1   
@<TRIPOS>SUBSTRUCTURE
     1 0T4         1 TEMP              0 ****  ****    0 ROOT
