@<TRIPOS>MOLECULE
0T4
   38    39     1     0     0
SMALL
bcc


@<TRIPOS>ATOM
      1 O15         0.5080   -2.1820   -0.7740 o         1 0T4     -0.595100
      2 C14         0.4900   -1.1190   -0.1220 c         1 0T4      0.673700
      3 C4         -0.7220   -0.2420   -0.1080 ca        1 0T4     -0.123600
      4 C5         -1.9740   -0.8530    0.0020 ca        1 0T4     -0.053000
      5 C6         -3.1190   -0.0570   -0.0020 ca        1 0T4     -0.155300
      6 C7         -4.4920   -0.7070    0.1420 c3        1 0T4      0.689200
      7 F29        -4.9410   -0.7820    1.4390 f         1 0T4     -0.233967
      8 F27        -5.5020   -0.0560   -0.5230 f         1 0T4     -0.233967
      9 F28        -4.5650   -2.0000   -0.3140 f         1 0T4     -0.233967
     10 C1         -3.0360    1.3280   -0.1260 ca        1 0T4     -0.091000
     11 C3         -0.6150    1.1430   -0.2370 ca        1 0T4     -0.098000
     12 C2         -1.7730    1.9450   -0.2420 ca        1 0T4      0.048600
     13 N8         -1.7060    3.3840   -0.2490 nh        1 0T4     -0.446100
     14 O10        -0.5220    3.8460   -0.6750 oh        1 0T4     -0.414300
     15 N13         1.5570   -0.7180    0.6520 n         1 0T4     -0.561900
     16 C12         2.8240   -1.4200    0.6590 c3        1 0T4      0.144000
     17 C13         3.1800   -1.9680    2.0450 c3        1 0T4     -0.103100
     18 C20         3.9530   -0.5420    0.1660 ca        1 0T4     -0.108300
     19 C21         4.6400   -0.8890   -1.0020 ca        1 0T4     -0.119500
     20 C22         5.6900   -0.0920   -1.4580 ca        1 0T4     -0.129500
     21 C23         6.0550    1.0560   -0.7560 ca        1 0T4     -0.124000
     22 C24         5.3670    1.4080    0.4060 ca        1 0T4     -0.129500
     23 C25         4.3190    0.6120    0.8650 ca        1 0T4     -0.119500
     24 H1         -2.0490   -1.9520    0.0710 ha        1 0T4      0.175000
     25 H2         -3.9610    1.9280   -0.1340 ha        1 0T4      0.158000
     26 H3          0.3720    1.6180   -0.3620 ha        1 0T4      0.156000
     27 H6          1.5200    0.1540    1.1220 hn        1 0T4      0.310500
     28 H7          2.7190   -2.3060   -0.0430 h1        1 0T4      0.095700
     29 H8          3.2770   -1.1460    2.7940 hc        1 0T4      0.045367
     30 H9          2.3980   -2.6830    2.3950 hc        1 0T4      0.045367
     31 H10         4.1560   -2.5050    1.9780 hc        1 0T4      0.045367
     32 H11         4.3520   -1.7910   -1.5630 ha        1 0T4      0.133500
     33 H12         6.2290   -0.3710   -2.3760 ha        1 0T4      0.133500
     34 H13         6.8820    1.6840   -1.1180 ha        1 0T4      0.134000
     35 H14         5.6530    2.3130    0.9610 ha        1 0T4      0.133500
     36 H15         3.7860    0.8890    1.7870 ha        1 0T4      0.133500
     37 H141       -2.4100    3.7350   -0.9000 hn        1 0T4      0.389800
     38 H151       -0.0760    4.1700    0.1330 ho        1 0T4      0.428000
@<TRIPOS>BOND
     1    1    2 2   
     2    2    3 1   
     3    2   15 1   
     4    3    4 ar  
     5    3   11 ar  
     6    4    5 ar  
     7    4   24 1   
     8    5    6 1   
     9    5   10 ar  
    10    6    7 1   
    11    6    8 1   
    12    6    9 1   
    13   10   12 ar  
    14   10   25 1   
    15   11   12 ar  
    16   11   26 1   
    17   12   13 1   
    18   13   14 1   
    19   13   37 1   
    20   14   38 1   
    21   15   16 1   
    22   15   27 1   
    23   16   17 1   
    24   16   18 1   
    25   16   28 1   
    26   17   29 1   
    27   17   30 1   
    28   17   31 1   
    29   18   19 ar  
    30   18   23 ar  
    31   19   20 ar  
    32   19   32 1   
    33   20   21 ar  
    34   20   33 1   
    35   21   22 ar  
    36   21   34 1   
    37   22   23 ar  
    38   22   35 1   
    39   23   36 1   
@<TRIPOS>SUBSTRUCTURE
     1 0T4         1 TEMP              0 ****  ****    0 ROOT
