@<TRIPOS>MOLECULE
0T4
   39    40     1     0     0
SMALL
bcc


@<TRIPOS>ATOM
      1 O15         0.3340    1.5350    0.0080 o         1 0T4     -0.413100
      2 C14         1.4400    1.0230    0.1080 c         1 0T4      0.569700
      3 C4          2.0990    0.5470    1.3310 ca        1 0T4     -0.180600
      4 C5          1.2760    0.0510    2.3490 ca        1 0T4     -0.030000
      5 C6          1.8640   -0.4080    3.5300 ca        1 0T4     -0.145300
      6 C7          0.9670   -0.9920    4.6280 c3        1 0T4      0.691200
      7 F29         0.7110   -2.3290    4.4610 f         1 0T4     -0.216967
      8 F27         1.4900   -0.8860    5.8900 f         1 0T4     -0.216967
      9 F28        -0.2690   -0.4040    4.7020 f         1 0T4     -0.216967
     10 C1          3.2400   -0.3590    3.7180 ca        1 0T4     -0.047000
     11 C3          3.4890    0.6150    1.5030 ca        1 0T4     -0.111000
     12 C2          4.0720    0.1730    2.7020 ca        1 0T4      0.087600
     13 N8          5.4680    0.3510    2.9800 nh        1 0T4     -0.439100
     14 O10         6.1810    0.6060    1.8760 oh        1 0T4     -0.421300
     15 N13         2.2140    0.8460   -1.1790 n4        1 0T4     -0.683800
     16 C12         1.3650    0.2800   -2.3090 c3        1 0T4      0.200800
     17 C13         1.0400   -1.1870   -2.0770 c3        1 0T4     -0.125100
     18 C20         2.0810    0.5030   -3.6060 ca        1 0T4     -0.188300
     19 C21         1.5650    1.4280   -4.5210 ca        1 0T4     -0.104500
     20 C22         2.2010    1.6220   -5.7470 ca        1 0T4     -0.117000
     21 C23         3.3540    0.9020   -6.0600 ca        1 0T4     -0.080000
     22 C24         3.8730   -0.0180   -5.1450 ca        1 0T4     -0.117000
     23 C25         3.2390   -0.2190   -3.9220 ca        1 0T4     -0.104500
     24 H1          0.1780    0.0290    2.2280 ha        1 0T4      0.184000
     25 H2          3.6740   -0.7210    4.6700 ha        1 0T4      0.186000
     26 H3          4.1450    1.0430    0.7270 ha        1 0T4      0.150000
     27 H6          3.0110    0.2210   -1.0210 hn        1 0T4      0.458300
     28 H7          0.3990    0.8770   -2.2940 hx        1 0T4      0.122700
     29 H8          0.4550   -1.3250   -1.1350 hc        1 0T4      0.077367
     30 H9          0.4120   -1.5400   -2.9360 hc        1 0T4      0.077367
     31 H10         1.9590   -1.8210   -2.0370 hc        1 0T4      0.077367
     32 H11         0.6490    1.9950   -4.2870 ha        1 0T4      0.138500
     33 H12         1.7870    2.3430   -6.4700 ha        1 0T4      0.160000
     34 H13         3.8540    1.0550   -7.0300 ha        1 0T4      0.162000
     35 H14         4.7810   -0.5910   -5.3950 ha        1 0T4      0.160000
     36 H15         3.6440   -0.9610   -3.2160 ha        1 0T4      0.138500
     37 H141        5.8380   -0.4990    3.4090 hn        1 0T4      0.408800
     38 H151        6.6060    1.4710    2.0490 ho        1 0T4      0.449000
     39 H132        2.5690    1.7610   -1.4790 hn        1 0T4      0.458300
@<TRIPOS>BOND
     1    1    2 2   
     2    2    3 1   
     3    2   15 1   
     4    3    4 ar  
     5    3   11 ar  
     6    4    5 ar  
     7    4   24 1   
     8    5    6 1   
     9    5   10 ar  
    10    6    7 1   
    11    6    8 1   
    12    6    9 1   
    13   10   12 ar  
    14   10   25 1   
    15   11   12 ar  
    16   11   26 1   
    17   12   13 1   
    18   13   14 1   
    19   13   37 1   
    20   14   38 1   
    21   15   16 1   
    22   15   27 1   
    23   15   39 1   
    24   16   17 1   
    25   16   18 1   
    26   16   28 1   
    27   17   29 1   
    28   17   30 1   
    29   17   31 1   
    30   18   19 ar  
    31   18   23 ar  
    32   19   20 ar  
    33   19   32 1   
    34   20   21 ar  
    35   20   33 1   
    36   21   22 ar  
    37   21   34 1   
    38   22   23 ar  
    39   22   35 1   
    40   23   36 1   
@<TRIPOS>SUBSTRUCTURE
     1 0T4         1 TEMP              0 ****  ****    0 ROOT
