@<TRIPOS>MOLECULE
0T4
   39    40     1     0     0
SMALL
bcc


@<TRIPOS>ATOM
      1 O15         0.3200    1.5280   -0.0210 o         1 0T4     -0.413100
      2 C14         1.4290    1.0240    0.0930 c         1 0T4      0.569700
      3 C4          2.0790    0.5570    1.3240 ca        1 0T4     -0.180600
      4 C5          1.2480    0.0590    2.3350 ca        1 0T4     -0.030000
      5 C6          1.8270   -0.3910    3.5240 ca        1 0T4     -0.145300
      6 C7          0.9220   -0.9760    4.6150 c3        1 0T4      0.691200
      7 F29         0.6750   -2.3160    4.4510 f         1 0T4     -0.216967
      8 F27         1.4310   -0.8630    5.8830 f         1 0T4     -0.216967
      9 F28        -0.3190   -0.3950    4.6750 f         1 0T4     -0.216967
     10 C1          3.2000   -0.3330    3.7270 ca        1 0T4     -0.047000
     11 C3          3.4650    0.6350    1.5100 ca        1 0T4     -0.111000
     12 C2          4.0400    0.2010    2.7170 ca        1 0T4      0.087600
     13 N8          5.4310    0.3890    3.0090 nu        1 0T4     -0.439100
     14 O10         6.1530    0.6440    1.9110 oh        1 0T4     -0.421300
     15 N13         2.2160    0.8460   -1.1850 ny        1 0T4     -0.683800
     16 C12         1.3850    0.2620   -2.3190 c3        1 0T4      0.200800
     17 C13         1.0740   -1.2070   -2.0780 c3        1 0T4     -0.125100
     18 C20         2.1100    0.4830   -3.6110 ca        1 0T4     -0.188300
     19 C21         1.5920    1.3950   -4.5380 ca        1 0T4     -0.104500
     20 C22         2.2370    1.5870   -5.7600 ca        1 0T4     -0.117000
     21 C23         3.4010    0.8770   -6.0560 ca        1 0T4     -0.080000
     22 C24         3.9220   -0.0300   -5.1300 ca        1 0T4     -0.117000
     23 C25         3.2790   -0.2290   -3.9110 ca        1 0T4     -0.104500
     24 H1          0.1510    0.0300    2.2040 ha        1 0T4      0.184000
     25 H2          3.6260   -0.6880    4.6840 ha        1 0T4      0.186000
     26 H3          4.1270    1.0640    0.7390 ha        1 0T4      0.150000
     27 H6          3.0190    0.2320   -1.0160 hn        1 0T4      0.458300
     28 H7          0.4120    0.8480   -2.3170 hx        1 0T4      0.122700
     29 H8          0.4820   -1.3450   -1.1400 hc        1 0T4      0.077367
     30 H9          0.4590   -1.5730   -2.9400 hc        1 0T4      0.077367
     31 H10         2.0000   -1.8300   -2.0250 hc        1 0T4      0.077367
     32 H11         0.6680    1.9530   -4.3160 ha        1 0T4      0.138500
     33 H12         1.8210    2.2980   -6.4920 ha        1 0T4      0.160000
     34 H13         3.9080    1.0280   -7.0230 ha        1 0T4      0.162000
     35 H14         4.8380   -0.5940   -5.3670 ha        1 0T4      0.160000
     36 H15         3.6850   -0.9610   -3.1960 ha        1 0T4      0.138500
     37 H141        5.8020   -0.4570    3.4440 hn        1 0T4      0.408800
     38 H151        6.5710    1.5130    2.0850 ho        1 0T4      0.449000
     39 H132        2.5640    1.7630   -1.4900 hn        1 0T4      0.458300
@<TRIPOS>BOND
     1    1    2 2   
     2    2    3 1   
     3    2   15 1   
     4    3    4 ar  
     5    3   11 ar  
     6    4    5 ar  
     7    4   24 1   
     8    5    6 1   
     9    5   10 ar  
    10    6    7 1   
    11    6    8 1   
    12    6    9 1   
    13   10   12 ar  
    14   10   25 1   
    15   11   12 ar  
    16   11   26 1   
    17   12   13 1   
    18   13   14 1   
    19   13   37 1   
    20   14   38 1   
    21   15   16 1   
    22   15   27 1   
    23   15   39 1   
    24   16   17 1   
    25   16   18 1   
    26   16   28 1   
    27   17   29 1   
    28   17   30 1   
    29   17   31 1   
    30   18   19 ar  
    31   18   23 ar  
    32   19   20 ar  
    33   19   32 1   
    34   20   21 ar  
    35   20   33 1   
    36   21   22 ar  
    37   21   34 1   
    38   22   23 ar  
    39   22   35 1   
    40   23   36 1   
@<TRIPOS>SUBSTRUCTURE
     1 0T4         1 TEMP              0 ****  ****    0 ROOT
