@<TRIPOS>MOLECULE
0T5
   37    38     1     0     0
SMALL
bcc


@<TRIPOS>ATOM
      1 O38         0.0130   -0.4920    0.0150 o         1 0T5     -0.196500
      2 N8          1.2120   -0.4210    0.0280 no        1 0T5      0.317200
      3 O10         1.8500   -0.4390    1.0440 o         1 0T5     -0.196500
      4 C2          1.9330   -0.3020   -1.2690 ca        1 0T5     -0.190200
      5 C1          3.3290   -0.1630   -1.2720 ca        1 0T5     -0.007000
      6 C6          3.9880   -0.0560   -2.4980 ca        1 0T5     -0.186300
      7 C7          5.5090    0.0730   -2.5210 c3        1 0T5      0.693200
      8 F28         6.0000    0.7630   -3.6010 f         1 0T5     -0.227633
      9 F27         6.0360    0.7210   -1.4310 f         1 0T5     -0.227633
     10 F29         6.1690   -1.1310   -2.5540 f         1 0T5     -0.227633
     11 C5          3.2790   -0.0830   -3.7000 ca        1 0T5      0.004000
     12 C3          1.2020   -0.3290   -2.4700 ca        1 0T5     -0.024000
     13 C4          1.8840   -0.2080   -3.6800 ca        1 0T5     -0.149600
     14 C14         1.1710   -0.2510   -4.9970 c         1 0T5      0.672700
     15 O15         1.6930   -0.8220   -5.9760 o         1 0T5     -0.591100
     16 N13        -0.0330    0.4080   -5.0840 n         1 0T5     -0.554900
     17 C12        -0.8710    0.3430   -6.2680 c3        1 0T5      0.144000
     18 C13        -1.1900    1.7340   -6.8250 c3        1 0T5     -0.102100
     19 C20        -2.1630   -0.3960   -6.0000 ca        1 0T5     -0.115300
     20 C25        -2.4380   -1.5800   -6.6910 ca        1 0T5     -0.119000
     21 C24        -3.6310   -2.2640   -6.4590 ca        1 0T5     -0.128000
     22 C23        -4.5510   -1.7730   -5.5330 ca        1 0T5     -0.122000
     23 C22        -4.2770   -0.5950   -4.8380 ca        1 0T5     -0.128000
     24 C21        -3.0870    0.0920   -5.0700 ca        1 0T5     -0.119000
     25 H11         3.8980   -0.1380   -0.3240 ha        1 0T5      0.192000
     26 H51         3.8080   -0.0130   -4.6690 ha        1 0T5      0.187000
     27 H31         0.1050   -0.4610   -2.4380 ha        1 0T5      0.180000
     28 H131       -0.4390    0.8020   -4.2690 hn        1 0T5      0.311500
     29 H121       -0.2870   -0.2210   -7.0610 h1        1 0T5      0.096700
     30 H132       -1.8210    1.6160   -7.7380 hc        1 0T5      0.047033
     31 H134       -0.2510    2.2700   -7.1030 hc        1 0T5      0.047033
     32 H133       -1.7500    2.3510   -6.0820 hc        1 0T5      0.047033
     33 H251       -1.7120   -1.9760   -7.4180 ha        1 0T5      0.133500
     34 H241       -3.8440   -3.1930   -7.0070 ha        1 0T5      0.135500
     35 H231       -5.4910   -2.3150   -5.3490 ha        1 0T5      0.135000
     36 H221       -5.0000   -0.2070   -4.1050 ha        1 0T5      0.135500
     37 H211       -2.8800    1.0260   -4.5260 ha        1 0T5      0.133500
@<TRIPOS>BOND
     1    1    2 1   
     2    2    3 1   
     3    2    4 1   
     4    4    5 ar  
     5    4   12 ar  
     6    5    6 ar  
     7    5   25 1   
     8    6    7 1   
     9    6   11 ar  
    10    7    8 1   
    11    7    9 1   
    12    7   10 1   
    13   11   13 ar  
    14   11   26 1   
    15   12   13 ar  
    16   12   27 1   
    17   13   14 1   
    18   14   15 2   
    19   14   16 1   
    20   16   17 1   
    21   16   28 1   
    22   17   18 1   
    23   17   19 1   
    24   17   29 1   
    25   18   30 1   
    26   18   31 1   
    27   18   32 1   
    28   19   20 ar  
    29   19   24 ar  
    30   20   21 ar  
    31   20   33 1   
    32   21   22 ar  
    33   21   34 1   
    34   22   23 ar  
    35   22   35 1   
    36   23   24 ar  
    37   23   36 1   
    38   24   37 1   
@<TRIPOS>SUBSTRUCTURE
     1 0T5         1 TEMP              0 ****  ****    0 ROOT
