@<TRIPOS>MOLECULE
0T5
   38    39     1     0     0
SMALL
bcc


@<TRIPOS>ATOM
      1 O38         0.4480   -0.7120    0.2560 o         1 0T5     -0.166000
      2 N8          1.5920   -0.3590    0.1770 no        1 0T5      0.320200
      3 O10         2.2750   -0.0900    1.1200 o         1 0T5     -0.166000
      4 C2          2.1890   -0.2470   -1.1920 ca        1 0T5     -0.182200
      5 C1          3.5030    0.2280   -1.3450 ca        1 0T5      0.036000
      6 C6          4.0340    0.3210   -2.6320 ca        1 0T5     -0.175300
      7 C7          5.4750    0.8160   -2.8250 c3        1 0T5      0.695200
      8 F28         5.6620    1.4970   -4.0000 f         1 0T5     -0.210633
      9 F27         5.8990    1.6700   -1.8410 f         1 0T5     -0.210633
     10 F29         6.3960   -0.1980   -2.8480 f         1 0T5     -0.210633
     11 C5          3.2850   -0.0450   -3.7490 ca        1 0T5      0.023000
     12 C3          1.4180   -0.6210   -2.3000 ca        1 0T5     -0.023000
     13 C4          1.9660   -0.5060   -3.5820 ca        1 0T5     -0.208600
     14 C14         1.2360   -0.8960   -4.7970 c         1 0T5      0.565700
     15 O15         1.7280   -1.2810   -5.8490 o         1 0T5     -0.407100
     16 N13        -0.2670   -0.8060   -4.7480 ny        1 0T5     -0.682800
     17 C12        -0.8740   -0.2110   -6.0170 c3        1 0T5      0.204800
     18 C13        -0.5950    1.2800   -6.1140 c3        1 0T5     -0.127100
     19 C20        -2.3390   -0.5210   -6.0300 ca        1 0T5     -0.194300
     20 C25        -2.8320   -1.4470   -6.9580 ca        1 0T5     -0.103000
     21 C24        -4.1990   -1.7210   -7.0060 ca        1 0T5     -0.116000
     22 C23        -5.0730   -1.0810   -6.1260 ca        1 0T5     -0.076000
     23 C22        -4.5810   -0.1620   -5.1970 ca        1 0T5     -0.116000
     24 C21        -3.2180    0.1200   -5.1480 ca        1 0T5     -0.103000
     25 H11         4.1050    0.5240   -0.4600 ha        1 0T5      0.217000
     26 H51         3.7270    0.0250   -4.7620 ha        1 0T5      0.195000
     27 H31         0.4020   -1.0230   -2.1250 ha        1 0T5      0.172000
     28 H131       -0.6510   -1.7530   -4.6320 hn        1 0T5      0.460800
     29 H121       -0.3570   -0.7400   -6.8790 hx        1 0T5      0.124700
     30 H132       -1.0630    1.6540   -7.0610 hc        1 0T5      0.078367
     31 H134        0.5030    1.4820   -6.1620 hc        1 0T5      0.078367
     32 H133       -1.0400    1.8490   -5.2620 hc        1 0T5      0.078367
     33 H251       -2.1500   -1.9490   -7.6620 ha        1 0T5      0.138500
     34 H241       -4.5860   -2.4420   -7.7440 ha        1 0T5      0.162000
     35 H231       -6.1530   -1.2980   -6.1670 ha        1 0T5      0.164000
     36 H221       -5.2730    0.3470   -4.5050 ha        1 0T5      0.162000
     37 H211       -2.8440    0.8620   -4.4260 ha        1 0T5      0.138500
     38 H135       -0.5600   -0.2350   -3.9490 hn        1 0T5      0.460800
@<TRIPOS>BOND
     1    1    2 1   
     2    2    3 1   
     3    2    4 1   
     4    4    5 ar  
     5    4   12 ar  
     6    5    6 ar  
     7    5   25 1   
     8    6    7 1   
     9    6   11 ar  
    10    7    8 1   
    11    7    9 1   
    12    7   10 1   
    13   11   13 ar  
    14   11   26 1   
    15   12   13 ar  
    16   12   27 1   
    17   13   14 1   
    18   14   15 2   
    19   14   16 1   
    20   16   17 1   
    21   16   28 1   
    22   16   38 1   
    23   17   18 1   
    24   17   19 1   
    25   17   29 1   
    26   18   30 1   
    27   18   31 1   
    28   18   32 1   
    29   19   20 ar  
    30   19   24 ar  
    31   20   21 ar  
    32   20   33 1   
    33   21   22 ar  
    34   21   34 1   
    35   22   23 ar  
    36   22   35 1   
    37   23   24 ar  
    38   23   36 1   
    39   24   37 1   
@<TRIPOS>SUBSTRUCTURE
     1 0T5         1 TEMP              0 ****  ****    0 ROOT
