@<TRIPOS>MOLECULE
0T5
   38    39     1     0     0
SMALL
bcc


@<TRIPOS>ATOM
      1 O38         0.4280   -0.7090    0.2580 o         1 0T5     -0.166000
      2 N8          1.5710   -0.3510    0.1830 no        1 0T5      0.320200
      3 O10         2.2470   -0.0770    1.1280 o         1 0T5     -0.166000
      4 C2          2.1730   -0.2380   -1.1830 ca        1 0T5     -0.182200
      5 C1          3.4850    0.2430   -1.3310 ca        1 0T5      0.036000
      6 C6          4.0210    0.3370   -2.6170 ca        1 0T5     -0.175300
      7 C7          5.4600    0.8390   -2.8030 c3        1 0T5      0.695200
      8 F28         5.6490    1.5190   -3.9790 f         1 0T5     -0.210633
      9 F27         5.8760    1.6970   -1.8200 f         1 0T5     -0.210633
     10 F29         6.3870   -0.1700   -2.8200 f         1 0T5     -0.210633
     11 C5          3.2790   -0.0360   -3.7360 ca        1 0T5      0.023000
     12 C3          1.4080   -0.6190   -2.2940 ca        1 0T5     -0.023000
     13 C4          1.9620   -0.5030   -3.5740 ca        1 0T5     -0.208600
     14 C14         1.2390   -0.8990   -4.7910 c         1 0T5      0.565700
     15 O15         1.7380   -1.2850   -5.8400 o         1 0T5     -0.407100
     16 N13        -0.2640   -0.8140   -4.7510 n4        1 0T5     -0.682800
     17 C12        -0.8650   -0.2110   -6.0180 c3        1 0T5      0.204800
     18 C13        -0.5900    1.2820   -6.1020 c3        1 0T5     -0.127100
     19 C20        -2.3280   -0.5260   -6.0440 ca        1 0T5     -0.194300
     20 C25        -2.8120   -1.4450   -6.9830 ca        1 0T5     -0.103000
     21 C24        -4.1780   -1.7230   -7.0430 ca        1 0T5     -0.116000
     22 C23        -5.0600   -1.0940   -6.1640 ca        1 0T5     -0.076000
     23 C22        -4.5780   -0.1810   -5.2230 ca        1 0T5     -0.116000
     24 C21        -3.2160    0.1050   -5.1630 ca        1 0T5     -0.103000
     25 H11         4.0820    0.5440   -0.4440 ha        1 0T5      0.217000
     26 H51         3.7250    0.0350   -4.7470 ha        1 0T5      0.195000
     27 H31         0.3940   -1.0250   -2.1230 ha        1 0T5      0.172000
     28 H131       -0.6460   -1.7630   -4.6450 hn        1 0T5      0.460800
     29 H121       -0.3410   -0.7310   -6.8810 hx        1 0T5      0.124700
     30 H132       -1.0530    1.6620   -7.0490 hc        1 0T5      0.078367
     31 H134        0.5070    1.4880   -6.1400 hc        1 0T5      0.078367
     32 H133       -1.0440    1.8430   -5.2480 hc        1 0T5      0.078367
     33 H251       -2.1240   -1.9400   -7.6870 ha        1 0T5      0.138500
     34 H241       -4.5580   -2.4390   -7.7900 ha        1 0T5      0.162000
     35 H231       -6.1390   -1.3140   -6.2140 ha        1 0T5      0.164000
     36 H221       -5.2760    0.3200   -4.5330 ha        1 0T5      0.162000
     37 H211       -2.8490    0.8420   -4.4320 ha        1 0T5      0.138500
     38 H135       -0.5650   -0.2500   -3.9490 hn        1 0T5      0.460800
@<TRIPOS>BOND
     1    1    2 1   
     2    2    3 1   
     3    2    4 1   
     4    4    5 ar  
     5    4   12 ar  
     6    5    6 ar  
     7    5   25 1   
     8    6    7 1   
     9    6   11 ar  
    10    7    8 1   
    11    7    9 1   
    12    7   10 1   
    13   11   13 ar  
    14   11   26 1   
    15   12   13 ar  
    16   12   27 1   
    17   13   14 1   
    18   14   15 2   
    19   14   16 1   
    20   16   17 1   
    21   16   28 1   
    22   16   38 1   
    23   17   18 1   
    24   17   19 1   
    25   17   29 1   
    26   18   30 1   
    27   18   31 1   
    28   18   32 1   
    29   19   20 ar  
    30   19   24 ar  
    31   20   21 ar  
    32   20   33 1   
    33   21   22 ar  
    34   21   34 1   
    35   22   23 ar  
    36   22   35 1   
    37   23   24 ar  
    38   23   36 1   
    39   24   37 1   
@<TRIPOS>SUBSTRUCTURE
     1 0T5         1 TEMP              0 ****  ****    0 ROOT
