@<TRIPOS>MOLECULE
0T5
   37    38     1     0     0
SMALL
bcc


@<TRIPOS>ATOM
      1 O38         0.6440   -3.7140   -0.1630 o         1 0T5     -0.196500
      2 N8          1.7050   -3.1540   -0.2210 no        1 0T5      0.317200
      3 O10         2.7450   -3.7470   -0.3080 o         1 0T5     -0.196500
      4 C2          1.7300   -1.6660   -0.1770 ca        1 0T5     -0.190200
      5 C1          2.9620   -0.9960   -0.1890 ca        1 0T5     -0.007000
      6 C6          2.9650    0.3990   -0.1500 ca        1 0T5     -0.186300
      7 C7          4.2960    1.1460   -0.1850 c3        1 0T5      0.693200
      8 F28         4.2770    2.3620    0.4500 f         1 0T5     -0.227633
      9 F27         5.3370    0.4690    0.4010 f         1 0T5     -0.227633
     10 F29         4.7430    1.4280   -1.4530 f         1 0T5     -0.227633
     11 C5          1.7700    1.1190   -0.0990 ca        1 0T5      0.004000
     12 C3          0.5160   -0.9580   -0.1240 ca        1 0T5     -0.024000
     13 C4          0.5480    0.4360   -0.0740 ca        1 0T5     -0.149600
     14 C14        -0.7060    1.2540   -0.0380 c         1 0T5      0.672700
     15 O15        -0.7700    2.3340   -0.6600 o         1 0T5     -0.591100
     16 N13        -1.7380    0.7930    0.7460 n         1 0T5     -0.554900
     17 C12        -3.0400    1.4340    0.7740 c3        1 0T5      0.144000
     18 C13        -3.4510    1.8420    2.1920 c3        1 0T5     -0.102100
     19 C20        -4.1120    0.5510    0.1770 ca        1 0T5     -0.115300
     20 C25        -4.7940    0.9690   -0.9700 ca        1 0T5     -0.119000
     21 C24        -5.7930    0.1670   -1.5220 ca        1 0T5     -0.128000
     22 C23        -6.1090   -1.0590   -0.9370 ca        1 0T5     -0.122000
     23 C22        -5.4270   -1.4820    0.2040 ca        1 0T5     -0.128000
     24 C21        -4.4310   -0.6800    0.7600 ca        1 0T5     -0.119000
     25 H11         3.9130   -1.5600   -0.2260 ha        1 0T5      0.192000
     26 H51         1.7780    2.2250   -0.0850 ha        1 0T5      0.187000
     27 H31        -0.4400   -1.5120   -0.1370 ha        1 0T5      0.180000
     28 H131       -1.6670   -0.0970    1.1790 hn        1 0T5      0.311500
     29 H121       -2.9600    2.3800    0.1510 h1        1 0T5      0.096700
     30 H132       -3.5290    0.9550    2.8630 hc        1 0T5      0.047033
     31 H134       -2.7120    2.5580    2.6240 hc        1 0T5      0.047033
     32 H133       -4.4490    2.3410    2.1430 hc        1 0T5      0.047033
     33 H251       -4.5430    1.9330   -1.4400 ha        1 0T5      0.133500
     34 H241       -6.3280    0.5020   -2.4220 ha        1 0T5      0.135500
     35 H231       -6.8950   -1.6920   -1.3750 ha        1 0T5      0.135000
     36 H221       -5.6740   -2.4490    0.6660 ha        1 0T5      0.135500
     37 H211       -3.9020   -1.0150    1.6650 ha        1 0T5      0.133500
@<TRIPOS>BOND
     1    1    2 1   
     2    2    3 1   
     3    2    4 1   
     4    4    5 ar  
     5    4   12 ar  
     6    5    6 ar  
     7    5   25 1   
     8    6    7 1   
     9    6   11 ar  
    10    7    8 1   
    11    7    9 1   
    12    7   10 1   
    13   11   13 ar  
    14   11   26 1   
    15   12   13 ar  
    16   12   27 1   
    17   13   14 1   
    18   14   15 2   
    19   14   16 1   
    20   16   17 1   
    21   16   28 1   
    22   17   18 1   
    23   17   19 1   
    24   17   29 1   
    25   18   30 1   
    26   18   31 1   
    27   18   32 1   
    28   19   20 ar  
    29   19   24 ar  
    30   20   21 ar  
    31   20   33 1   
    32   21   22 ar  
    33   21   34 1   
    34   22   23 ar  
    35   22   35 1   
    36   23   24 ar  
    37   23   36 1   
    38   24   37 1   
@<TRIPOS>SUBSTRUCTURE
     1 0T5         1 TEMP              0 ****  ****    0 ROOT
