@<TRIPOS>MOLECULE
0T5
   37    34     1     0     0
SMALL
bcc


@<TRIPOS>ATOM
      1 O38        -0.2340    1.1040    4.2890 o         1 0T5     -0.478200
      2 N8          1.0070    0.5440    4.2380 no        1 0T5      0.835400
      3 O10         1.5450    0.1560    5.2650 o         1 0T5     -0.478200
      4 C2          1.7030    0.4820    3.0090 c2        1 0T5     -0.145000
      5 C1          3.0900    0.5040    2.9970 c1        1 0T5     -0.008000
      6 C6          3.7730    0.5320    1.7910 c1        1 0T5     -0.179000
      7 C7          5.2860    0.6120    1.7790 c3        1 0T5      0.472000
      8 F28         5.7430    0.2370    0.5790 f         1 0T5     -0.156333
      9 F27         5.6680    1.8710    2.0310 f         1 0T5     -0.156333
     10 F29         5.7830   -0.2030    2.7210 f         1 0T5     -0.156333
     11 C5          3.0690    0.5370    0.5950 c1        1 0T5      0.004000
     12 C3          0.9990    0.4870    1.8120 c2        1 0T5     -0.024000
     13 C4          1.6820    0.5150    0.6060 c1        1 0T5     -0.129000
     14 C14         0.9060    0.5980   -0.7080 c2        1 0T5      0.346000
     15 O15         1.5060    0.6830   -1.7650 o         1 0T5     -0.352000
     16 N13        -0.5280    0.5250   -0.7010 n         1 0T5     -0.364000
     17 C12        -1.2480    0.4620   -1.9380 c3        1 0T5      0.060000
     18 C13        -1.9610    1.7720   -2.1730 c3        1 0T5     -0.220000
     19 C20        -2.2560   -0.6540   -1.8760 c2        1 0T5     -0.108000
     20 C25        -2.0500   -1.8130   -2.6060 c2        1 0T5     -0.112000
     21 C24        -3.0090   -2.8140   -2.6020 c1        1 0T5     -0.128000
     22 C23        -4.1740   -2.6560   -1.8670 c1        1 0T5     -0.122000
     23 C22        -4.3790   -1.4970   -1.1370 c1        1 0T5     -0.128000
     24 C21        -3.4210   -0.4960   -1.1410 c2        1 0T5     -0.126000
     25 H11         3.5860    0.4620    3.8380 ha        1 0T5      0.192000
     26 H51         3.5500    0.5570   -0.2540 ha        1 0T5      0.187000
     27 H31         0.0230    0.4720    1.8200 ha        1 0T5      0.180000
     28 H131       -0.9840    0.5420    0.0930 hn        1 0T5      0.225000
     29 H121       -0.6210    0.2960   -2.6710 h1        1 0T5      0.136000
     30 H132       -2.4460    2.0290   -1.3620 hc        1 0T5      0.086333
     31 H134       -2.5950    1.6700   -2.9150 hc        1 0T5      0.086333
     32 H133       -1.3060    2.4640   -2.3960 hc        1 0T5      0.086333
     33 H251       -1.2290   -1.9250   -3.1250 ha        1 0T5      0.140000
     34 H241       -2.8640   -3.6290   -3.1160 ha        1 0T5      0.136000
     35 H231       -4.8480   -3.3610   -1.8640 ha        1 0T5      0.135000
     36 H221       -5.2000   -1.3860   -0.6190 DU        1 0T5      0.135000
     37 H211       -3.5660    0.3210   -0.6260 ha        1 0T5      0.127000
@<TRIPOS>BOND
     1    1    2 2   
     2    2    3 2   
     3    2    4 1   
     4    4    5 1   
     5    4   12 1   
     6    5   25 1   
     7    6    7 1   
     8    6   11 1   
     9    7    8 1   
    10    7    9 1   
    11    7   10 1   
    12   11   26 1   
    13   12   13 1   
    14   12   27 1   
    15   13   14 1   
    16   14   15 1   
    17   14   16 1   
    18   16   17 1   
    19   16   28 1   
    20   17   18 1   
    21   17   19 1   
    22   17   29 1   
    23   18   30 1   
    24   18   31 1   
    25   18   32 1   
    26   19   20 1   
    27   19   24 1   
    28   20   21 1   
    29   20   33 1   
    30   21   34 1   
    31   22   23 1   
    32   22   35 1   
    33   23   24 1   
    34   24   37 1   
@<TRIPOS>SUBSTRUCTURE
     1 0T5         1 TEMP              0 ****  ****    0 ROOT
