@<TRIPOS>MOLECULE
0T6
   40    32     1     0     0
SMALL
bcc


@<TRIPOS>ATOM
      1 C1         -3.8580    1.3590   -1.4710 c3        1 0T6     -0.026900
      2 C2         -2.3500    1.2100   -1.2820 ce        1 0T6      0.395400
      3 C3         -1.6870    1.2190   -0.0580 c1        1 0T6      0.130500
      4 N1         -1.8660    1.9770    1.0890 n1        1 0T6      0.010000
      5 N2         -1.0590    1.7850    2.1670 n1        1 0T6      0.010000
      6 C4         -0.0740    0.8460    2.1210 c1        1 0T6     -0.210000
      7 C5          0.1040    0.0960    0.9890 cg        1 0T6      0.177000
      8 N3         -0.7190    0.2940   -0.1060 ne        1 0T6     -0.376400
      9 C6         -0.7610   -0.3020   -1.3500 c1        1 0T6      0.359800
     10 N4         -1.7730    0.2750   -2.0610 n1        1 0T6     -0.930500
     11 C7         -0.3500   -0.3750   -2.8280 c1        1 0T6     -0.025000
     12 C8         -0.6350   -1.5160   -3.5730 c1        1 0T6     -0.056000
     13 C9         -0.3410   -1.5500   -4.9330 c1        1 0T6     -0.056000
     14 C10         0.2380   -0.4450   -5.5480 c1        1 0T6     -0.056000
     15 C11         0.5230    0.6950   -4.8030 c1        1 0T6     -0.056000
     16 C12         0.2290    0.7300   -3.4440 c1        1 0T6      0.053900
     17 CL1         0.5830    2.1620   -2.5100 cl        1 0T6     -0.081900
     18 C13         1.0540   -0.9530    0.9780 c1        1 0T6     -0.155500
     19 C14         1.8090   -1.2220    2.1190 c1        1 0T6      0.150000
     20 C15         1.6280   -0.4600    3.2680 c1        1 0T6     -0.200500
     21 C16         0.6930    0.5720    3.2800 c1        1 0T6      0.223600
     22 O1          0.1520    1.3360    4.3400 os        1 0T6     -0.313400
     23 C17         1.0290    2.3330    4.8350 c3        1 0T6      0.126700
     24 O2          2.8870   -2.1440    2.1800 o         1 0T6     -0.362500
     25 C18         2.6130   -3.3000    2.9620 c3        1 0T6      0.199400
     26 H1         -4.3180    0.6050   -1.0400 hc        1 0T6      0.059033
     27 H2         -4.0690    1.3660   -2.4300 hc        1 0T6      0.059033
     28 H3         -4.1580    2.2010   -1.0640 hc        1 0T6      0.059033
     29 H4         -1.0440   -2.2960   -3.1400 ha        1 0T6      0.089250
     30 H5         -0.5420   -2.3550   -5.4590 ha        1 0T6      0.089250
     31 H6          0.4460   -0.4700   -6.5080 ha        1 0T6      0.089250
     32 H7          0.9320    1.4750   -5.2370 ha        1 0T6      0.089250
     33 H8          1.1820   -1.4900    0.1690 ha        1 0T6      0.115500
     34 H9          2.1600   -0.6500    4.0720 ha        1 0T6      0.105500
     35 H10         0.9810    3.1270    4.2590 h1        1 0T6      0.054033
     36 H11         1.9480    1.9880    4.8410 h1        1 0T6      0.054033
     37 H12         0.7650    2.5770    5.7500 h1        1 0T6      0.054033
     38 H13         3.4320   -3.8370    3.0510 h1        1 0T6      0.051700
     39 H14         2.3020   -3.0270    3.8530 h1        1 0T6      0.051700
     40 H15         1.9160   -3.8350    2.5220 h1        1 0T6      0.051700
@<TRIPOS>BOND
     1    1    2 1   
     2    1   26 1   
     3    1   27 1   
     4    1   28 1   
     5    2    3 2   
     6    2   10 1   
     7    3    8 2   
     8    4    5 3   
     9    6   21 3   
    10    7    8 1   
    11    7   18 3   
    12    9   10 3   
    13   11   16 3   
    14   12   13 3   
    15   12   29 1   
    16   13   30 1   
    17   14   15 3   
    18   14   31 1   
    19   15   32 1   
    20   16   17 1   
    21   18   33 1   
    22   19   20 3   
    23   20   34 1   
    24   21   22 1   
    25   22   23 1   
    26   23   35 1   
    27   23   36 1   
    28   23   37 1   
    29   24   25 1   
    30   25   38 1   
    31   25   39 1   
    32   25   40 1   
@<TRIPOS>SUBSTRUCTURE
     1 0T6         1 TEMP              0 ****  ****    0 ROOT
