@<TRIPOS>MOLECULE
0T6
   40    43     1     0     0
SMALL
bcc


@<TRIPOS>ATOM
      1 C1          0.0230    0.0730    0.0040 c3        1 0T6     -0.025900
      2 C2          1.4950    0.0470    0.0110 cc        1 0T6      0.103400
      3 C3          2.3290    0.0300    1.1570 cd        1 0T6      0.205500
      4 N1          2.0510    0.0370    2.5410 nd        1 0T6     -0.235000
      5 N2          2.9590    0.0260    3.3680 nc        1 0T6     -0.242000
      6 C4          4.3340    0.0100    2.9850 ca        1 0T6      0.207600
      7 C5          4.7240    0.0010    1.5960 ca        1 0T6      0.042400
      8 N3          3.6810    0.0020    0.6630 na        1 0T6     -0.210000
      9 C6          3.5860    0.0000   -0.7390 cd        1 0T6      0.439400
     10 N4          2.2860    0.0300   -1.1360 nc        1 0T6     -0.541300
     11 C7          4.7300   -0.0270   -1.6570 ca        1 0T6     -0.106900
     12 C8          5.1560    1.1670   -2.2500 ca        1 0T6     -0.085000
     13 C9          6.2120    1.1590   -3.1600 ca        1 0T6     -0.136000
     14 C10         6.8430   -0.0410   -3.4870 ca        1 0T6     -0.105000
     15 C11         6.4230   -1.2370   -2.9090 ca        1 0T6     -0.132000
     16 C12         5.3630   -1.2340   -1.9940 ca        1 0T6      0.042400
     17 CL1         4.8590   -2.7020   -1.3080 cl        1 0T6     -0.070400
     18 C13         6.0770   -0.0030    1.2290 ca        1 0T6     -0.223000
     19 C14         7.0540   -0.0040    2.2330 ca        1 0T6      0.205100
     20 C15         6.7150   -0.0020    3.5920 ca        1 0T6     -0.310000
     21 C16         5.3670    0.0050    3.9630 ca        1 0T6      0.174800
     22 O1          4.9530    0.0100    5.2730 os        1 0T6     -0.289900
     23 C17         5.9690   -0.0010    6.2720 c3        1 0T6      0.107700
     24 O2          8.3480   -0.0060    1.7640 os        1 0T6     -0.316900
     25 C18         9.3840   -0.0220    2.7420 c3        1 0T6      0.110700
     26 H1         -0.3780   -0.8480   -0.4920 hc        1 0T6      0.058700
     27 H2         -0.3680    0.1190    1.0500 hc        1 0T6      0.058700
     28 H3         -0.3480    0.9650   -0.5620 hc        1 0T6      0.058700
     29 H4          4.6460    2.1100   -1.9980 ha        1 0T6      0.151000
     30 H5          6.5420    2.1010   -3.6230 ha        1 0T6      0.142000
     31 H6          7.6750   -0.0470   -4.2070 ha        1 0T6      0.141000
     32 H7          6.9180   -2.1840   -3.1730 ha        1 0T6      0.152000
     33 H8          6.3870   -0.0090    0.1730 ha        1 0T6      0.173000
     34 H9          7.5010   -0.0050    4.3580 ha        1 0T6      0.152000
     35 H10         6.5910   -0.9250    6.1940 h1        1 0T6      0.050367
     36 H11         5.3820    0.0010    7.2260 h1        1 0T6      0.050367
     37 H12         6.6060    0.9140    6.1990 h1        1 0T6      0.050367
     38 H13         9.3200   -0.9440    3.3690 h1        1 0T6      0.049700
     39 H14         9.3380    0.8940    3.3790 h1        1 0T6      0.049700
     40 H15        10.3180   -0.0280    2.1240 h1        1 0T6      0.049700
@<TRIPOS>BOND
     1    1    2 1   
     2    1   26 1   
     3    1   27 1   
     4    1   28 1   
     5    2    3 2   
     6    2   10 1   
     7    3    4 1   
     8    3    8 1   
     9    4    5 2   
    10    5    6 1   
    11    6    7 ar  
    12    6   21 ar  
    13    7    8 1   
    14    7   18 ar  
    15    8    9 1   
    16    9   10 2   
    17    9   11 1   
    18   11   12 ar  
    19   11   16 ar  
    20   12   13 ar  
    21   12   29 1   
    22   13   14 ar  
    23   13   30 1   
    24   14   15 ar  
    25   14   31 1   
    26   15   16 ar  
    27   15   32 1   
    28   16   17 1   
    29   18   19 ar  
    30   18   33 1   
    31   19   20 ar  
    32   19   24 1   
    33   20   21 ar  
    34   20   34 1   
    35   21   22 1   
    36   22   23 1   
    37   23   35 1   
    38   23   36 1   
    39   23   37 1   
    40   24   25 1   
    41   25   38 1   
    42   25   39 1   
    43   25   40 1   
@<TRIPOS>SUBSTRUCTURE
     1 0T6         1 TEMP              0 ****  ****    0 ROOT
