@<TRIPOS>MOLECULE
0T6
   40    43     1     0     0
SMALL
bcc


@<TRIPOS>ATOM
      1 C1          1.7980    4.5250    0.4210 c3        1 0T6     -0.025900
      2 C2          1.4560    3.0930    0.3960 cc        1 0T6      0.103400
      3 C3          0.1590    2.5420    0.2470 cd        1 0T6      0.205500
      4 N1         -1.1160    3.1290    0.0930 nd        1 0T6     -0.235000
      5 N2         -2.1240    2.4340   -0.0120 nc        1 0T6     -0.242000
      6 C4         -2.0670    1.0070    0.0170 ca        1 0T6      0.207600
      7 C5         -0.8130    0.3110    0.1700 ca        1 0T6      0.042400
      8 N3          0.3290    1.1130    0.2780 na        1 0T6     -0.210000
      9 C6          1.7060    0.8860    0.4390 cd        1 0T6      0.439400
     10 N4          2.3850    2.0620    0.5130 nc        1 0T6     -0.541300
     11 C7          2.3330   -0.4380    0.5190 ca        1 0T6     -0.106900
     12 C8          2.6740   -0.9540    1.7740 ca        1 0T6     -0.085000
     13 C9          3.3120   -2.1890    1.8730 ca        1 0T6     -0.136000
     14 C10         3.6180   -2.9120    0.7200 ca        1 0T6     -0.105000
     15 C11         3.2910   -2.4040   -0.5360 ca        1 0T6     -0.132000
     16 C12         2.6500   -1.1640   -0.6400 ca        1 0T6      0.042400
     17 CL1         2.2680   -0.5580   -2.1790 cl        1 0T6     -0.070400
     18 C13        -0.7690   -1.0890    0.2100 ca        1 0T6     -0.223000
     19 C14        -1.9640   -1.8110    0.0930 ca        1 0T6      0.205100
     20 C15        -3.2000   -1.1710   -0.0620 ca        1 0T6     -0.310000
     21 C16        -3.2490    0.2250   -0.1000 ca        1 0T6      0.174800
     22 O1         -4.4210    0.9270   -0.2470 os        1 0T6     -0.289900
     23 C17        -5.6190    0.1660   -0.3720 c3        1 0T6      0.107700
     24 O2         -1.8070   -3.1780    0.1470 os        1 0T6     -0.316900
     25 C18        -2.9890   -3.9640    0.0180 c3        1 0T6      0.110700
     26 H1          2.3280    4.7820    1.3730 hc        1 0T6      0.058700
     27 H2          2.4750    4.7760   -0.4350 hc        1 0T6      0.058700
     28 H3          0.8720    5.1450    0.3430 hc        1 0T6      0.058700
     29 H4          2.4420   -0.3750    2.6810 ha        1 0T6      0.151000
     30 H5          3.5770   -2.5910    2.8620 ha        1 0T6      0.142000
     31 H6          4.1250   -3.8860    0.7980 ha        1 0T6      0.141000
     32 H7          3.5400   -2.9730   -1.4450 ha        1 0T6      0.152000
     33 H8          0.1810   -1.6330    0.3260 ha        1 0T6      0.173000
     34 H9         -4.1200   -1.7620   -0.1530 ha        1 0T6      0.152000
     35 H10        -5.5830   -0.4830   -1.2800 h1        1 0T6      0.050367
     36 H11        -5.7970   -0.4450    0.5460 h1        1 0T6      0.050367
     37 H12        -6.4070    0.9550   -0.4800 h1        1 0T6      0.050367
     38 H13        -3.6970   -3.7490    0.8550 h1        1 0T6      0.049700
     39 H14        -3.4760   -3.7830   -0.9700 h1        1 0T6      0.049700
     40 H15        -2.6060   -5.0140    0.0850 h1        1 0T6      0.049700
@<TRIPOS>BOND
     1    1    2 1   
     2    1   26 1   
     3    1   27 1   
     4    1   28 1   
     5    2    3 2   
     6    2   10 1   
     7    3    4 1   
     8    3    8 1   
     9    4    5 2   
    10    5    6 1   
    11    6    7 ar  
    12    6   21 ar  
    13    7    8 1   
    14    7   18 ar  
    15    8    9 1   
    16    9   10 2   
    17    9   11 1   
    18   11   12 ar  
    19   11   16 ar  
    20   12   13 ar  
    21   12   29 1   
    22   13   14 ar  
    23   13   30 1   
    24   14   15 ar  
    25   14   31 1   
    26   15   16 ar  
    27   15   32 1   
    28   16   17 1   
    29   18   19 ar  
    30   18   33 1   
    31   19   20 ar  
    32   19   24 1   
    33   20   21 ar  
    34   20   34 1   
    35   21   22 1   
    36   22   23 1   
    37   23   35 1   
    38   23   36 1   
    39   23   37 1   
    40   24   25 1   
    41   25   38 1   
    42   25   39 1   
    43   25   40 1   
@<TRIPOS>SUBSTRUCTURE
     1 0T6         1 TEMP              0 ****  ****    0 ROOT
