@<TRIPOS>MOLECULE
0T6
   40    43     1     0     0
SMALL
bcc


@<TRIPOS>ATOM
      1 C1          0.0210    0.0610    0.0090 c3        1 0T6     -0.025900
      2 C2          1.4940    0.0380    0.0150 cc        1 0T6      0.103400
      3 C3          2.3300    0.0230    1.1600 cd        1 0T6      0.205500
      4 N1          2.0530    0.0300    2.5440 nd        1 0T6     -0.235000
      5 N2          2.9620    0.0210    3.3710 nc        1 0T6     -0.242000
      6 C4          4.3360    0.0080    2.9860 ca        1 0T6      0.207600
      7 C5          4.7250   -0.0010    1.5960 ca        1 0T6      0.042400
      8 N3          3.6810   -0.0020    0.6650 na        1 0T6     -0.210000
      9 C6          3.5840   -0.0030   -0.7370 cd        1 0T6      0.439400
     10 N4          2.2830    0.0240   -1.1330 nc        1 0T6     -0.541300
     11 C7          4.7270   -0.0280   -1.6560 ca        1 0T6     -0.106900
     12 C8          5.1500    1.1670   -2.2490 ca        1 0T6     -0.085000
     13 C9          6.2040    1.1620   -3.1600 ca        1 0T6     -0.136000
     14 C10         6.8380   -0.0360   -3.4880 ca        1 0T6     -0.105000
     15 C11         6.4210   -1.2340   -2.9110 ca        1 0T6     -0.132000
     16 C12         5.3630   -1.2340   -1.9950 ca        1 0T6      0.042400
     17 CL1         4.8620   -2.7030   -1.3090 cl        1 0T6     -0.070400
     18 C13         6.0770   -0.0010    1.2280 ca        1 0T6     -0.223000
     19 C14         7.0550   -0.0000    2.2310 ca        1 0T6      0.205100
     20 C15         6.7170    0.0020    3.5910 ca        1 0T6     -0.310000
     21 C16         5.3700    0.0060    3.9630 ca        1 0T6      0.174800
     22 O1          4.9580    0.0100    5.2730 os        1 0T6     -0.289900
     23 C17         5.9750    0.0020    6.2710 c3        1 0T6      0.107700
     24 O2          8.3490    0.0010    1.7600 os        1 0T6     -0.316900
     25 C18         9.3860   -0.0130    2.7370 c3        1 0T6      0.110700
     26 H1         -0.3520    0.9530   -0.5540 hc        1 0T6      0.058700
     27 H2         -0.3780   -0.8600   -0.4870 hc        1 0T6      0.058700
     28 H3         -0.3680    0.1040    1.0560 hc        1 0T6      0.058700
     29 H4          4.6380    2.1090   -1.9960 ha        1 0T6      0.151000
     30 H5          6.5320    2.1050   -3.6230 ha        1 0T6      0.142000
     31 H6          7.6690   -0.0410   -4.2100 ha        1 0T6      0.141000
     32 H7          6.9180   -2.1790   -3.1760 ha        1 0T6      0.152000
     33 H8          6.3860   -0.0070    0.1720 ha        1 0T6      0.173000
     34 H9          7.5050    0.0000    4.3550 ha        1 0T6      0.152000
     35 H10         6.5990   -0.9210    6.1930 h1        1 0T6      0.050367
     36 H11         5.3890    0.0030    7.2260 h1        1 0T6      0.050367
     37 H12         6.6090    0.9180    6.1960 h1        1 0T6      0.050367
     38 H13         9.3390    0.9030    3.3740 h1        1 0T6      0.049700
     39 H14        10.3190   -0.0170    2.1180 h1        1 0T6      0.049700
     40 H15         9.3240   -0.9350    3.3640 h1        1 0T6      0.049700
@<TRIPOS>BOND
     1    1    2 1   
     2    1   26 1   
     3    1   27 1   
     4    1   28 1   
     5    2    3 2   
     6    2   10 1   
     7    3    4 1   
     8    3    8 1   
     9    4    5 2   
    10    5    6 1   
    11    6    7 ar  
    12    6   21 ar  
    13    7    8 1   
    14    7   18 ar  
    15    8    9 1   
    16    9   10 2   
    17    9   11 1   
    18   11   12 ar  
    19   11   16 ar  
    20   12   13 ar  
    21   12   29 1   
    22   13   14 ar  
    23   13   30 1   
    24   14   15 ar  
    25   14   31 1   
    26   15   16 ar  
    27   15   32 1   
    28   16   17 1   
    29   18   19 ar  
    30   18   33 1   
    31   19   20 ar  
    32   19   24 1   
    33   20   21 ar  
    34   20   34 1   
    35   21   22 1   
    36   22   23 1   
    37   23   35 1   
    38   23   36 1   
    39   23   37 1   
    40   24   25 1   
    41   25   38 1   
    42   25   39 1   
    43   25   40 1   
@<TRIPOS>SUBSTRUCTURE
     1 0T6         1 TEMP              0 ****  ****    0 ROOT
