@<TRIPOS>MOLECULE
0T7
   54    58     1     0     0
SMALL
bcc


@<TRIPOS>ATOM
      1 C1          0.1250   -0.3900   -0.2270 c3        1 0T7     -0.095100
      2 C2          1.6280   -0.3890   -0.1160 c3        1 0T7     -0.087400
      3 C3          2.0650   -0.2820    1.3330 c3        1 0T7     -0.088700
      4 C4          3.5440   -0.1150    1.4470 cc        1 0T7      0.379800
      5 N1          4.3860   -1.1480    1.7320 nd        1 0T7     -0.565300
      6 C5          5.6750   -0.6350    1.7840 cd        1 0T7      0.074400
      7 C6          5.6360    0.7590    1.5260 cc        1 0T7     -0.244600
      8 N2          4.2660    1.0830    1.3000 na        1 0T7     -0.057200
      9 C7          3.9120    2.4100    1.0110 ca        1 0T7     -0.092600
     10 C8          2.5970    2.8230    0.7220 ca        1 0T7     -0.111000
     11 C9          2.3030    4.1530    0.4630 ca        1 0T7     -0.182000
     12 C10         3.3290    5.1090    0.4820 ca        1 0T7      0.121100
     13 C11         4.6500    4.7400    0.7450 ca        1 0T7     -0.180300
     14 C12         4.9690    3.3910    1.0030 ca        1 0T7      0.406600
     15 N3          6.3120    3.0670    1.2360 nd        1 0T7     -0.679000
     16 C13         6.6300    1.8160    1.4770 cc        1 0T7      0.506600
     17 C14         8.0510    1.4250    1.7270 c3        1 0T7     -0.156400
     18 O1          3.1490    6.4540    0.2150 os        1 0T7     -0.328900
     19 C15         1.7840    6.8960    0.1750 c3        1 0T7      0.075100
     20 C16         1.8180    8.4030    0.0740 ca        1 0T7      0.415600
     21 C17         2.8980    9.0140   -0.6470 ca        1 0T7     -0.223300
     22 C18         2.9180   10.3780   -0.7760 ca        1 0T7     -0.084000
     23 C19         1.8720   11.1530   -0.2010 ca        1 0T7     -0.143300
     24 C20         1.8330   12.5670   -0.3030 ca        1 0T7     -0.112000
     25 C21         0.8070   13.2770    0.2680 ca        1 0T7     -0.125000
     26 C22        -0.2240   12.6040    0.9660 ca        1 0T7     -0.124000
     27 C23        -0.2210   11.2380    1.0860 ca        1 0T7     -0.164300
     28 C24         0.8350   10.4640    0.5020 ca        1 0T7      0.397600
     29 N4          0.8260    9.0910    0.6330 nb        1 0T7     -0.659000
     30 C25         6.8650   -1.4590    2.0630 c3        1 0T7     -0.024900
     31 H1         -0.1820   -0.5020   -1.2950 hc        1 0T7      0.036033
     32 H2         -0.3140   -1.2360    0.3570 hc        1 0T7      0.036033
     33 H3         -0.3000    0.5650    0.1650 hc        1 0T7      0.036033
     34 H4          2.0520    0.4620   -0.7130 hc        1 0T7      0.052700
     35 H5          2.0430   -1.3350   -0.5550 hc        1 0T7      0.052700
     36 H6          1.7700   -1.2240    1.8740 hc        1 0T7      0.067700
     37 H7          1.5420    0.5620    1.8540 hc        1 0T7      0.067700
     38 H8          1.7700    2.0960    0.6810 ha        1 0T7      0.150000
     39 H9          1.2660    4.4390    0.2390 ha        1 0T7      0.146000
     40 H10         5.4400    5.5080    0.7450 ha        1 0T7      0.172000
     41 H11         8.7600    2.2620    1.5100 hc        1 0T7      0.062700
     42 H12         8.1650    1.1310    2.8000 hc        1 0T7      0.062700
     43 H13         8.3150    0.5520    1.0800 hc        1 0T7      0.062700
     44 H14         1.2900    6.4760   -0.7430 h1        1 0T7      0.063700
     45 H15         1.2450    6.5490    1.0970 h1        1 0T7      0.063700
     46 H16         3.6870    8.3730   -1.0670 ha        1 0T7      0.161000
     47 H17         3.7280   10.8900   -1.3170 ha        1 0T7      0.141000
     48 H18         2.6420   13.0790   -0.8480 ha        1 0T7      0.135000
     49 H19         0.7730   14.3740    0.1920 ha        1 0T7      0.136000
     50 H20        -1.0360   13.1980    1.4160 ha        1 0T7      0.136000
     51 H21        -1.0250   10.7170    1.6310 ha        1 0T7      0.150000
     52 H22         6.5800   -2.4870    2.3980 hc        1 0T7      0.052367
     53 H23         7.4810   -0.9820    2.8660 hc        1 0T7      0.052367
     54 H24         7.4890   -1.5500    1.1390 hc        1 0T7      0.052367
@<TRIPOS>BOND
     1    1    2 1   
     2    1   31 1   
     3    1   32 1   
     4    1   33 1   
     5    2    3 1   
     6    2   34 1   
     7    2   35 1   
     8    3    4 1   
     9    3   36 1   
    10    3   37 1   
    11    4    5 2   
    12    4    8 1   
    13    5    6 1   
    14    6    7 2   
    15    6   30 1   
    16    7    8 1   
    17    7   16 1   
    18    8    9 1   
    19    9   10 ar  
    20    9   14 ar  
    21   10   11 ar  
    22   10   38 1   
    23   11   12 ar  
    24   11   39 1   
    25   12   13 ar  
    26   12   18 1   
    27   13   14 ar  
    28   13   40 1   
    29   14   15 1   
    30   15   16 2   
    31   16   17 1   
    32   17   41 1   
    33   17   42 1   
    34   17   43 1   
    35   18   19 1   
    36   19   20 1   
    37   19   44 1   
    38   19   45 1   
    39   20   21 ar  
    40   20   29 ar  
    41   21   22 ar  
    42   21   46 1   
    43   22   23 ar  
    44   22   47 1   
    45   23   24 ar  
    46   23   28 ar  
    47   24   25 ar  
    48   24   48 1   
    49   25   26 ar  
    50   25   49 1   
    51   26   27 ar  
    52   26   50 1   
    53   27   28 ar  
    54   27   51 1   
    55   28   29 ar  
    56   30   52 1   
    57   30   53 1   
    58   30   54 1   
@<TRIPOS>SUBSTRUCTURE
     1 0T7         1 TEMP              0 ****  ****    0 ROOT
