@<TRIPOS>MOLECULE
0T7
   54    58     1     0     0
SMALL
bcc


@<TRIPOS>ATOM
      1 C1          0.1250   -0.3850   -0.2330 c3        1 0T7     -0.095100
      2 C2          1.6280   -0.3850   -0.1220 c3        1 0T7     -0.087400
      3 C3          2.0650   -0.2830    1.3270 c3        1 0T7     -0.088700
      4 C4          3.5440   -0.1170    1.4420 cc        1 0T7      0.379800
      5 N1          4.3860   -1.1510    1.7230 nd        1 0T7     -0.565300
      6 C5          5.6750   -0.6380    1.7770 cd        1 0T7      0.074400
      7 C6          5.6360    0.7560    1.5240 cc        1 0T7     -0.244600
      8 N2          4.2660    1.0810    1.2980 na        1 0T7     -0.057200
      9 C7          3.9130    2.4100    1.0140 ca        1 0T7     -0.092600
     10 C8          2.5980    2.8240    0.7260 ca        1 0T7     -0.111000
     11 C9          2.3050    4.1550    0.4710 ca        1 0T7     -0.182000
     12 C10         3.3310    5.1110    0.4940 ca        1 0T7      0.121100
     13 C11         4.6520    4.7400    0.7570 ca        1 0T7     -0.180300
     14 C12         4.9710    3.3900    1.0100 ca        1 0T7      0.406600
     15 N3          6.3140    3.0650    1.2420 nd        1 0T7     -0.679000
     16 C13         6.6300    1.8130    1.4780 cc        1 0T7      0.506600
     17 C14         8.0520    1.4210    1.7270 c3        1 0T7     -0.156400
     18 O1          3.1520    6.4570    0.2340 os        1 0T7     -0.328900
     19 C15         1.7870    6.8970    0.1840 c3        1 0T7      0.075100
     20 C16         1.8200    8.4050    0.0820 ca        1 0T7      0.415600
     21 C17         2.9070    9.0160   -0.6290 ca        1 0T7     -0.223300
     22 C18         2.9270   10.3810   -0.7590 ca        1 0T7     -0.084000
     23 C19         1.8730   11.1550   -0.1950 ca        1 0T7     -0.143300
     24 C20         1.8340   12.5680   -0.2990 ca        1 0T7     -0.112000
     25 C21         0.8000   13.2780    0.2610 ca        1 0T7     -0.125000
     26 C22        -0.2370   12.6040    0.9490 ca        1 0T7     -0.124000
     27 C23        -0.2330   11.2380    1.0700 ca        1 0T7     -0.164300
     28 C24         0.8300   10.4650    0.4970 ca        1 0T7      0.397600
     29 N4          0.8220    9.0910    0.6300 nb        1 0T7     -0.659000
     30 C25         6.8640   -1.4640    2.0540 c3        1 0T7     -0.024900
     31 H1         -0.1820   -0.4930   -1.3010 hc        1 0T7      0.036033
     32 H2         -0.3140   -1.2320    0.3480 hc        1 0T7      0.036033
     33 H3         -0.3000    0.5700    0.1620 hc        1 0T7      0.036033
     34 H4          2.0520    0.4670   -0.7160 hc        1 0T7      0.052700
     35 H5          2.0430   -1.3300   -0.5640 hc        1 0T7      0.052700
     36 H6          1.7700   -1.2260    1.8650 hc        1 0T7      0.068200
     37 H7          1.5420    0.5600    1.8510 hc        1 0T7      0.068200
     38 H8          1.7720    2.0980    0.6830 ha        1 0T7      0.150000
     39 H9          1.2680    4.4420    0.2490 ha        1 0T7      0.146000
     40 H10         5.4420    5.5080    0.7600 ha        1 0T7      0.172000
     41 H11         8.1650    1.1210    2.7990 hc        1 0T7      0.062700
     42 H12         8.3150    0.5500    1.0770 hc        1 0T7      0.062700
     43 H13         8.7610    2.2580    1.5140 hc        1 0T7      0.062700
     44 H14         1.2430    6.5510    1.1020 h1        1 0T7      0.063700
     45 H15         1.2990    6.4770   -0.7370 h1        1 0T7      0.063700
     46 H16         3.7010    8.3760   -1.0400 ha        1 0T7      0.161000
     47 H17         3.7420   10.8930   -1.2920 ha        1 0T7      0.141000
     48 H18         2.6470   13.0810   -0.8360 ha        1 0T7      0.135000
     49 H19         0.7650   14.3750    0.1830 ha        1 0T7      0.136000
     50 H20        -1.0540   13.1960    1.3890 ha        1 0T7      0.136000
     51 H21        -1.0420   10.7160    1.6060 ha        1 0T7      0.150000
     52 H22         6.5790   -2.4940    2.3850 hc        1 0T7      0.052367
     53 H23         7.4810   -0.9910    2.8590 hc        1 0T7      0.052367
     54 H24         7.4890   -1.5520    1.1290 hc        1 0T7      0.052367
@<TRIPOS>BOND
     1    1    2 1   
     2    1   31 1   
     3    1   32 1   
     4    1   33 1   
     5    2    3 1   
     6    2   34 1   
     7    2   35 1   
     8    3    4 1   
     9    3   36 1   
    10    3   37 1   
    11    4    5 2   
    12    4    8 1   
    13    5    6 1   
    14    6    7 2   
    15    6   30 1   
    16    7    8 1   
    17    7   16 1   
    18    8    9 1   
    19    9   10 ar  
    20    9   14 ar  
    21   10   11 ar  
    22   10   38 1   
    23   11   12 ar  
    24   11   39 1   
    25   12   13 ar  
    26   12   18 1   
    27   13   14 ar  
    28   13   40 1   
    29   14   15 1   
    30   15   16 2   
    31   16   17 1   
    32   17   41 1   
    33   17   42 1   
    34   17   43 1   
    35   18   19 1   
    36   19   20 1   
    37   19   44 1   
    38   19   45 1   
    39   20   21 ar  
    40   20   29 ar  
    41   21   22 ar  
    42   21   46 1   
    43   22   23 ar  
    44   22   47 1   
    45   23   24 ar  
    46   23   28 ar  
    47   24   25 ar  
    48   24   48 1   
    49   25   26 ar  
    50   25   49 1   
    51   26   27 ar  
    52   26   50 1   
    53   27   28 ar  
    54   27   51 1   
    55   28   29 ar  
    56   30   52 1   
    57   30   53 1   
    58   30   54 1   
@<TRIPOS>SUBSTRUCTURE
     1 0T7         1 TEMP              0 ****  ****    0 ROOT
