@<TRIPOS>MOLECULE
0T7
   54    58     1     0     0
SMALL
bcc


@<TRIPOS>ATOM
      1 C1         -3.7850    4.7300   -0.8790 c3        1 0T7     -0.095100
      2 C2         -4.2890    3.3120   -0.9620 c3        1 0T7     -0.087400
      3 C3         -4.4800    2.7220    0.4230 c3        1 0T7     -0.088700
      4 C4         -4.8200    1.2700    0.3570 cc        1 0T7      0.379800
      5 N1         -6.0960    0.8030    0.4650 nd        1 0T7     -0.565300
      6 C5         -6.0420   -0.5820    0.3850 cd        1 0T7      0.074400
      7 C6         -4.6940   -0.9910    0.2230 cc        1 0T7     -0.244600
      8 N2         -3.9170    0.2050    0.1950 na        1 0T7     -0.057200
      9 C7         -2.5250    0.1160    0.0390 ca        1 0T7     -0.092600
     10 C8         -1.6760    1.2360   -0.0520 ca        1 0T7     -0.111000
     11 C9         -0.3040    1.0870   -0.1870 ca        1 0T7     -0.182000
     12 C10         0.2550   -0.1980   -0.2380 ca        1 0T7      0.121100
     13 C11        -0.5520   -1.3360   -0.1700 ca        1 0T7     -0.180300
     14 C12        -1.9500   -1.2040   -0.0420 ca        1 0T7      0.406600
     15 N3         -2.7190   -2.3750   -0.0040 nd        1 0T7     -0.679000
     16 C13        -4.0230   -2.2730    0.1140 cc        1 0T7      0.506600
     17 C14        -4.8820   -3.4960    0.1540 c3        1 0T7     -0.156400
     18 O1          1.6050   -0.4570   -0.3940 os        1 0T7     -0.328900
     19 C15         2.4710    0.6750   -0.2310 c3        1 0T7      0.075100
     20 C16         3.8860    0.1440   -0.2390 ca        1 0T7      0.415600
     21 C17         4.1790   -1.0030   -1.0510 ca        1 0T7     -0.223300
     22 C18         5.4670   -1.4700   -1.0950 ca        1 0T7     -0.084000
     23 C19         6.4790   -0.8090   -0.3430 ca        1 0T7     -0.143300
     24 C20         7.8300   -1.2400   -0.3500 ca        1 0T7     -0.112000
     25 C21         8.7750   -0.5750    0.3910 ca        1 0T7     -0.125000
     26 C22         8.4100    0.5500    1.1690 ca        1 0T7     -0.124000
     27 C23         7.1140    0.9970    1.2000 ca        1 0T7     -0.164300
     28 C24         6.1000    0.3260    0.4390 ca        1 0T7      0.397600
     29 N4          4.8000    0.7850    0.4830 nb        1 0T7     -0.659000
     30 C25        -7.2350   -1.4450    0.4560 c3        1 0T7     -0.024900
     31 H1         -3.6790    5.1620   -1.9030 hc        1 0T7      0.036033
     32 H2         -4.4940    5.3680   -0.2980 hc        1 0T7      0.036033
     33 H3         -2.7880    4.7660   -0.3760 hc        1 0T7      0.036033
     34 H4         -5.2680    3.2870   -1.5100 hc        1 0T7      0.052700
     35 H5         -3.5670    2.6870   -1.5520 hc        1 0T7      0.052700
     36 H6         -3.5690    2.8750    1.0600 hc        1 0T7      0.068200
     37 H7         -5.3230    3.2630    0.9370 hc        1 0T7      0.068200
     38 H8         -2.0830    2.2590   -0.0330 ha        1 0T7      0.150000
     39 H9          0.3280    1.9840   -0.2570 ha        1 0T7      0.146000
     40 H10        -0.0900   -2.3340   -0.2230 ha        1 0T7      0.172000
     41 H11        -5.7220   -3.3840   -0.5750 hc        1 0T7      0.062700
     42 H12        -4.3060   -4.4210   -0.0980 hc        1 0T7      0.062700
     43 H13        -5.3060   -3.6090    1.1830 hc        1 0T7      0.062700
     44 H14         2.3330    1.3700   -1.1030 h1        1 0T7      0.063700
     45 H15         2.2280    1.2050    0.7280 h1        1 0T7      0.063700
     46 H16         3.3610   -1.4840   -1.6070 ha        1 0T7      0.161000
     47 H17         5.7370   -2.3480   -1.7000 ha        1 0T7      0.141000
     48 H18         8.1010   -2.1160   -0.9590 ha        1 0T7      0.135000
     49 H19         9.8240   -0.9060    0.3890 ha        1 0T7      0.136000
     50 H20         9.1870    1.0650    1.7540 ha        1 0T7      0.136000
     51 H21         6.8330    1.8710    1.8080 ha        1 0T7      0.150000
     52 H22        -7.4310   -1.9060   -0.5450 hc        1 0T7      0.052367
     53 H23        -7.0730   -2.2630    1.2020 hc        1 0T7      0.052367
     54 H24        -8.1420   -0.8640    0.7590 hc        1 0T7      0.052367
@<TRIPOS>BOND
     1    1    2 1   
     2    1   31 1   
     3    1   32 1   
     4    1   33 1   
     5    2    3 1   
     6    2   34 1   
     7    2   35 1   
     8    3    4 1   
     9    3   36 1   
    10    3   37 1   
    11    4    5 2   
    12    4    8 1   
    13    5    6 1   
    14    6    7 2   
    15    6   30 1   
    16    7    8 1   
    17    7   16 1   
    18    8    9 1   
    19    9   10 ar  
    20    9   14 ar  
    21   10   11 ar  
    22   10   38 1   
    23   11   12 ar  
    24   11   39 1   
    25   12   13 ar  
    26   12   18 1   
    27   13   14 ar  
    28   13   40 1   
    29   14   15 1   
    30   15   16 2   
    31   16   17 1   
    32   17   41 1   
    33   17   42 1   
    34   17   43 1   
    35   18   19 1   
    36   19   20 1   
    37   19   44 1   
    38   19   45 1   
    39   20   21 ar  
    40   20   29 ar  
    41   21   22 ar  
    42   21   46 1   
    43   22   23 ar  
    44   22   47 1   
    45   23   24 ar  
    46   23   28 ar  
    47   24   25 ar  
    48   24   48 1   
    49   25   26 ar  
    50   25   49 1   
    51   26   27 ar  
    52   26   50 1   
    53   27   28 ar  
    54   27   51 1   
    55   28   29 ar  
    56   30   52 1   
    57   30   53 1   
    58   30   54 1   
@<TRIPOS>SUBSTRUCTURE
     1 0T7         1 TEMP              0 ****  ****    0 ROOT
