@<TRIPOS>MOLECULE
0T7
   54    58     1     0     0
SMALL
bcc


@<TRIPOS>ATOM
      1 C1          0.1360   -0.3930   -0.2570 c3        1 0T7     -0.095100
      2 C2          1.6380   -0.3910   -0.1360 c3        1 0T7     -0.087400
      3 C3          2.0650   -0.2840    1.3160 c3        1 0T7     -0.088700
      4 C4          3.5430   -0.1150    1.4410 cc        1 0T7      0.379800
      5 N1          4.3840   -1.1480    1.7300 nd        1 0T7     -0.565300
      6 C5          5.6710   -0.6340    1.7920 cd        1 0T7      0.074400
      7 C6          5.6330    0.7600    1.5350 cc        1 0T7     -0.244600
      8 N2          4.2640    1.0830    1.2990 na        1 0T7     -0.057200
      9 C7          3.9110    2.4100    1.0100 ca        1 0T7     -0.092600
     10 C8          2.5980    2.8220    0.7110 ca        1 0T7     -0.111000
     11 C9          2.3050    4.1520    0.4520 ca        1 0T7     -0.182000
     12 C10         3.3290    5.1090    0.4790 ca        1 0T7      0.121100
     13 C11         4.6490    4.7410    0.7520 ca        1 0T7     -0.180300
     14 C12         4.9680    3.3920    1.0100 ca        1 0T7      0.406600
     15 N3          6.3090    3.0690    1.2520 nd        1 0T7     -0.679000
     16 C13         6.6260    1.8180    1.4940 cc        1 0T7      0.506600
     17 C14         8.0460    1.4280    1.7530 c3        1 0T7     -0.156400
     18 O1          3.1500    6.4540    0.2130 os        1 0T7     -0.328900
     19 C15         1.7850    6.8950    0.1680 c3        1 0T7      0.075100
     20 C16         1.8190    8.4030    0.0720 ca        1 0T7      0.415600
     21 C17         2.9020    9.0170   -0.6410 ca        1 0T7     -0.223300
     22 C18         2.9220   10.3820   -0.7650 ca        1 0T7     -0.084000
     23 C19         1.8730   11.1540   -0.1930 ca        1 0T7     -0.143300
     24 C20         1.8330   12.5690   -0.2910 ca        1 0T7     -0.112000
     25 C21         0.8030   13.2760    0.2780 ca        1 0T7     -0.125000
     26 C22        -0.2310   12.6000    0.9670 ca        1 0T7     -0.124000
     27 C23        -0.2280   11.2330    1.0820 ca        1 0T7     -0.164300
     28 C24         0.8320   10.4620    0.5010 ca        1 0T7      0.397600
     29 N4          0.8230    9.0880    0.6280 nb        1 0T7     -0.659000
     30 C25         6.8600   -1.4570    2.0790 c3        1 0T7     -0.024900
     31 H1         -0.1640   -0.5040   -1.3270 hc        1 0T7      0.036033
     32 H2         -0.3060   -1.2390    0.3230 hc        1 0T7      0.036033
     33 H3         -0.2930    0.5620    0.1320 hc        1 0T7      0.036033
     34 H4          2.0650    0.4610   -0.7290 hc        1 0T7      0.052700
     35 H5          2.0570   -1.3360   -0.5730 hc        1 0T7      0.052700
     36 H6          1.7660   -1.2260    1.8550 hc        1 0T7      0.068200
     37 H7          1.5370    0.5600    1.8340 hc        1 0T7      0.068200
     38 H8          1.7730    2.0950    0.6640 ha        1 0T7      0.150000
     39 H9          1.2690    4.4380    0.2210 ha        1 0T7      0.146000
     40 H10         5.4380    5.5100    0.7580 ha        1 0T7      0.172000
     41 H11         8.7560    2.2660    1.5420 hc        1 0T7      0.062700
     42 H12         8.1530    1.1330    2.8270 hc        1 0T7      0.062700
     43 H13         8.3150    0.5560    1.1080 hc        1 0T7      0.062700
     44 H14         1.2960    6.4790   -0.7540 h1        1 0T7      0.063700
     45 H15         1.2420    6.5450    1.0850 h1        1 0T7      0.063700
     46 H16         3.6940    8.3780   -1.0590 ha        1 0T7      0.161000
     47 H17         3.7350   10.8960   -1.3000 ha        1 0T7      0.141000
     48 H18         2.6440   13.0820   -0.8290 ha        1 0T7      0.135000
     49 H19         0.7690   14.3730    0.2050 ha        1 0T7      0.136000
     50 H20        -1.0450   13.1910    1.4140 ha        1 0T7      0.136000
     51 H21        -1.0340   10.7100    1.6210 ha        1 0T7      0.150000
     52 H22         6.5740   -2.4860    2.4110 hc        1 0T7      0.052367
     53 H23         7.4710   -0.9810    2.8860 hc        1 0T7      0.052367
     54 H24         7.4910   -1.5470    1.1580 hc        1 0T7      0.052367
@<TRIPOS>BOND
     1    1    2 1   
     2    1   31 1   
     3    1   32 1   
     4    1   33 1   
     5    2    3 1   
     6    2   34 1   
     7    2   35 1   
     8    3    4 1   
     9    3   36 1   
    10    3   37 1   
    11    4    5 2   
    12    4    8 1   
    13    5    6 1   
    14    6    7 2   
    15    6   30 1   
    16    7    8 1   
    17    7   16 1   
    18    8    9 1   
    19    9   10 ar  
    20    9   14 ar  
    21   10   11 ar  
    22   10   38 1   
    23   11   12 ar  
    24   11   39 1   
    25   12   13 ar  
    26   12   18 1   
    27   13   14 ar  
    28   13   40 1   
    29   14   15 1   
    30   15   16 2   
    31   16   17 1   
    32   17   41 1   
    33   17   42 1   
    34   17   43 1   
    35   18   19 1   
    36   19   20 1   
    37   19   44 1   
    38   19   45 1   
    39   20   21 ar  
    40   20   29 ar  
    41   21   22 ar  
    42   21   46 1   
    43   22   23 ar  
    44   22   47 1   
    45   23   24 ar  
    46   23   28 ar  
    47   24   25 ar  
    48   24   48 1   
    49   25   26 ar  
    50   25   49 1   
    51   26   27 ar  
    52   26   50 1   
    53   27   28 ar  
    54   27   51 1   
    55   28   29 ar  
    56   30   52 1   
    57   30   53 1   
    58   30   54 1   
@<TRIPOS>SUBSTRUCTURE
     1 0T7         1 TEMP              0 ****  ****    0 ROOT
