@<TRIPOS>MOLECULE
0T7
   54    47     1     0     0
SMALL
bcc


@<TRIPOS>ATOM
      1 C1         -2.9230   -6.1560    0.9940 c3        1 0T7     -0.215000
      2 C2         -1.4700   -5.9700    0.6120 c3        1 0T7     -0.152000
      3 C3         -1.3630   -4.9090   -0.4610 c3        1 0T7     -0.086000
      4 C4          0.0570   -4.3860   -0.5120 c2        1 0T7     -0.023000
      5 N1          0.9310   -5.4250   -0.4520 n2        1 0T7     -0.103000
      6 C5          2.1730   -4.9230   -0.4710 c1        1 0T7     -0.108000
      7 C6          2.0770   -3.5400   -0.5440 c1        1 0T7     -0.108000
      8 N2          0.7850   -3.2200   -0.5680 n2        1 0T7     -0.103000
      9 C7          0.4020   -1.8910   -0.6230 c1        1 0T7     -0.003000
     10 C8         -0.9640   -1.5500   -0.6180 c1        1 0T7     -0.118000
     11 C9         -1.3470   -0.2140   -0.6420 c1        1 0T7     -0.135000
     12 C10        -0.3800    0.7880   -0.6710 c1        1 0T7      0.069000
     13 C11         0.9680    0.4520   -0.6760 c2        1 0T7     -0.155000
     14 C12         1.3570   -0.9020   -0.6520 c1        1 0T7      0.015000
     15 N3          2.6840   -1.2320   -0.6270 n2        1 0T7     -0.151000
     16 C13         3.0550   -2.5250   -0.5740 c1        1 0T7      0.082000
     17 C14         4.5600   -2.5320   -0.4070 c3        1 0T7     -0.179000
     18 O1         -0.6320    2.1680   -0.7680 o         1 0T7     -0.211000
     19 C15        -1.2170    2.7230    0.3890 c3        1 0T7      0.017000
     20 C16        -1.3440    4.2220    0.2200 c1        1 0T7     -0.040000
     21 C17        -2.4170    4.8330   -0.4230 c1        1 0T7     -0.117333
     22 C18        -2.4830    6.1980   -0.4960 c1        1 0T7     -0.117333
     23 C19        -1.4820    6.9710    0.0710 c1        1 0T7     -0.077000
     24 C20        -1.5610    8.3760    0.0210 c1        1 0T7     -0.117333
     25 C21        -0.5700    9.1500    0.6120 c1        1 0T7     -0.117333
     26 C22         0.5010    8.5370    1.2550 c1        1 0T7     -0.117333
     27 C23         0.5810    7.1510    1.3050 c1        1 0T7     -0.117333
     28 C24        -0.4230    6.3650    0.7060 c1        1 0T7      0.004000
     29 N4         -0.3580    4.9840    0.7790 n2        1 0T7     -0.129000
     30 C25         3.1730   -6.0250   -0.1930 c2        1 0T7     -0.146000
     31 H1         -3.4000   -6.5930    0.2580 hc        1 0T7      0.073000
     32 H2         -2.9810   -6.7140    1.7970 hc        1 0T7      0.073000
     33 H3         -3.3280   -5.2810    1.1730 hc        1 0T7      0.073000
     34 H4         -0.9600   -5.6910    1.3990 hc        1 0T7      0.099000
     35 H5         -1.1120   -6.8140    0.2730 hc        1 0T7      0.099000
     36 H6         -1.9730   -4.1740   -0.2550 hc        1 0T7      0.096000
     37 H7         -1.5990   -5.2960   -1.3270 hc        1 0T7      0.096000
     38 H8         -1.6420   -2.2510   -0.5970 ha        1 0T7      0.146000
     39 H9         -2.2940    0.0220   -0.6390 ha        1 0T7      0.154000
     40 H10         1.6450    1.1540   -0.6970 ha        1 0T7      0.174000
     41 H11         4.9700   -3.0100   -1.1580 hc        1 0T7      0.101667
     42 H12         4.7930   -2.9800    0.4330 hc        1 0T7      0.101667
     43 H13         4.8900   -1.6090   -0.3870 hc        1 0T7      0.101667
     44 H14        -2.1060    2.3340    0.5250 h1        1 0T7      0.121500
     45 H15        -0.6530    2.5280    1.1660 h1        1 0T7      0.121500
     46 H16        -3.1450    4.2900   -0.7790 ha        1 0T7      0.142500
     47 H17        -3.2350    6.6260   -0.9470 ha        1 0T7      0.142500
     48 H18        -2.3120    8.8070   -0.4300 ha        1 0T7      0.142500
     49 H19        -0.6250   10.1240    0.5770 ha        1 0T7      0.142500
     50 H20         1.1970    9.0810    1.6700 ha        1 0T7      0.142500
     51 H21         1.3320    6.7210    1.7560 ha        1 0T7      0.142500
     52 H22         3.6210   -5.8520    0.6620 ha        1 0T7      0.090667
     53 H23         3.8390   -6.0510   -0.9110 ha        1 0T7      0.090667
     54 H24         2.7070   -6.8860   -0.1490 ha        1 0T7      0.090667
@<TRIPOS>BOND
     1    1    2 1   
     2    1   31 1   
     3    1   32 1   
     4    1   33 1   
     5    2    3 1   
     6    2   34 1   
     7    2   35 1   
     8    3    4 1   
     9    3   36 1   
    10    3   37 1   
    11    4    5 1   
    12    4    8 1   
    13    5    6 1   
    14    6    7 1   
    15    7    8 1   
    16    9   10 1   
    17   10   38 1   
    18   11   12 1   
    19   11   39 1   
    20   12   13 1   
    21   13   14 1   
    22   13   40 1   
    23   14   15 1   
    24   15   16 1   
    25   16   17 1   
    26   17   41 1   
    27   17   42 1   
    28   17   43 1   
    29   18   19 1   
    30   19   20 1   
    31   19   44 1   
    32   19   45 1   
    33   20   29 1   
    34   21   22 1   
    35   21   46 1   
    36   22   47 1   
    37   23   28 1   
    38   24   25 1   
    39   24   48 1   
    40   25   49 1   
    41   26   27 1   
    42   26   50 1   
    43   27   51 1   
    44   28   29 1   
    45   30   52 1   
    46   30   53 1   
    47   30   54 1   
@<TRIPOS>SUBSTRUCTURE
     1 0T7         1 TEMP              0 ****  ****    0 ROOT
