@<TRIPOS>MOLECULE
0T8
   69    72     1     0     0
SMALL
bcc


@<TRIPOS>ATOM
      1 N1          0.5510    1.3410    0.0680 nb        1 0T8     -0.674000
      2 N3          2.6140    1.3930    1.3770 nb        1 0T8     -0.617000
      3 C4         -0.2320    0.4410    3.7040 c         1 0T8      0.677700
      4 C5          1.8970    1.5380    0.2110 ca        1 0T8      0.779900
      5 C6         -1.9840   -0.5790    0.5100 c3        1 0T8      0.136500
      6 C7         -3.3970   -0.9540    0.9990 c3        1 0T8     -0.108900
      7 C8         -2.0870   -0.6040   -1.0240 c3        1 0T8     -0.108900
      8 C10         3.4130    0.7990   -1.6080 c3        1 0T8      0.111800
      9 C13         0.3990   -0.1760    7.1940 c3        1 0T8     -0.121400
     10 C15        -0.3920   -0.7460    8.3790 c3        1 0T8      0.011300
     11 C20        -0.2450    0.3640   10.6280 c2        1 0T8      0.558600
     12 C21         1.3580   -1.2470   10.1600 c3        1 0T8      0.005300
     13 C22         6.8060   -1.4520   -3.3840 ca        1 0T8      0.422200
     14 C24         0.5820    0.3040   11.9000 c3        1 0T8     -0.144700
     15 C26         1.6450   -0.7540   11.5940 c3        1 0T8     -0.108400
     16 O25        -1.2690    1.2150   10.5980 oh        1 0T8     -0.481600
     17 N6          0.1880   -0.4800    9.6750 nh        1 0T8     -0.241100
     18 C9         -0.2660   -0.6660    5.9010 c3        1 0T8      0.081000
     19 N4          0.4130   -0.2440    4.6940 n         1 0T8     -0.523900
     20 O1         -1.4300    0.7920    3.8130 o         1 0T8     -0.606100
     21 C2          0.5110    0.7840    2.4440 ca        1 0T8     -0.302200
     22 C1         -0.1370    0.9730    1.1910 ca        1 0T8      0.606200
     23 N2         -1.5950    0.8020    1.0300 n4        1 0T8     -0.781700
     24 C12        -3.5410   -0.3000   -1.3640 c3        1 0T8     -0.098900
     25 C11        -4.3630   -0.5470   -0.1050 c3        1 0T8     -0.098900
     26 C3          1.9120    1.0260    2.4590 ca        1 0T8      0.503200
     27 N5          2.6570    1.9570   -1.0030 n4        1 0T8     -0.751700
     28 C14         4.1840    1.2280   -2.8590 c3        1 0T8     -0.053100
     29 C16         4.9100    0.0380   -3.3830 ca        1 0T8     -0.102300
     30 C19         4.3960   -0.6930   -4.4590 ca        1 0T8     -0.241300
     31 C23         5.1420   -1.7880   -4.9400 ca        1 0T8      0.422200
     32 N7          6.3200   -2.1700   -4.4140 nb        1 0T8     -0.613000
     33 C18         6.1400   -0.3410   -2.8310 ca        1 0T8     -0.241300
     34 H6         -1.2100   -1.2980    0.8940 hx        1 0T8      0.096700
     35 H7         -3.4110   -2.0690    1.1390 hc        1 0T8      0.089450
     36 H7A        -3.6700   -0.4970    1.9830 hc        1 0T8      0.089450
     37 H8         -1.3860    0.1030   -1.5320 hc        1 0T8      0.089450
     38 H8A        -1.8200   -1.6420   -1.3610 hc        1 0T8      0.089450
     39 H10         4.1320    0.4070   -0.8320 hx        1 0T8      0.119200
     40 H10A        2.6640   -0.0020   -1.8690 hx        1 0T8      0.119200
     41 H13         0.4020    0.9440    7.2300 hc        1 0T8      0.074700
     42 H13A        1.4640   -0.5240    7.2390 hc        1 0T8      0.074700
     43 H15        -1.4430   -0.3360    8.3530 h1        1 0T8      0.090200
     44 H15A       -0.4580   -1.8710    8.2710 h1        1 0T8      0.090200
     45 H22         7.7880   -1.7800   -2.9880 h4        1 0T8      0.054100
     46 H24         1.0200    1.3150   12.1200 hc        1 0T8      0.145200
     47 H24A       -0.0780    0.0210   12.7650 hc        1 0T8      0.145200
     48 H26         2.6740   -0.3200   11.6620 hc        1 0T8      0.112200
     49 H26A        1.5840   -1.6050   12.3190 hc        1 0T8      0.112200
     50 H9         -1.3330   -0.2960    5.8700 h1        1 0T8      0.090200
     51 H9A        -0.2840   -1.7960    5.9050 h1        1 0T8      0.090200
     52 HN4         1.3560   -0.5370    4.5780 hn        1 0T8      0.333500
     53 HN2        -1.9620    1.5060    0.3670 hn        1 0T8      0.497300
     54 H12        -3.6550    0.7590   -1.7090 hc        1 0T8      0.085200
     55 H12A       -3.8890   -0.9550   -2.2040 hc        1 0T8      0.085200
     56 H11        -5.1190   -1.3580   -0.2750 hc        1 0T8      0.085200
     57 H11A       -4.9340    0.3720    0.1820 hc        1 0T8      0.085200
     58 H3          2.5170    0.9470    3.3910 h4        1 0T8      0.095100
     59 HN5         3.3290    2.6970   -0.7350 hn        1 0T8      0.491300
     60 H14         3.4810    1.6240   -3.6410 hc        1 0T8      0.085200
     61 H14A        4.9220    2.0390   -2.6100 hc        1 0T8      0.085200
     62 H19         3.4510   -0.4170   -4.9450 ha        1 0T8      0.145000
     63 H23         4.7800   -2.3870   -5.7990 h4        1 0T8      0.054100
     64 H18         6.5980    0.2220   -2.0070 ha        1 0T8      0.145000
     65 H21         2.2250   -1.0530    9.4730 h1        1 0T8      0.099200
     66 H42        -1.7890    1.1830    9.7690 ho        1 0T8      0.477000
     67 H221       -2.0520    0.9600    1.9540 hn        1 0T8      0.497300
     68 H52         2.0090    2.3460   -1.7070 hn        1 0T8      0.491300
     69 H21A        1.1060   -2.3430   10.1420 h1        1 0T8      0.099200
@<TRIPOS>BOND
     1    1    4 ar  
     2    1   22 ar  
     3    2    4 ar  
     4    2   26 ar  
     5    3   19 1   
     6    3   20 2   
     7    3   21 1   
     8    4   27 1   
     9    5    6 1   
    10    5    7 1   
    11    5   23 1   
    12    5   34 1   
    13    6   25 1   
    14    6   35 1   
    15    6   36 1   
    16    7   24 1   
    17    7   37 1   
    18    7   38 1   
    19    8   27 1   
    20    8   28 1   
    21    8   39 1   
    22    8   40 1   
    23    9   10 1   
    24    9   18 1   
    25    9   41 1   
    26    9   42 1   
    27   10   17 1   
    28   10   43 1   
    29   10   44 1   
    30   11   14 1   
    31   11   16 1   
    32   11   17 2   
    33   12   15 1   
    34   12   17 1   
    35   12   65 1   
    36   12   69 1   
    37   13   32 ar  
    38   13   33 ar  
    39   13   45 1   
    40   14   15 1   
    41   14   46 1   
    42   14   47 1   
    43   15   48 1   
    44   15   49 1   
    45   16   66 1   
    46   18   19 1   
    47   18   50 1   
    48   18   51 1   
    49   19   52 1   
    50   21   22 ar  
    51   21   26 ar  
    52   22   23 1   
    53   23   53 1   
    54   23   67 1   
    55   24   25 1   
    56   24   54 1   
    57   24   55 1   
    58   25   56 1   
    59   25   57 1   
    60   26   58 1   
    61   27   59 1   
    62   27   68 1   
    63   28   29 1   
    64   28   60 1   
    65   28   61 1   
    66   29   30 ar  
    67   29   33 ar  
    68   30   31 ar  
    69   30   62 1   
    70   31   32 ar  
    71   31   63 1   
    72   33   64 1   
@<TRIPOS>SUBSTRUCTURE
     1 0T8         1 TEMP              0 ****  ****    0 ROOT
