@<TRIPOS>MOLECULE
0T8
   67    70     1     0     0
SMALL
bcc


@<TRIPOS>ATOM
      1 N1          0.0020   -0.0630   -0.0900 nb        1 0T8     -0.846000
      2 N3          2.1880   -0.2460    1.0590 nb        1 0T8     -0.738000
      3 C4         -0.5210   -0.4850    3.6180 c         1 0T8      0.599700
      4 C5          1.3800   -0.0890   -0.1070 ca        1 0T8      0.969900
      5 C6         -2.8310   -0.0690   -0.0650 c3        1 0T8      0.211500
      6 C7         -4.2860   -0.5350    0.1650 c3        1 0T8     -0.091900
      7 C8         -2.9440    1.3850   -0.5710 c3        1 0T8     -0.091900
      8 C10         3.4390    0.0440   -1.4710 c3        1 0T8      0.210800
      9 C13         0.6110   -0.8790    7.3080 c3        1 0T8     -0.141400
     10 C15        -0.1620   -0.6180    8.6120 c3        1 0T8      0.131000
     11 C20         1.6780    0.4680    9.9090 c         1 0T8      0.703500
     12 C21         0.3610   -1.1550   11.0140 c3        1 0T8      0.090000
     13 C22         7.4800    1.3400   -2.7540 ca        1 0T8      0.403200
     14 C24         2.1630    0.4780   11.3500 c3        1 0T8     -0.153400
     15 C26         1.3140   -0.5630   12.0770 c3        1 0T8     -0.094400
     16 O25         2.0870    1.1830    8.9810 o         1 0T8     -0.642500
     17 N6          0.6920   -0.5130    9.7530 n         1 0T8     -0.497800
     18 C9         -0.3370   -0.7070    6.1300 c3        1 0T8      0.113800
     19 N4          0.3990   -0.6350    4.8340 n4        1 0T8     -0.673800
     20 O1         -1.7190   -0.4950    3.9130 o         1 0T8     -0.521100
     21 C2          0.1220   -0.3590    2.3570 ca        1 0T8     -0.593200
     22 C1         -0.6440   -0.2090    1.1130 ca        1 0T8      0.823200
     23 N2         -2.0040   -0.2350    1.1170 nh        1 0T8     -0.814900
     24 C12        -4.3160    1.4990   -1.2200 c3        1 0T8     -0.081900
     25 C11        -5.1410    0.2970   -0.7790 c3        1 0T8     -0.081900
     26 C3          1.5460   -0.3670    2.1950 ca        1 0T8      0.532200
     27 N5          2.0010    0.0480   -1.3170 nh        1 0T8     -0.807900
     28 C14         3.8690    0.2110   -2.9320 c3        1 0T8     -0.055100
     29 C16         5.3550    0.2260   -3.0150 ca        1 0T8     -0.059300
     30 C19         6.0590   -0.8920   -3.4760 ca        1 0T8     -0.242300
     31 C23         7.4630   -0.8190   -3.5460 ca        1 0T8      0.403200
     32 N7          8.1710    0.2700   -3.1920 nb        1 0T8     -0.649000
     33 C18         6.0780    1.3680   -2.6470 ca        1 0T8     -0.242300
     34 H6         -2.3880   -0.7000   -0.8920 h1        1 0T8      0.087700
     35 H7         -4.6120   -0.3690    1.2230 hc        1 0T8      0.055200
     36 H7A        -4.3820   -1.6270   -0.0510 hc        1 0T8      0.055200
     37 H8         -2.8540    2.1160    0.2710 hc        1 0T8      0.055200
     38 H8A        -2.1270    1.6050   -1.3000 hc        1 0T8      0.055200
     39 H10         3.8810    0.8850   -0.8590 h1        1 0T8      0.073700
     40 H10A        3.8510   -0.9280   -1.0720 h1        1 0T8      0.073700
     41 H13         1.4680   -0.1500    7.2430 hc        1 0T8      0.083200
     42 H13A        1.0370   -1.9150    7.3200 hc        1 0T8      0.083200
     43 H15        -0.8940   -1.4570    8.7790 h1        1 0T8      0.052700
     44 H15A       -0.7460    0.3420    8.4870 h1        1 0T8      0.052700
     45 H22         8.0850    2.2220   -2.4760 h4        1 0T8      0.031600
     46 H24         3.2520    0.2260   11.3780 hc        1 0T8      0.092700
     47 H24A        2.0270    1.5030   11.7750 hc        1 0T8      0.092700
     48 H26         0.7270   -0.0970   12.9050 hc        1 0T8      0.068700
     49 H26A        1.9520   -1.3680   12.5140 hc        1 0T8      0.068700
     50 H9         -0.9350    0.2450    6.2310 hx        1 0T8      0.111200
     51 H9A        -1.0630   -1.5670    6.0700 hx        1 0T8      0.111200
     52 HN4         0.9570   -1.4850    4.7160 hn        1 0T8      0.449800
     53 HN2        -2.4840   -0.2510    1.9930 hn        1 0T8      0.465800
     54 H12        -4.8120    2.4550   -0.9170 hc        1 0T8      0.056200
     55 H12A       -4.2190    1.5150   -2.3350 hc        1 0T8      0.056200
     56 H11        -6.0810    0.6250   -0.2670 hc        1 0T8      0.056200
     57 H11A       -5.4440   -0.3130   -1.6670 hc        1 0T8      0.056200
     58 H3          2.2260   -0.4830    3.0630 h4        1 0T8      0.008100
     59 HN5         1.4390    0.1590   -2.1350 hn        1 0T8      0.469800
     60 H14         3.4580   -0.6280   -3.5540 hc        1 0T8      0.065700
     61 H14A        3.4640    1.1730   -3.3490 hc        1 0T8      0.065700
     62 H19         5.5370   -1.8060   -3.7850 ha        1 0T8      0.144500
     63 H23         8.0550   -1.6800   -3.9090 h4        1 0T8      0.031600
     64 H18         5.5660    2.2710   -2.2900 ha        1 0T8      0.144500
     65 H21        -0.7120   -0.9620   11.2870 h1        1 0T8      0.051700
     66 H42         1.0390    0.1670    4.8610 hn        1 0T8      0.449800
     67 H21A        0.5070   -2.2650   10.9180 h1        1 0T8      0.051700
@<TRIPOS>BOND
     1    1    4 ar  
     2    1   22 ar  
     3    2    4 ar  
     4    2   26 ar  
     5    3   19 1   
     6    3   20 2   
     7    3   21 1   
     8    4   27 1   
     9    5    6 1   
    10    5    7 1   
    11    5   23 1   
    12    5   34 1   
    13    6   25 1   
    14    6   35 1   
    15    6   36 1   
    16    7   24 1   
    17    7   37 1   
    18    7   38 1   
    19    8   27 1   
    20    8   28 1   
    21    8   39 1   
    22    8   40 1   
    23    9   10 1   
    24    9   18 1   
    25    9   41 1   
    26    9   42 1   
    27   10   17 1   
    28   10   43 1   
    29   10   44 1   
    30   11   14 1   
    31   11   16 2   
    32   11   17 1   
    33   12   15 1   
    34   12   17 1   
    35   12   65 1   
    36   12   67 1   
    37   13   32 ar  
    38   13   33 ar  
    39   13   45 1   
    40   14   15 1   
    41   14   46 1   
    42   14   47 1   
    43   15   48 1   
    44   15   49 1   
    45   18   19 1   
    46   18   50 1   
    47   18   51 1   
    48   19   52 1   
    49   19   66 1   
    50   21   22 ar  
    51   21   26 ar  
    52   22   23 1   
    53   23   53 1   
    54   24   25 1   
    55   24   54 1   
    56   24   55 1   
    57   25   56 1   
    58   25   57 1   
    59   26   58 1   
    60   27   59 1   
    61   28   29 1   
    62   28   60 1   
    63   28   61 1   
    64   29   30 ar  
    65   29   33 ar  
    66   30   31 ar  
    67   30   62 1   
    68   31   32 ar  
    69   31   63 1   
    70   33   64 1   
@<TRIPOS>SUBSTRUCTURE
     1 0T8         1 TEMP              0 ****  ****    0 ROOT
