@<TRIPOS>MOLECULE
0T8
   67    70     1     0     0
SMALL
bcc


@<TRIPOS>ATOM
      1 N1         -0.0030   -0.0670   -0.0910 nb        1 0T8     -0.846000
      2 N3          2.1840   -0.2570    1.0540 nb        1 0T8     -0.738000
      3 C4         -0.5200   -0.4980    3.6170 c         1 0T8      0.599700
      4 C5          1.3750   -0.0950   -0.1100 ca        1 0T8      0.969900
      5 C6         -2.8360   -0.0700   -0.0610 c3        1 0T8      0.211500
      6 C7         -4.2920   -0.5360    0.1700 c3        1 0T8     -0.091900
      7 C8         -2.9490    1.3860   -0.5630 c3        1 0T8     -0.091900
      8 C10         3.4320    0.0410   -1.4770 c3        1 0T8      0.210800
      9 C13         0.6190   -0.8810    7.3060 c3        1 0T8     -0.141400
     10 C15        -0.1510   -0.6130    8.6100 c3        1 0T8      0.131000
     11 C20         1.6920    0.4760    9.8990 c         1 0T8      0.703500
     12 C21         0.3780   -1.1400   11.0140 c3        1 0T8      0.090000
     13 C22         7.4710    1.3380   -2.7660 ca        1 0T8      0.403200
     14 C24         2.1810    0.4920   11.3380 c3        1 0T8     -0.153400
     15 C26         1.3330   -0.5440   12.0720 c3        1 0T8     -0.094400
     16 O25         2.1000    1.1870    8.9660 o         1 0T8     -0.642500
     17 N6          0.7050   -0.5050    9.7490 n         1 0T8     -0.497800
     18 C9         -0.3310   -0.7120    6.1300 c3        1 0T8      0.113800
     19 N4          0.4020   -0.6450    4.8320 ny        1 0T8     -0.673800
     20 O1         -1.7170   -0.5090    3.9140 o         1 0T8     -0.521100
     21 C2          0.1210   -0.3700    2.3550 ca        1 0T8     -0.593200
     22 C1         -0.6470   -0.2160    1.1130 ca        1 0T8      0.823200
     23 N2         -2.0070   -0.2410    1.1200 nu        1 0T8     -0.814900
     24 C12        -4.3210    1.5020   -1.2080 c3        1 0T8     -0.081900
     25 C11        -5.1480    0.2990   -0.7700 c3        1 0T8     -0.081900
     26 C3          1.5450   -0.3800    2.1900 ca        1 0T8      0.532200
     27 N5          1.9940    0.0460   -1.3210 nu        1 0T8     -0.807900
     28 C14         3.8590    0.2120   -2.9390 c3        1 0T8     -0.055100
     29 C16         5.3440    0.2260   -3.0240 ca        1 0T8     -0.059300
     30 C19         6.0480   -0.8920   -3.4880 ca        1 0T8     -0.242300
     31 C23         7.4510   -0.8210   -3.5610 ca        1 0T8      0.403200
     32 N7          8.1610    0.2680   -3.2070 nb        1 0T8     -0.649000
     33 C18         6.0690    1.3670   -2.6570 ca        1 0T8     -0.242300
     34 H6         -2.3950   -0.6990   -0.8910 h1        1 0T8      0.087700
     35 H7         -4.3880   -1.6270   -0.0490 hc        1 0T8      0.055200
     36 H7A        -4.6150   -0.3720    1.2290 hc        1 0T8      0.055200
     37 H8         -2.1320    1.6070   -1.2920 hc        1 0T8      0.055200
     38 H8A        -2.8570    2.1140    0.2820 hc        1 0T8      0.055200
     39 H10         3.8750    0.8790   -0.8640 h1        1 0T8      0.073700
     40 H10A        3.8430   -0.9330   -1.0820 h1        1 0T8      0.073700
     41 H13         1.4760   -0.1550    7.2360 hc        1 0T8      0.083200
     42 H13A        1.0430   -1.9180    7.3210 hc        1 0T8      0.083200
     43 H15        -0.7350    0.3460    8.4830 h1        1 0T8      0.052700
     44 H15A       -0.8840   -1.4510    8.7830 h1        1 0T8      0.052700
     45 H22         8.0770    2.2190   -2.4890 h4        1 0T8      0.031600
     46 H24         3.2700    0.2400   11.3650 hc        1 0T8      0.092700
     47 H24A        2.0470    1.5200   11.7590 hc        1 0T8      0.092700
     48 H26         0.7480   -0.0740   12.8990 hc        1 0T8      0.068700
     49 H26A        1.9710   -1.3480   12.5120 hc        1 0T8      0.068700
     50 H9         -1.0590   -1.5710    6.0740 hx        1 0T8      0.111200
     51 H9A        -0.9280    0.2410    6.2280 hx        1 0T8      0.111200
     52 HN4         0.9580   -1.4980    4.7150 hn        1 0T8      0.449800
     53 HN2        -2.4860   -0.2590    1.9960 hn        1 0T8      0.465800
     54 H12        -4.2270    1.5220   -2.3240 hc        1 0T8      0.056200
     55 H12A       -4.8170    2.4570   -0.9020 hc        1 0T8      0.056200
     56 H11        -5.4520   -0.3080   -1.6600 hc        1 0T8      0.056200
     57 H11A       -6.0860    0.6260   -0.2560 hc        1 0T8      0.056200
     58 H3          2.2250   -0.5010    3.0570 h4        1 0T8      0.008100
     59 HN5         1.4300    0.1600   -2.1380 hn        1 0T8      0.469800
     60 H14         3.4530    1.1750   -3.3520 hc        1 0T8      0.065700
     61 H14A        3.4460   -0.6260   -3.5630 hc        1 0T8      0.065700
     62 H19         5.5240   -1.8060   -3.7960 ha        1 0T8      0.144500
     63 H23         8.0410   -1.6820   -3.9250 h4        1 0T8      0.031600
     64 H18         5.5590    2.2700   -2.2980 ha        1 0T8      0.144500
     65 H21         0.5220   -2.2510   10.9220 h1        1 0T8      0.051700
     66 H42         1.0440    0.1540    4.8550 hn        1 0T8      0.449800
     67 H21A       -0.6950   -0.9450   11.2880 h1        1 0T8      0.051700
@<TRIPOS>BOND
     1    1    4 ar  
     2    1   22 ar  
     3    2    4 ar  
     4    2   26 ar  
     5    3   19 1   
     6    3   20 2   
     7    3   21 1   
     8    4   27 1   
     9    5    6 1   
    10    5    7 1   
    11    5   23 1   
    12    5   34 1   
    13    6   25 1   
    14    6   35 1   
    15    6   36 1   
    16    7   24 1   
    17    7   37 1   
    18    7   38 1   
    19    8   27 1   
    20    8   28 1   
    21    8   39 1   
    22    8   40 1   
    23    9   10 1   
    24    9   18 1   
    25    9   41 1   
    26    9   42 1   
    27   10   17 1   
    28   10   43 1   
    29   10   44 1   
    30   11   14 1   
    31   11   16 2   
    32   11   17 1   
    33   12   15 1   
    34   12   17 1   
    35   12   65 1   
    36   12   67 1   
    37   13   32 ar  
    38   13   33 ar  
    39   13   45 1   
    40   14   15 1   
    41   14   46 1   
    42   14   47 1   
    43   15   48 1   
    44   15   49 1   
    45   18   19 1   
    46   18   50 1   
    47   18   51 1   
    48   19   52 1   
    49   19   66 1   
    50   21   22 ar  
    51   21   26 ar  
    52   22   23 1   
    53   23   53 1   
    54   24   25 1   
    55   24   54 1   
    56   24   55 1   
    57   25   56 1   
    58   25   57 1   
    59   26   58 1   
    60   27   59 1   
    61   28   29 1   
    62   28   60 1   
    63   28   61 1   
    64   29   30 ar  
    65   29   33 ar  
    66   30   31 ar  
    67   30   62 1   
    68   31   32 ar  
    69   31   63 1   
    70   33   64 1   
@<TRIPOS>SUBSTRUCTURE
     1 0T8         1 TEMP              0 ****  ****    0 ROOT
