@<TRIPOS>MOLECULE
0T8
   66    63     1     0     0
SMALL
bcc


@<TRIPOS>ATOM
      1 N1         -0.3330    2.0080   -1.4220 n1        1 0T8     -0.314000
      2 N3          1.7410    2.0610   -0.2460 n1        1 0T8     -0.264000
      3 C4         -1.0540    1.8100    2.3150 c1        1 0T8      0.374000
      4 C5          1.0340    2.0750   -1.4370 c1        1 0T8      0.201000
      5 C6         -3.2120    2.0720   -1.5070 c3        1 0T8      0.037000
      6 C7         -3.4050    0.6260   -2.1780 c3        1 0T8     -0.173000
      7 C8         -4.4160    2.5010   -1.2800 c3        1 0T8     -0.173000
      8 C10         3.2160    1.9770   -2.7420 c3        1 0T8     -0.029000
      9 C13        -0.5910   -1.1880    4.4780 c3        1 0T8     -0.218000
     10 C15        -1.5350   -2.3140    4.8480 c3        1 0T8     -0.010000
     11 C20        -0.1920   -4.3580    5.2080 c1        1 0T8      0.301000
     12 C21        -1.4480   -4.4650    3.3480 c3        1 0T8     -0.032000
     13 C22         7.1990    1.6170   -4.8600 c1        1 0T8     -0.070000
     14 C24         0.4870   -5.4420    4.2460 c2        1 0T8     -0.189000
     15 C26        -0.5620   -5.7500    3.3950 c3        1 0T8     -0.172000
     16 O25         0.0350   -4.2070    6.3920 o         1 0T8     -0.348000
     17 N6         -0.9560   -3.5820    4.4520 n3        1 0T8     -0.336000
     18 C9         -1.3970    0.0290    4.0380 c3        1 0T8     -0.027000
     19 N4         -0.5310    0.9590    3.3760 n2        1 0T8     -0.373000
     20 O1         -1.9970    2.5480    2.5390 o         1 0T8     -0.402000
     21 C2         -0.2890    1.9130    0.9500 c2        1 0T8     -0.366000
     22 C1         -0.9960    1.9270   -0.2430 c1        1 0T8      0.264000
     23 N2         -2.4510    1.9530   -0.2250 n3        1 0T8     -0.300000
     24 C12        -5.3560    1.1630   -1.0920 c3        1 0T8     -0.161500
     25 C11        -4.9040    0.2640   -1.9670 c3        1 0T8     -0.161500
     26 C3          1.0810    1.9800    0.9340 c2        1 0T8      0.055000
     27 N5          1.7600    2.0090   -2.7260 n3        1 0T8     -0.269000
     28 C14         3.7000    0.7800   -3.6080 c3        1 0T8     -0.163000
     29 C16         4.8660    1.2360   -4.5130 c2        1 0T8     -0.034000
     30 C19         4.6130    1.6860   -5.7800 c1        1 0T8     -0.181000
     31 C23         5.6640    2.1050   -6.5930 c1        1 0T8     -0.071000
     32 N7          6.9440    2.0670   -6.1270 n1        1 0T8     -0.139000
     33 C18         6.1510    1.1980   -4.0470 c2        1 0T8     -0.178000
     34 H6         -2.7480    2.6730   -2.1250 h1        1 0T8      0.115000
     35 H7         -2.8350   -0.0290   -1.7360 hc        1 0T8      0.094250
     36 H7A        -3.1970    0.6660   -3.1360 hc        1 0T8      0.094250
     37 H8         -4.7340    3.0330   -2.0420 hc        1 0T8      0.094250
     38 H8A        -4.4310    3.0390   -0.4650 hc        1 0T8      0.094250
     39 H10         3.5570    2.8140   -3.1230 h1        1 0T8      0.110500
     40 H10A        3.5500    1.8750   -1.8300 h1        1 0T8      0.110500
     41 H13        -0.0420   -0.9520    5.2580 hc        1 0T8      0.090500
     42 H13A       -0.0120   -1.4770    3.7480 hc        1 0T8      0.090500
     43 H15        -1.6830   -2.3110    5.8140 h1        1 0T8      0.102000
     44 H15A       -2.3890   -2.1880    4.3870 h1        1 0T8      0.102000
     45 H21        -1.3450   -4.0160    2.4860 h1        1 0T8      0.085000
     46 H21A       -2.3870   -4.6980    3.4970 h1        1 0T8      0.085000
     47 H22         8.1190    1.5900   -4.5260 ha        1 0T8      0.160000
     48 H24         1.3890   -5.1940    3.9500 ha        1 0T8      0.120000
     49 H24A        0.6770   -6.2760    4.7290 ha        1 0T8      0.120000
     50 H26        -1.0790   -6.5070    3.7520 hc        1 0T8      0.095500
     51 H26A       -0.2230   -5.9620    2.5030 hc        1 0T8      0.095500
     52 H9         -2.1000   -0.2520    3.4260 h1        1 0T8      0.104500
     53 H9A        -1.7990    0.4580    4.8240 h1        1 0T8      0.104500
     54 HN4         0.3250    1.0720    3.6700 hn        1 0T8      0.220000
     55 HN2        -2.8970    1.9450    0.5700 hn        1 0T8      0.267000
     56 H12        -5.2710    0.8170   -0.1810 hc        1 0T8      0.082250
     57 H12A       -6.2930    1.3800   -1.2850 hc        1 0T8      0.082250
     58 H11        -4.9870   -0.6390   -1.6010 hc        1 0T8      0.082250
     59 H11A       -5.3950    0.3360   -2.8150 hc        1 0T8      0.082250
     60 H3          1.5810    1.9700    1.7750 h4        1 0T8      0.163000
     61 HN5         1.2960    2.0430   -3.5120 hn        1 0T8      0.225000
     62 H14         2.9620    0.4610   -4.1640 hc        1 0T8      0.099500
     63 H14A        4.0050    0.0550   -3.0220 hc        1 0T8      0.099500
     64 H19         3.6990    1.7130   -6.1140 ha        1 0T8      0.141000
     65 H23         5.4840    2.4260   -7.4960 ha        1 0T8      0.159000
     66 H18         6.3330    0.8770   -3.1420 ha        1 0T8      0.151000
@<TRIPOS>BOND
     1    1    4 1   
     2    2   26 1   
     3    3   20 1   
     4    3   21 1   
     5    4   27 1   
     6    5    6 1   
     7    5    7 1   
     8    5   23 1   
     9    5   34 1   
    10    6   25 1   
    11    6   35 1   
    12    6   36 1   
    13    7   24 1   
    14    7   37 1   
    15    7   38 1   
    16    8   27 1   
    17    8   28 1   
    18    8   39 1   
    19    8   40 1   
    20    9   10 1   
    21    9   18 1   
    22    9   41 1   
    23    9   42 1   
    24   10   17 1   
    25   10   43 1   
    26   10   44 1   
    27   11   16 1   
    28   11   17 1   
    29   12   15 1   
    30   12   17 1   
    31   12   45 1   
    32   12   46 1   
    33   13   33 1   
    34   13   47 1   
    35   14   15 1   
    36   14   48 1   
    37   14   49 1   
    38   15   50 1   
    39   15   51 1   
    40   18   19 1   
    41   18   52 1   
    42   18   53 1   
    43   19   54 1   
    44   21   22 1   
    45   21   26 1   
    46   22   23 1   
    47   23   55 1   
    48   24   25 1   
    49   24   56 1   
    50   24   57 1   
    51   25   58 1   
    52   25   59 1   
    53   26   60 1   
    54   27   61 1   
    55   28   29 1   
    56   28   62 1   
    57   28   63 1   
    58   29   30 1   
    59   29   33 1   
    60   30   64 1   
    61   31   32 1   
    62   31   65 1   
    63   33   66 1   
@<TRIPOS>SUBSTRUCTURE
     1 0T8         1 TEMP              0 ****  ****    0 ROOT
