@<TRIPOS>MOLECULE
0T8
   66    69     1     0     0
SMALL
bcc


@<TRIPOS>ATOM
      1 N1         -2.0540    1.8110    0.3080 nb        1 0T8     -0.833000
      2 N3         -1.5150   -0.5960    0.3150 nb        1 0T8     -0.784000
      3 C4          1.7180    1.3250    0.1540 c         1 0T8      0.706700
      4 C5         -2.4090    0.4770    0.3680 ca        1 0T8      0.923900
      5 C6         -1.2220    4.5360    0.1960 c3        1 0T8      0.216500
      6 C7         -0.5690    5.8820    0.5890 c3        1 0T8     -0.095900
      7 C8         -1.8020    4.7740   -1.2160 c3        1 0T8     -0.095900
      8 C10        -4.2900   -1.1160    0.2870 c3        1 0T8      0.213800
      9 C13         4.6790   -0.7090    0.4810 c3        1 0T8     -0.133400
     10 C15         6.1940   -0.4850    0.4860 c3        1 0T8      0.107000
     11 C20         7.4390   -2.0450   -1.0240 c         1 0T8      0.694500
     12 C21         7.0940   -2.7200    1.2080 c3        1 0T8      0.086000
     13 C22        -6.7710   -4.3730   -1.3880 ca        1 0T8      0.395700
     14 C24         8.0190   -3.4520   -0.9390 c3        1 0T8     -0.160400
     15 C26         7.7900   -3.9040    0.5000 c3        1 0T8     -0.093400
     16 O25         7.3980   -1.3380   -2.0420 o         1 0T8     -0.619500
     17 N6          6.9910   -1.6470    0.2380 n         1 0T8     -0.482800
     18 C9          3.9880    0.6110    0.8310 c3        1 0T8      0.091000
     19 N4          2.5570    0.5170    0.8970 n         1 0T8     -0.568900
     20 O1          2.1880    2.2590   -0.5360 o         1 0T8     -0.638100
     21 C2          0.2700    1.0490    0.2390 ca        1 0T8     -0.506200
     22 C1         -0.7140    2.1080    0.2650 ca        1 0T8      0.773200
     23 N2         -0.3030    3.4260    0.3130 nh        1 0T8     -0.837900
     24 C12        -2.0660    6.2670   -1.3240 c3        1 0T8     -0.078900
     25 C11        -1.3140    6.9540   -0.1900 c3        1 0T8     -0.078900
     26 C3         -0.2220   -0.2670    0.2540 ca        1 0T8      0.514200
     27 N5         -3.7700    0.2060    0.5380 nh        1 0T8     -0.840900
     28 C14        -5.8190   -1.1700    0.3950 c3        1 0T8     -0.057100
     29 C16        -6.3020   -2.5500    0.1230 ca        1 0T8     -0.043300
     30 C19        -6.7930   -3.3570    1.1570 ca        1 0T8     -0.241800
     31 C23        -7.2520   -4.6490    0.8430 ca        1 0T8      0.395700
     32 N7         -7.2470   -5.1600   -0.4030 nb        1 0T8     -0.663000
     33 C18        -6.2910   -3.0690   -1.1780 ca        1 0T8     -0.241800
     34 H6         -2.0830    4.3490    0.9030 h1        1 0T8      0.077700
     35 H7         -0.6520    6.0430    1.6910 hc        1 0T8      0.052450
     36 H7A         0.5190    5.9020    0.3260 hc        1 0T8      0.052450
     37 H8         -1.0780    4.4510   -2.0070 hc        1 0T8      0.052450
     38 H8A        -2.7390    4.1810   -1.3530 hc        1 0T8      0.052450
     39 H10        -3.9880   -1.4800   -0.7390 h1        1 0T8      0.060200
     40 H10A       -3.8410   -1.8220    1.0440 h1        1 0T8      0.060200
     41 H13         4.3500   -1.0610   -0.5310 hc        1 0T8      0.049700
     42 H13A        4.4010   -1.5010    1.2240 hc        1 0T8      0.049700
     43 H15         6.4480    0.2770   -0.3080 h1        1 0T8      0.063200
     44 H15A        6.4940   -0.0690    1.4920 h1        1 0T8      0.063200
     45 H21A        7.6990   -2.3680    2.0880 h1        1 0T8      0.043200
     46 H22        -6.7770   -4.8160   -2.4000 h4        1 0T8      0.023600
     47 H24         7.4950   -4.1090   -1.6750 hc        1 0T8      0.081200
     48 H24A        9.1050   -3.4210   -1.2020 hc        1 0T8      0.081200
     49 H26         8.7560   -4.1440    1.0060 hc        1 0T8      0.056200
     50 H26A        7.1430   -4.8130    0.5400 hc        1 0T8      0.056200
     51 H9          4.3670    0.9600    1.8370 h1        1 0T8      0.062700
     52 H9A         4.2690    1.3910    0.0650 h1        1 0T8      0.062700
     53 HN4         2.1710   -0.2240    1.4300 hn        1 0T8      0.308500
     54 HN2         0.6320    3.6000   -0.0030 hn        1 0T8      0.459800
     55 H12        -1.7260    6.6540   -2.3170 hc        1 0T8      0.043200
     56 H12A       -3.1620    6.4760   -1.2450 hc        1 0T8      0.043200
     57 H11        -2.0310    7.4930    0.4790 hc        1 0T8      0.043200
     58 H11A       -0.5990    7.7140   -0.5910 hc        1 0T8      0.043200
     59 H3          0.4670   -1.1320    0.1910 h4        1 0T8      0.021100
     60 HN5        -4.3940    0.9680    0.3820 hn        1 0T8      0.435800
     61 H14        -6.1410   -0.8430    1.4190 hc        1 0T8      0.059700
     62 H14A       -6.2830   -0.4640   -0.3460 hc        1 0T8      0.059700
     63 H19        -6.8210   -2.9940    2.1930 ha        1 0T8      0.144500
     64 H23        -7.6460   -5.3130    1.6330 h4        1 0T8      0.023600
     65 H18        -5.9150   -2.4720   -2.0190 ha        1 0T8      0.144500
     66 H21         6.0770   -3.0220    1.5810 h1        1 0T8      0.043200
@<TRIPOS>BOND
     1    1    4 ar  
     2    1   22 ar  
     3    2    4 ar  
     4    2   26 ar  
     5    3   19 1   
     6    3   20 2   
     7    3   21 1   
     8    4   27 1   
     9    5    6 1   
    10    5    7 1   
    11    5   23 1   
    12    5   34 1   
    13    6   25 1   
    14    6   35 1   
    15    6   36 1   
    16    7   24 1   
    17    7   37 1   
    18    7   38 1   
    19    8   27 1   
    20    8   28 1   
    21    8   39 1   
    22    8   40 1   
    23    9   10 1   
    24    9   18 1   
    25    9   41 1   
    26    9   42 1   
    27   10   17 1   
    28   10   43 1   
    29   10   44 1   
    30   11   14 1   
    31   11   16 2   
    32   11   17 1   
    33   12   15 1   
    34   12   17 1   
    35   12   45 1   
    36   12   66 1   
    37   13   32 ar  
    38   13   33 ar  
    39   13   46 1   
    40   14   15 1   
    41   14   47 1   
    42   14   48 1   
    43   15   49 1   
    44   15   50 1   
    45   18   19 1   
    46   18   51 1   
    47   18   52 1   
    48   19   53 1   
    49   21   22 ar  
    50   21   26 ar  
    51   22   23 1   
    52   23   54 1   
    53   24   25 1   
    54   24   55 1   
    55   24   56 1   
    56   25   57 1   
    57   25   58 1   
    58   26   59 1   
    59   27   60 1   
    60   28   29 1   
    61   28   61 1   
    62   28   62 1   
    63   29   30 ar  
    64   29   33 ar  
    65   30   31 ar  
    66   30   63 1   
    67   31   32 ar  
    68   31   64 1   
    69   33   65 1   
@<TRIPOS>SUBSTRUCTURE
     1 0T8         1 TEMP              0 ****  ****    0 ROOT
