@<TRIPOS>MOLECULE
0T9
   75    78     1     0     0
SMALL
bcc


@<TRIPOS>ATOM
      1 C2          0.2020   -0.3170   -0.4550 c3        1 0T9     -0.113400
      2 C4          1.3190   -1.2930    2.0340 c2        1 0T9     -0.108400
      3 C5          1.8760   -0.0240    1.4370 c3        1 0T9      0.000200
      4 C6          1.6370   -0.0290   -0.0810 c3        1 0T9     -0.066400
      5 C8          3.4020    0.0540    1.6730 c3        1 0T9     -0.049700
      6 C16         5.0320    2.3140    3.9160 c3        1 0T9     -0.089100
      7 C14         5.7350    1.3040    3.0250 c3        1 0T9     -0.041000
      8 C13         5.4540    1.5800    1.5580 c3        1 0T9     -0.065400
      9 C12         3.9760    1.4030    1.2510 c3        1 0T9     -0.076400
     10 C7          1.1580    1.1710    2.0590 c3        1 0T9     -0.084100
     11 C1         -0.2410   -1.6570    0.1170 c3        1 0T9      0.145100
     12 O1         -1.6240   -1.8890   -0.1260 oh        1 0T9     -0.601800
     13 C3         -0.0650   -1.6800    1.6320 c3        1 0T9     -0.039200
     14 C11         1.9880   -2.0420    2.9220 c2        1 0T9     -0.167200
     15 C10         3.3480   -1.7410    3.4160 c3        1 0T9     -0.043200
     16 C9          3.7640   -0.3070    3.1210 c3        1 0T9     -0.046700
     17 C15         5.2600   -0.1510    3.2900 c3        1 0T9     -0.066700
     18 C21         5.8910   -0.5160    4.6260 c3        1 0T9     -0.180400
     19 C18         7.1790    0.2800    4.6470 c         1 0T9      0.572100
     20 O2          8.0400    0.1980    5.5210 o         1 0T9     -0.531100
     21 C17         7.2270    1.2040    3.4290 c3        1 0T9     -0.156700
     22 C19         7.9780    2.4970    3.7090 c3        1 0T9     -0.146700
     23 C22         7.9240    3.4770    2.5540 c3        1 0T9     -0.088100
     24 C20         9.4470    2.1820    3.9710 c         1 0T9      0.580100
     25 O3         10.1240    1.5530    3.1530 o         1 0T9     -0.536100
     26 C23         9.9850    2.6980    5.2720 c3        1 0T9     -0.178400
     27 C24        11.4950    2.6420    5.3380 c3        1 0T9     -0.071400
     28 C25        12.0320    3.1790    6.6580 c3        1 0T9     -0.064700
     29 C27        11.7810    2.1960    7.7830 c3        1 0T9     -0.091100
     30 C26        13.5190    3.4820    6.5220 c3        1 0T9     -0.077400
     31 C28        14.0480    4.3150    7.6610 c3        1 0T9     -0.092100
     32 H1          0.1000   -0.3330   -1.5720 hc        1 0T9      0.047700
     33 H2         -0.4730    0.4910   -0.0680 hc        1 0T9      0.047700
     34 H3          1.9280    0.9700   -0.5010 hc        1 0T9      0.044700
     35 H4          2.3000   -0.8020   -0.5520 hc        1 0T9      0.044700
     36 H5          3.8780   -0.7330    1.0160 hc        1 0T9      0.049700
     37 H6          3.9260    2.2900    3.7670 hc        1 0T9      0.039367
     38 H7          5.3870    3.3480    3.6860 hc        1 0T9      0.039367
     39 H8          5.2450    2.0970    4.9920 hc        1 0T9      0.039367
     40 H9          5.7570    2.6260    1.2920 hc        1 0T9      0.046200
     41 H10         6.0630    0.8840    0.9230 hc        1 0T9      0.046200
     42 H11         3.4070    2.2310    1.7500 hc        1 0T9      0.044200
     43 H12         3.8330    1.5220    0.1430 hc        1 0T9      0.044200
     44 H13         1.5220    1.3520    3.0980 hc        1 0T9      0.038033
     45 H14         1.3330    2.0910    1.4520 hc        1 0T9      0.038033
     46 H15         0.0570    0.9880    2.0990 hc        1 0T9      0.038033
     47 H16         0.3590   -2.4880   -0.3530 h1        1 0T9      0.036700
     48 H17        -1.7540   -1.8170   -1.0790 ho        1 0T9      0.399000
     49 H18        -0.8040   -0.9710    2.0950 hc        1 0T9      0.061200
     50 H19        -0.3180   -2.7070    2.0070 hc        1 0T9      0.061200
     51 H20         1.5400   -2.9630    3.3320 ha        1 0T9      0.124000
     52 H21         3.4010   -1.9170    4.5250 hc        1 0T9      0.049700
     53 H22         4.0720   -2.4560    2.9360 hc        1 0T9      0.049700
     54 H23         3.2210    0.3740    3.8300 hc        1 0T9      0.060700
     55 H24         5.7490   -0.8060    2.5080 hc        1 0T9      0.053700
     56 H25         6.0950   -1.6110    4.7110 hc        1 0T9      0.077700
     57 H26         5.2440   -0.2150    5.4890 hc        1 0T9      0.077700
     58 H27         7.7810    0.6560    2.6120 hc        1 0T9      0.097700
     59 H28         7.5370    2.9790    4.6260 hc        1 0T9      0.064700
     60 H29         6.9050    3.9220    2.4550 hc        1 0T9      0.044367
     61 H30         8.1910    2.9650    1.5980 hc        1 0T9      0.044367
     62 H31         8.6500    4.3090    2.7270 hc        1 0T9      0.044367
     63 H32         9.6310    3.7510    5.4250 hc        1 0T9      0.074700
     64 H33         9.5340    2.0610    6.0840 hc        1 0T9      0.074700
     65 H34        11.8360    1.5840    5.1910 hc        1 0T9      0.053200
     66 H35        11.9160    3.2420    4.4870 hc        1 0T9      0.053200
     67 H36        11.4970    4.1410    6.8970 hc        1 0T9      0.042700
     68 H37        12.3080    1.2310    7.5870 hc        1 0T9      0.035033
     69 H38        12.1500    2.6100    8.7520 hc        1 0T9      0.035033
     70 H39        10.6890    1.9860    7.8830 hc        1 0T9      0.035033
     71 H40        13.6960    4.0310    5.5580 hc        1 0T9      0.040700
     72 H41        14.0880    2.5170    6.4620 hc        1 0T9      0.040700
     73 H42        15.1220    4.5680    7.4840 hc        1 0T9      0.032033
     74 H43        13.9750    3.7630    8.6290 hc        1 0T9      0.032033
     75 H44        13.4730    5.2670    7.7560 hc        1 0T9      0.032033
@<TRIPOS>BOND
     1    1    4 1   
     2    1   11 1   
     3    1   32 1   
     4    1   33 1   
     5    2    3 1   
     6    2   13 1   
     7    2   14 2   
     8    3    4 1   
     9    3    5 1   
    10    3   10 1   
    11    4   34 1   
    12    4   35 1   
    13    5    9 1   
    14    5   16 1   
    15    5   36 1   
    16    6    7 1   
    17    6   37 1   
    18    6   38 1   
    19    6   39 1   
    20    7    8 1   
    21    7   17 1   
    22    7   21 1   
    23    8    9 1   
    24    8   40 1   
    25    8   41 1   
    26    9   42 1   
    27    9   43 1   
    28   10   44 1   
    29   10   45 1   
    30   10   46 1   
    31   11   12 1   
    32   11   13 1   
    33   11   47 1   
    34   12   48 1   
    35   13   49 1   
    36   13   50 1   
    37   14   15 1   
    38   14   51 1   
    39   15   16 1   
    40   15   52 1   
    41   15   53 1   
    42   16   17 1   
    43   16   54 1   
    44   17   18 1   
    45   17   55 1   
    46   18   19 1   
    47   18   56 1   
    48   18   57 1   
    49   19   20 2   
    50   19   21 1   
    51   21   22 1   
    52   21   58 1   
    53   22   23 1   
    54   22   24 1   
    55   22   59 1   
    56   23   60 1   
    57   23   61 1   
    58   23   62 1   
    59   24   25 2   
    60   24   26 1   
    61   26   27 1   
    62   26   63 1   
    63   26   64 1   
    64   27   28 1   
    65   27   65 1   
    66   27   66 1   
    67   28   29 1   
    68   28   30 1   
    69   28   67 1   
    70   29   68 1   
    71   29   69 1   
    72   29   70 1   
    73   30   31 1   
    74   30   71 1   
    75   30   72 1   
    76   31   73 1   
    77   31   74 1   
    78   31   75 1   
@<TRIPOS>SUBSTRUCTURE
     1 0T9         1 TEMP              0 ****  ****    0 ROOT
