@<TRIPOS>MOLECULE
0T9
   75    78     1     0     0
SMALL
bcc


@<TRIPOS>ATOM
      1 C2          0.1970   -0.3090   -0.4560 c3        1 0T9     -0.113400
      2 C4          1.3100   -1.2820    2.0370 c2        1 0T9     -0.108400
      3 C5          1.8720   -0.0170    1.4360 c3        1 0T9      0.000200
      4 C6          1.6330   -0.0250   -0.0820 c3        1 0T9     -0.066400
      5 C8          3.3990    0.0570    1.6720 c3        1 0T9     -0.049700
      6 C16         5.0350    2.3190    3.9090 c3        1 0T9     -0.089100
      7 C14         5.7340    1.3040    3.0210 c3        1 0T9     -0.041000
      8 C13         5.4550    1.5770    1.5520 c3        1 0T9     -0.065400
      9 C12         3.9760    1.4030    1.2460 c3        1 0T9     -0.076400
     10 C7          1.1580    1.1810    2.0550 c3        1 0T9     -0.084100
     11 C1         -0.2500   -1.6470    0.1200 c3        1 0T9      0.145100
     12 O1         -1.6340   -1.8750   -0.1220 oh        1 0T9     -0.601800
     13 C3         -0.0740   -1.6660    1.6350 c3        1 0T9     -0.039200
     14 C11         1.9780   -2.0310    2.9270 c2        1 0T9     -0.167200
     15 C10         3.3390   -1.7330    3.4200 c3        1 0T9     -0.043200
     16 C9          3.7590   -0.3010    3.1200 c3        1 0T9     -0.046700
     17 C15         5.2560   -0.1490    3.2900 c3        1 0T9     -0.066700
     18 C21         5.8850   -0.5120    4.6270 c3        1 0T9     -0.180400
     19 C18         7.1760    0.2800    4.6460 c         1 0T9      0.572100
     20 O2          8.0360    0.1970    5.5200 o         1 0T9     -0.531100
     21 C17         7.2260    1.2000    3.4250 c3        1 0T9     -0.156700
     22 C19         7.9810    2.4910    3.7020 c3        1 0T9     -0.146700
     23 C22         7.9300    3.4690    2.5430 c3        1 0T9     -0.088100
     24 C20         9.4490    2.1730    3.9640 c         1 0T9      0.580100
     25 O3         10.1240    1.5390    3.1480 o         1 0T9     -0.536100
     26 C23         9.9890    2.6910    5.2630 c3        1 0T9     -0.178400
     27 C24        11.5000    2.6300    5.3300 c3        1 0T9     -0.071400
     28 C25        12.0380    3.1710    6.6470 c3        1 0T9     -0.064700
     29 C27        11.7820    2.1950    7.7770 c3        1 0T9     -0.091100
     30 C26        13.5270    3.4650    6.5110 c3        1 0T9     -0.077400
     31 C28        14.0590    4.3030    7.6450 c3        1 0T9     -0.092100
     32 H1          0.0960   -0.3290   -1.5720 hc        1 0T9      0.047700
     33 H2         -0.4750    0.5010   -0.0700 hc        1 0T9      0.047700
     34 H3          1.9270    0.9710   -0.5040 hc        1 0T9      0.044700
     35 H4          2.2940   -0.8010   -0.5510 hc        1 0T9      0.044700
     36 H5          3.8720   -0.7330    1.0180 hc        1 0T9      0.049700
     37 H6          5.3940    3.3500    3.6760 hc        1 0T9      0.039367
     38 H7          5.2470    2.1040    4.9850 hc        1 0T9      0.039367
     39 H8          3.9290    2.2970    3.7590 hc        1 0T9      0.039367
     40 H9          6.0620    0.8760    0.9200 hc        1 0T9      0.046200
     41 H10         5.7610    2.6210    1.2840 hc        1 0T9      0.046200
     42 H11         3.4100    2.2340    1.7420 hc        1 0T9      0.044200
     43 H12         3.8340    1.5190    0.1380 hc        1 0T9      0.044200
     44 H13         0.0560    1.0030    2.0940 hc        1 0T9      0.038033
     45 H14         1.3350    2.1000    1.4450 hc        1 0T9      0.038033
     46 H15         1.5220    1.3650    3.0940 hc        1 0T9      0.038033
     47 H16         0.3470   -2.4810   -0.3470 h1        1 0T9      0.036700
     48 H17        -1.7630   -1.8060   -1.0750 ho        1 0T9      0.399000
     49 H18        -0.3300   -2.6910    2.0130 hc        1 0T9      0.061200
     50 H19        -0.8110   -0.9530    2.0960 hc        1 0T9      0.061200
     51 H20         1.5260   -2.9500    3.3390 ha        1 0T9      0.124000
     52 H21         3.3910   -1.9060    4.5290 hc        1 0T9      0.049700
     53 H22         4.0610   -2.4510    2.9420 hc        1 0T9      0.049700
     54 H23         3.2190    0.3840    3.8280 hc        1 0T9      0.060700
     55 H24         5.7420   -0.8080    2.5090 hc        1 0T9      0.053700
     56 H25         6.0850   -1.6080    4.7150 hc        1 0T9      0.077700
     57 H26         5.2390   -0.2070    5.4890 hc        1 0T9      0.077700
     58 H27         7.7790    0.6480    2.6100 hc        1 0T9      0.097700
     59 H28         7.5430    2.9780    4.6170 hc        1 0T9      0.064700
     60 H29         8.1960    2.9530    1.5890 hc        1 0T9      0.044367
     61 H30         8.6600    4.2980    2.7140 hc        1 0T9      0.044367
     62 H31         6.9140    3.9170    2.4430 hc        1 0T9      0.044367
     63 H32         9.5360    2.0580    6.0780 hc        1 0T9      0.074700
     64 H33         9.6390    3.7460    5.4130 hc        1 0T9      0.074700
     65 H34        11.8360    1.5690    5.1880 hc        1 0T9      0.053200
     66 H35        11.9220    3.2240    4.4760 hc        1 0T9      0.053200
     67 H36        11.5080    4.1370    6.8810 hc        1 0T9      0.042700
     68 H37        10.6880    1.9920    7.8790 hc        1 0T9      0.035033
     69 H38        12.1530    2.6120    8.7440 hc        1 0T9      0.035033
     70 H39        12.3030    1.2260    7.5860 hc        1 0T9      0.035033
     71 H40        14.0910    2.4970    6.4570 hc        1 0T9      0.040700
     72 H41        13.7070    4.0070    5.5440 hc        1 0T9      0.040700
     73 H42        13.4890    5.2580    7.7330 hc        1 0T9      0.032033
     74 H43        13.9820    3.7580    8.6160 hc        1 0T9      0.032033
     75 H44        15.1340    4.5490    7.4680 hc        1 0T9      0.032033
@<TRIPOS>BOND
     1    1    4 1   
     2    1   11 1   
     3    1   32 1   
     4    1   33 1   
     5    2    3 1   
     6    2   13 1   
     7    2   14 2   
     8    3    4 1   
     9    3    5 1   
    10    3   10 1   
    11    4   34 1   
    12    4   35 1   
    13    5    9 1   
    14    5   16 1   
    15    5   36 1   
    16    6    7 1   
    17    6   37 1   
    18    6   38 1   
    19    6   39 1   
    20    7    8 1   
    21    7   17 1   
    22    7   21 1   
    23    8    9 1   
    24    8   40 1   
    25    8   41 1   
    26    9   42 1   
    27    9   43 1   
    28   10   44 1   
    29   10   45 1   
    30   10   46 1   
    31   11   12 1   
    32   11   13 1   
    33   11   47 1   
    34   12   48 1   
    35   13   49 1   
    36   13   50 1   
    37   14   15 1   
    38   14   51 1   
    39   15   16 1   
    40   15   52 1   
    41   15   53 1   
    42   16   17 1   
    43   16   54 1   
    44   17   18 1   
    45   17   55 1   
    46   18   19 1   
    47   18   56 1   
    48   18   57 1   
    49   19   20 2   
    50   19   21 1   
    51   21   22 1   
    52   21   58 1   
    53   22   23 1   
    54   22   24 1   
    55   22   59 1   
    56   23   60 1   
    57   23   61 1   
    58   23   62 1   
    59   24   25 2   
    60   24   26 1   
    61   26   27 1   
    62   26   63 1   
    63   26   64 1   
    64   27   28 1   
    65   27   65 1   
    66   27   66 1   
    67   28   29 1   
    68   28   30 1   
    69   28   67 1   
    70   29   68 1   
    71   29   69 1   
    72   29   70 1   
    73   30   31 1   
    74   30   71 1   
    75   30   72 1   
    76   31   73 1   
    77   31   74 1   
    78   31   75 1   
@<TRIPOS>SUBSTRUCTURE
     1 0T9         1 TEMP              0 ****  ****    0 ROOT
