@<TRIPOS>MOLECULE
0T9
   75    75     1     0     0
SMALL
bcc


@<TRIPOS>ATOM
      1 C2         -5.6400   -0.9000   -1.4270 c3        1 0T9     -0.192000
      2 C4         -4.3000   -2.0720    0.8870 c1        1 0T9     -0.099000
      3 C5         -3.7950   -1.0200    0.3850 c2        1 0T9     -0.004000
      4 C6         -4.1930   -0.8220   -1.1850 c3        1 0T9     -0.145000
      5 C8         -2.1270   -0.9040    0.5160 c3        1 0T9     -0.088000
      6 C16        -0.6250    1.7320    2.0520 c3        1 0T9     -0.208000
      7 C14        -0.0850    0.6120    1.1110 c3        1 0T9     -0.046000
      8 C13        -0.4670    0.8120   -0.0100 c3        1 0T9     -0.146000
      9 C12        -1.6790    0.6150   -0.1070 c3        1 0T9     -0.154000
     10 C7         -4.3860    0.1590    1.1500 c3        1 0T9     -0.203000
     11 C1         -6.2080   -2.0290   -0.8820 c3        1 0T9      0.034000
     12 O1         -7.6680   -1.9550   -1.0490 oh        1 0T9     -0.329000
     13 C3         -5.8700   -2.2080    0.6950 c3        1 0T9     -0.122000
     14 C11        -3.6360   -2.5480    2.0900 c1        1 0T9     -0.164000
     15 C10        -2.0000   -2.2040    2.1650 c2        1 0T9     -0.126000
     16 C9         -1.7110   -1.0810    1.6060 c3        1 0T9     -0.086000
     17 C15        -0.5690   -0.8950    1.6950 c3        1 0T9     -0.103000
     18 C21        -0.1720   -0.8530    2.8730 c3        1 0T9     -0.209000
     19 C18         1.3510   -0.1230    2.6210 c1        1 0T9      0.235000
     20 O2          2.4090   -0.4570    3.1490 o         1 0T9     -0.285000
     21 C17         1.1970    0.5530    1.2070 c2        1 0T9     -0.146000
     22 C19         1.4020    0.2890    0.8050 c3        1 0T9     -0.137000
     23 C22         1.6170   -1.5870    1.3170 c3        1 0T9     -0.213000
     24 C20         3.1830    1.0480    0.3840 c2        1 0T9      0.232000
     25 O3          3.9460    1.3460    1.2880 o         1 0T9     -0.289000
     26 C23         3.6370    1.1680   -1.0590 c3        1 0T9     -0.210000
     27 C24         5.1290    1.5660   -1.0940 c3        1 0T9     -0.152000
     28 C25         5.5570    1.7880   -2.5170 c3        1 0T9     -0.105000
     29 C27         5.6540    3.2750   -2.7910 c3        1 0T9     -0.208000
     30 C26         6.9270    1.1370   -2.7470 c3        1 0T9     -0.156000
     31 C28         7.3740    1.3840   -4.1840 c3        1 0T9     -0.211000
     32 H1         -6.0770   -0.0970   -1.0300 hc        1 0T9      0.087500
     33 H2         -5.7960   -0.9020   -2.3690 hc        1 0T9      0.087500
     34 H3         -3.8720    0.0520   -1.4830 hc        1 0T9      0.083000
     35 H4         -3.7490   -1.5150   -1.7120 hc        1 0T9      0.083000
     36 H5         -1.7440   -1.5760   -0.0520 hc        1 0T9      0.086000
     37 H6         -0.9610    2.4700    1.5160 hc        1 0T9      0.080667
     38 H7         -1.3560    1.3700    2.6120 hc        1 0T9      0.080667
     39 H8          0.0960    2.0500    2.6250 hc        1 0T9      0.080667
     40 H9         -0.2690    1.7500   -0.2570 hc        1 0T9      0.085000
     41 H10         0.0160    0.2000   -0.6350 hc        1 0T9      0.085000
     42 H11        -1.9360    0.6580   -1.0630 hc        1 0T9      0.084500
     43 H12        -2.1520    1.3070    0.3780 hc        1 0T9      0.084500
     44 H13        -4.1650    0.9840    0.6960 hc        1 0T9      0.078000
     45 H14        -5.3710    0.0620    1.1970 hc        1 0T9      0.078000
     46 H15        -4.0220    0.1770    2.0440 hc        1 0T9      0.078000
     47 H16        -5.8790   -2.8050   -1.3610 h1        1 0T9      0.075000
     48 H17        -7.9780   -2.7510   -1.3310 ho        1 0T9      0.198000
     49 H18        -6.1890   -2.9560    1.2090 hc        1 0T9      0.101000
     50 H19        -6.3470   -1.4890    1.1240 hc        1 0T9      0.101000
     51 H20        -4.0070   -3.3260    2.5930 ha        1 0T9      0.124000
     52 H21        -1.5100   -3.0150    1.8930 ha        1 0T9      0.088500
     53 H22        -1.6920   -2.1160    3.0930 ha        1 0T9      0.088500
     54 H23        -2.1360   -0.3920    2.1620 hc        1 0T9      0.101000
     55 H24        -0.0910   -1.5930    1.2190 hc        1 0T9      0.087000
     56 H25        -0.1920   -1.7000    3.3440 hc        1 0T9      0.116000
     57 H26        -0.7360   -0.2970    3.4360 hc        1 0T9      0.116000
     58 H27         1.7120    1.4060    1.1560 ha        1 0T9      0.143000
     59 H28         0.8250    0.3560    0.0370 hc        1 0T9      0.102000
     60 H29         1.1390   -1.7530    2.1270 hc        1 0T9      0.089667
     61 H30         1.2670   -2.1580    0.6110 hc        1 0T9      0.089667
     62 H31         2.5750   -1.7830    1.4540 hc        1 0T9      0.089667
     63 H32         3.0990    1.8610   -1.5180 hc        1 0T9      0.106000
     64 H33         3.5170    0.3090   -1.5120 hc        1 0T9      0.106000
     65 H34         5.2580    2.3910   -0.5810 hc        1 0T9      0.094000
     66 H35         5.6790    0.8320   -0.6900 hc        1 0T9      0.094000
     67 H36         4.9010    1.3880   -3.1200 hc        1 0T9      0.085000
     68 H37         6.3320    3.6740   -2.2000 hc        1 0T9      0.072667
     69 H38         4.7750    3.7020   -2.6210 hc        1 0T9      0.072667
     70 H39         5.9130    3.4180   -3.7300 hc        1 0T9      0.072667
     71 H40         7.5810    1.5270   -2.1320 hc        1 0T9      0.081500
     72 H41         6.8620    0.1650   -2.5850 hc        1 0T9      0.081500
     73 H42         7.8610    2.2410   -4.2340 hc        1 0T9      0.072333
     74 H43         7.9800    0.6330   -4.4810 hc        1 0T9      0.072333
     75 H44         6.5860    1.4200   -4.7700 hc        1 0T9      0.072333
@<TRIPOS>BOND
     1    1    4 1   
     2    1   11 1   
     3    1   32 1   
     4    1   33 1   
     5    2   13 1   
     6    2   14 1   
     7    3    4 1   
     8    3    5 1   
     9    3   10 1   
    10    4   34 1   
    11    4   35 1   
    12    5    9 1   
    13    5   16 1   
    14    5   36 1   
    15    6    7 1   
    16    6   37 1   
    17    6   38 1   
    18    6   39 1   
    19    7    8 1   
    20    7   17 1   
    21    7   21 1   
    22    8    9 1   
    23    8   40 1   
    24    8   41 1   
    25    9   42 1   
    26    9   43 1   
    27   10   44 1   
    28   10   45 1   
    29   10   46 1   
    30   11   12 1   
    31   11   13 1   
    32   11   47 1   
    33   12   48 1   
    34   13   49 1   
    35   13   50 1   
    36   14   51 1   
    37   15   16 1   
    38   15   52 1   
    39   15   53 1   
    40   16   17 1   
    41   16   54 1   
    42   17   18 1   
    43   17   55 1   
    44   18   19 1   
    45   18   56 1   
    46   18   57 1   
    47   19   20 1   
    48   21   22 1   
    49   21   58 1   
    50   22   23 1   
    51   22   24 1   
    52   22   59 1   
    53   23   60 1   
    54   23   61 1   
    55   23   62 1   
    56   24   25 1   
    57   24   26 1   
    58   26   27 1   
    59   26   63 1   
    60   26   64 1   
    61   27   28 1   
    62   27   65 1   
    63   27   66 1   
    64   28   29 1   
    65   28   30 1   
    66   28   67 1   
    67   29   68 1   
    68   29   69 1   
    69   29   70 1   
    70   30   31 1   
    71   30   71 1   
    72   30   72 1   
    73   31   73 1   
    74   31   74 1   
    75   31   75 1   
@<TRIPOS>SUBSTRUCTURE
     1 0T9         1 TEMP              0 ****  ****    0 ROOT
