@<TRIPOS>MOLECULE
0T9
   75    78     1     0     0
SMALL
bcc


@<TRIPOS>ATOM
      1 C2          6.7120   -1.3120   -0.4230 c3        1 0T9     -0.075400
      2 C4          5.0480    0.9570    0.2940 c2        1 0T9     -0.103400
      3 C5          4.4230   -0.4150    0.2390 c3        1 0T9      0.000200
      4 C6          5.2310   -1.3050   -0.7190 c3        1 0T9     -0.070400
      5 C8          2.9790   -0.3230   -0.3080 c3        1 0T9     -0.049700
      6 C16         0.0060   -0.8240    1.6190 c3        1 0T9     -0.089100
      7 C14         0.0460   -0.5180    0.1310 c3        1 0T9     -0.041000
      8 C13         0.7860   -1.6050   -0.6310 c3        1 0T9     -0.065400
      9 C12         2.2460   -1.6570   -0.2090 c3        1 0T9     -0.076400
     10 C7          4.4470   -1.0250    1.6380 c3        1 0T9     -0.084100
     11 C1          7.2680    0.1040   -0.4860 c3        1 0T9      0.145100
     12 O1          8.6460    0.0190   -0.1450 oh        1 0T9     -0.599800
     13 C3          6.5250    1.0150    0.4880 c3        1 0T9     -0.076200
     14 C11         4.3380    2.0920    0.2160 c2        1 0T9     -0.169200
     15 C10         2.8710    2.1520    0.0490 c3        1 0T9     -0.043200
     16 C9          2.2010    0.8210    0.3570 c3        1 0T9     -0.046700
     17 C15         0.7860    0.8110   -0.1820 c3        1 0T9     -0.066700
     18 C21        -0.1800    1.8960    0.2710 c3        1 0T9     -0.180400
     19 C18        -1.5460    1.2770    0.0520 c         1 0T9      0.572100
     20 O2         -2.6140    1.8660    0.2050 o         1 0T9     -0.531100
     21 C17        -1.3810   -0.1840   -0.3690 c3        1 0T9     -0.156700
     22 C19        -2.5290   -1.0590    0.1110 c3        1 0T9     -0.146700
     23 C22        -2.3170   -2.5310   -0.1860 c3        1 0T9     -0.088100
     24 C20        -3.8160   -0.6340   -0.5860 c         1 0T9      0.580100
     25 O3         -3.8960   -0.5930   -1.8170 o         1 0T9     -0.536100
     26 C23        -4.9500   -0.2860    0.3310 c3        1 0T9     -0.178400
     27 C24        -6.2740   -0.1860   -0.3950 c3        1 0T9     -0.071400
     28 C25        -7.4200    0.1580    0.5470 c3        1 0T9     -0.064700
     29 C27        -7.3540    1.6110    0.9700 c3        1 0T9     -0.091100
     30 C26        -8.7500   -0.1520   -0.1300 c3        1 0T9     -0.077400
     31 C28        -9.9060   -0.1530    0.8370 c3        1 0T9     -0.092100
     32 H1          6.9100   -1.7420    0.5940 hc        1 0T9      0.056200
     33 H2          7.2490   -1.9530   -1.1690 hc        1 0T9      0.056200
     34 H3          5.0680   -0.9500   -1.7710 hc        1 0T9      0.045200
     35 H4          4.8460   -2.3570   -0.6530 hc        1 0T9      0.045200
     36 H5          3.0570   -0.0640   -1.4040 hc        1 0T9      0.050700
     37 H6         -0.5190   -1.7930    1.8020 hc        1 0T9      0.039367
     38 H7          1.0340   -0.9050    2.0460 hc        1 0T9      0.039367
     39 H8         -0.5380   -0.0170    2.1670 hc        1 0T9      0.039367
     40 H9          0.3180   -2.6050   -0.4410 hc        1 0T9      0.046200
     41 H10         0.7140   -1.4040   -1.7320 hc        1 0T9      0.046200
     42 H11         2.7710   -2.4030   -0.8630 hc        1 0T9      0.044700
     43 H12         2.2980   -2.0430    0.8430 hc        1 0T9      0.044700
     44 H13         4.2580   -2.1250    1.5880 hc        1 0T9      0.038367
     45 H14         5.4450   -0.8700    2.1140 hc        1 0T9      0.038367
     46 H15         3.6700   -0.5560    2.2870 hc        1 0T9      0.038367
     47 H16         7.1710    0.5090   -1.5340 h1        1 0T9      0.036700
     48 H17         8.9890    0.9200   -0.1490 ho        1 0T9      0.399000
     49 H18         6.8980    2.0670    0.3600 hc        1 0T9      0.052700
     50 H19         6.7760    0.7030    1.5380 hc        1 0T9      0.052700
     51 H20         4.8400    3.0730    0.2620 ha        1 0T9      0.122000
     52 H21         2.4410    2.9440    0.7200 hc        1 0T9      0.049700
     53 H22         2.6420    2.4590   -1.0090 hc        1 0T9      0.049700
     54 H23         2.1910    0.6770    1.4720 hc        1 0T9      0.060700
     55 H24         0.8640    0.8900   -1.3070 hc        1 0T9      0.053700
     56 H25        -0.0470    2.1500    1.3520 hc        1 0T9      0.077700
     57 H26        -0.0670    2.8360   -0.3230 hc        1 0T9      0.077700
     58 H27        -1.3790   -0.2120   -1.4980 hc        1 0T9      0.097700
     59 H28        -2.6500   -0.9190    1.2220 hc        1 0T9      0.064700
     60 H29        -2.0220   -2.6720   -1.2540 hc        1 0T9      0.044700
     61 H30        -1.5240   -2.9620    0.4700 hc        1 0T9      0.044700
     62 H31        -3.2640   -3.0960   -0.0030 hc        1 0T9      0.044700
     63 H32        -5.0150   -1.0560    1.1450 hc        1 0T9      0.074700
     64 H33        -4.6900    0.6990    0.8090 hc        1 0T9      0.074700
     65 H34        -6.1980    0.5910   -1.2010 hc        1 0T9      0.053700
     66 H35        -6.4820   -1.1650   -0.9030 hc        1 0T9      0.053700
     67 H36        -7.3330   -0.4870    1.4660 hc        1 0T9      0.042700
     68 H37        -6.3810    1.8290    1.4730 hc        1 0T9      0.035033
     69 H38        -7.4510    2.2830    0.0840 hc        1 0T9      0.035033
     70 H39        -8.1790    1.8460    1.6850 hc        1 0T9      0.035033
     71 H40        -8.9350    0.6010   -0.9410 hc        1 0T9      0.040700
     72 H41        -8.6860   -1.1590   -0.6210 hc        1 0T9      0.040700
     73 H42       -10.8450   -0.4510    0.3120 hc        1 0T9      0.032033
     74 H43        -9.7250   -0.8740    1.6710 hc        1 0T9      0.032033
     75 H44       -10.0600    0.8610    1.2790 hc        1 0T9      0.032033
@<TRIPOS>BOND
     1    1    4 1   
     2    1   11 1   
     3    1   32 1   
     4    1   33 1   
     5    2    3 1   
     6    2   13 1   
     7    2   14 2   
     8    3    4 1   
     9    3    5 1   
    10    3   10 1   
    11    4   34 1   
    12    4   35 1   
    13    5    9 1   
    14    5   16 1   
    15    5   36 1   
    16    6    7 1   
    17    6   37 1   
    18    6   38 1   
    19    6   39 1   
    20    7    8 1   
    21    7   17 1   
    22    7   21 1   
    23    8    9 1   
    24    8   40 1   
    25    8   41 1   
    26    9   42 1   
    27    9   43 1   
    28   10   44 1   
    29   10   45 1   
    30   10   46 1   
    31   11   12 1   
    32   11   13 1   
    33   11   47 1   
    34   12   48 1   
    35   13   49 1   
    36   13   50 1   
    37   14   15 1   
    38   14   51 1   
    39   15   16 1   
    40   15   52 1   
    41   15   53 1   
    42   16   17 1   
    43   16   54 1   
    44   17   18 1   
    45   17   55 1   
    46   18   19 1   
    47   18   56 1   
    48   18   57 1   
    49   19   20 2   
    50   19   21 1   
    51   21   22 1   
    52   21   58 1   
    53   22   23 1   
    54   22   24 1   
    55   22   59 1   
    56   23   60 1   
    57   23   61 1   
    58   23   62 1   
    59   24   25 2   
    60   24   26 1   
    61   26   27 1   
    62   26   63 1   
    63   26   64 1   
    64   27   28 1   
    65   27   65 1   
    66   27   66 1   
    67   28   29 1   
    68   28   30 1   
    69   28   67 1   
    70   29   68 1   
    71   29   69 1   
    72   29   70 1   
    73   30   31 1   
    74   30   71 1   
    75   30   72 1   
    76   31   73 1   
    77   31   74 1   
    78   31   75 1   
@<TRIPOS>SUBSTRUCTURE
     1 0T9         1 TEMP              0 ****  ****    0 ROOT
