@<TRIPOS>MOLECULE
0T9
   75    78     1     0     0
SMALL
bcc


@<TRIPOS>ATOM
      1 C2          0.1900   -0.3060   -0.4470 c3        1 0T9     -0.113400
      2 C4          1.3230   -1.3010    2.0280 c2        1 0T9     -0.108400
      3 C5          1.8720   -0.0250    1.4410 c3        1 0T9      0.000200
      4 C6          1.6250   -0.0160   -0.0760 c3        1 0T9     -0.066400
      5 C8          3.3990    0.0590    1.6700 c3        1 0T9     -0.049700
      6 C16         5.0290    2.3050    3.9280 c3        1 0T9     -0.089100
      7 C14         5.7310    1.3060    3.0240 c3        1 0T9     -0.041000
      8 C13         5.4430    1.5960    1.5610 c3        1 0T9     -0.065400
      9 C12         3.9640    1.4140    1.2590 c3        1 0T9     -0.076400
     10 C7          1.1510    1.1610    2.0770 c3        1 0T9     -0.084100
     11 C1         -0.2440   -1.6540    0.1150 c3        1 0T9      0.145100
     12 O1         -1.6270   -1.8900   -0.1240 oh        1 0T9     -0.601800
     13 C3         -0.0600   -1.6910    1.6290 c3        1 0T9     -0.039200
     14 C11         2.0000   -2.0560    2.9060 c2        1 0T9     -0.167200
     15 C10         3.3610   -1.7530    3.3970 c3        1 0T9     -0.043200
     16 C9          3.7690   -0.3150    3.1130 c3        1 0T9     -0.046700
     17 C15         5.2650   -0.1530    3.2770 c3        1 0T9     -0.066700
     18 C21         5.9030   -0.5280    4.6070 c3        1 0T9     -0.180400
     19 C18         7.1880    0.2740    4.6300 c         1 0T9      0.572100
     20 O2          8.0530    0.1870    5.4990 o         1 0T9     -0.531100
     21 C17         7.2260    1.2100    3.4200 c3        1 0T9     -0.156700
     22 C19         7.9720    2.5030    3.7100 c3        1 0T9     -0.146700
     23 C22         7.9080    3.4940    2.5640 c3        1 0T9     -0.088100
     24 C20         9.4440    2.1930    3.9610 c         1 0T9      0.580100
     25 O3         10.1200    1.5740    3.1340 o         1 0T9     -0.536100
     26 C23         9.9860    2.6990    5.2640 c3        1 0T9     -0.178400
     27 C24        11.4970    2.6490    5.3230 c3        1 0T9     -0.071400
     28 C25        12.0370    3.1770    6.6450 c3        1 0T9     -0.064700
     29 C27        11.7930    2.1860    7.7640 c3        1 0T9     -0.091100
     30 C26        13.5230    3.4850    6.5060 c3        1 0T9     -0.077400
     31 C28        14.0540    4.3120    7.6470 c3        1 0T9     -0.092100
     32 H1          0.0840   -0.3120   -1.5630 hc        1 0T9      0.047700
     33 H2         -0.4860    0.4950   -0.0480 hc        1 0T9      0.047700
     34 H3          1.9100    0.9880   -0.4880 hc        1 0T9      0.044700
     35 H4          2.2910   -0.7810   -0.5580 hc        1 0T9      0.044700
     36 H5          3.8750   -0.7190    1.0040 hc        1 0T9      0.049700
     37 H6          5.2470    2.0790    5.0000 hc        1 0T9      0.039367
     38 H7          3.9220    2.2770    3.7830 hc        1 0T9      0.039367
     39 H8          5.3780    3.3420    3.7060 hc        1 0T9      0.039367
     40 H9          5.7390    2.6460    1.3040 hc        1 0T9      0.046200
     41 H10         6.0520    0.9080    0.9170 hc        1 0T9      0.046200
     42 H11         3.3940    2.2350    1.7680 hc        1 0T9      0.044200
     43 H12         3.8160    1.5440    0.1530 hc        1 0T9      0.044200
     44 H13         0.0510    0.9730    2.1200 hc        1 0T9      0.038033
     45 H14         1.3190    2.0880    1.4780 hc        1 0T9      0.038033
     46 H15         1.5190    1.3340    3.1170 hc        1 0T9      0.038033
     47 H16         0.3570   -2.4780   -0.3660 h1        1 0T9      0.036700
     48 H17        -1.7610   -1.8100   -1.0760 ho        1 0T9      0.399000
     49 H18        -0.3070   -2.7220    1.9950 hc        1 0T9      0.061200
     50 H19        -0.8010   -0.9890    2.1010 hc        1 0T9      0.061200
     51 H20         1.5580   -2.9830    3.3090 ha        1 0T9      0.124000
     52 H21         3.4190   -1.9400    4.5030 hc        1 0T9      0.049700
     53 H22         4.0860   -2.4600    2.9060 hc        1 0T9      0.049700
     54 H23         3.2260    0.3570    3.8310 hc        1 0T9      0.060700
     55 H24         5.7530   -0.7990    2.4860 hc        1 0T9      0.053700
     56 H25         6.1130   -1.6230    4.6800 hc        1 0T9      0.077700
     57 H26         5.2590   -0.2390    5.4760 hc        1 0T9      0.077700
     58 H27         7.7790    0.6720    2.5960 hc        1 0T9      0.097700
     59 H28         7.5340    2.9750    4.6330 hc        1 0T9      0.064700
     60 H29         8.6320    4.3270    2.7410 hc        1 0T9      0.044367
     61 H30         8.1740    2.9920    1.6020 hc        1 0T9      0.044367
     62 H31         6.8880    3.9360    2.4740 hc        1 0T9      0.044367
     63 H32         9.5410    2.0530    6.0730 hc        1 0T9      0.074700
     64 H33         9.6280    3.7490    5.4290 hc        1 0T9      0.074700
     65 H34        11.9110    3.2560    4.4750 hc        1 0T9      0.053200
     66 H35        11.8400    1.5920    5.1670 hc        1 0T9      0.053200
     67 H36        11.5000    4.1360    6.8940 hc        1 0T9      0.042700
     68 H37        10.7020    1.9730    7.8680 hc        1 0T9      0.035033
     69 H38        12.3210    1.2230    7.5590 hc        1 0T9      0.035033
     70 H39        12.1650    2.5940    8.7350 hc        1 0T9      0.035033
     71 H40        14.0940    2.5220    6.4380 hc        1 0T9      0.040700
     72 H41        13.6940    4.0400    5.5450 hc        1 0T9      0.040700
     73 H42        13.9850    3.7550    8.6130 hc        1 0T9      0.032033
     74 H43        15.1260    4.5690    7.4690 hc        1 0T9      0.032033
     75 H44        13.4760    5.2630    7.7500 hc        1 0T9      0.032033
@<TRIPOS>BOND
     1    1    4 1   
     2    1   11 1   
     3    1   32 1   
     4    1   33 1   
     5    2    3 1   
     6    2   13 1   
     7    2   14 2   
     8    3    4 1   
     9    3    5 1   
    10    3   10 1   
    11    4   34 1   
    12    4   35 1   
    13    5    9 1   
    14    5   16 1   
    15    5   36 1   
    16    6    7 1   
    17    6   37 1   
    18    6   38 1   
    19    6   39 1   
    20    7    8 1   
    21    7   17 1   
    22    7   21 1   
    23    8    9 1   
    24    8   40 1   
    25    8   41 1   
    26    9   42 1   
    27    9   43 1   
    28   10   44 1   
    29   10   45 1   
    30   10   46 1   
    31   11   12 1   
    32   11   13 1   
    33   11   47 1   
    34   12   48 1   
    35   13   49 1   
    36   13   50 1   
    37   14   15 1   
    38   14   51 1   
    39   15   16 1   
    40   15   52 1   
    41   15   53 1   
    42   16   17 1   
    43   16   54 1   
    44   17   18 1   
    45   17   55 1   
    46   18   19 1   
    47   18   56 1   
    48   18   57 1   
    49   19   20 2   
    50   19   21 1   
    51   21   22 1   
    52   21   58 1   
    53   22   23 1   
    54   22   24 1   
    55   22   59 1   
    56   23   60 1   
    57   23   61 1   
    58   23   62 1   
    59   24   25 2   
    60   24   26 1   
    61   26   27 1   
    62   26   63 1   
    63   26   64 1   
    64   27   28 1   
    65   27   65 1   
    66   27   66 1   
    67   28   29 1   
    68   28   30 1   
    69   28   67 1   
    70   29   68 1   
    71   29   69 1   
    72   29   70 1   
    73   30   31 1   
    74   30   71 1   
    75   30   72 1   
    76   31   73 1   
    77   31   74 1   
    78   31   75 1   
@<TRIPOS>SUBSTRUCTURE
     1 0T9         1 TEMP              0 ****  ****    0 ROOT
