@<TRIPOS>MOLECULE
0TA
   42    43     1     0     0
SMALL
bcc


@<TRIPOS>ATOM
      1 N1          0.0060    0.7200    0.4990 n4        1 0TA     -0.819300
      2 N3          4.6140   -0.6420    0.3940 n         1 0TA     -0.332500
      3 C4          4.4100   -1.1890   -0.9070 c2        1 0TA     -0.114400
      4 C5          7.1400   -0.3490   -4.2770 c3        1 0TA     -0.099100
      5 C6          6.2790    0.6920   -3.6090 c3        1 0TA     -0.078400
      6 C7          5.9610    0.3450   -2.1670 c3        1 0TA     -0.071200
      7 C8          4.9930   -0.7660   -2.0410 c2        1 0TA     -0.081200
      8 C10         6.0480   -0.2310    2.3870 cc        1 0TA     -0.127400
      9 C13         7.4150   -0.3900    2.9790 c3        1 0TA     -0.065700
     10 C15         7.6110   -1.8300    3.4300 c2        1 0TA      0.429200
     11 C9          5.8970   -0.7540    1.0100 c         1 0TA      0.697700
     12 N5          7.8950   -2.2960    4.5750 n2        1 0TA     -0.716100
     13 N4          7.8670    1.3310    4.8940 n1        1 0TA     -0.319800
     14 C14         7.6520    0.5640    4.0460 c1        1 0TA      0.183700
     15 C11         5.0070    0.3360    3.0360 cd        1 0TA     -0.039200
     16 C12         3.7200    0.4500    2.4080 ca        1 0TA     -0.315400
     17 C1          2.6020    1.0430    3.0530 ca        1 0TA      0.543600
     18 C           2.7390    1.5840    4.4390 c3        1 0TA     -0.177400
     19 C3          3.5510   -0.0590    1.0670 ca        1 0TA      0.610200
     20 N2          2.3170    0.0330    0.4400 nb        1 0TA     -0.720000
     21 C2          1.3410    0.6190    1.1730 ca        1 0TA      0.742900
     22 N           1.3950    1.1350    2.4410 nb        1 0TA     -0.717000
     23 H5          0.0590    0.3350   -0.4530 hn        1 0TA      0.481467
     24 H4         -0.2730    1.7080    0.4590 hn        1 0TA      0.481467
     25 H6          3.7050   -2.0430   -0.9020 h4        1 0TA      0.157000
     26 H8          6.6320   -1.3440   -4.2820 hc        1 0TA      0.042033
     27 H7          8.1150   -0.4570   -3.7430 hc        1 0TA      0.042033
     28 H9          7.3480   -0.0550   -5.3340 hc        1 0TA      0.042033
     29 H10         5.3250    0.8210   -4.1850 hc        1 0TA      0.047200
     30 H12         6.8130    1.6800   -3.6260 hc        1 0TA      0.047200
     31 H11         5.5600    1.2590   -1.6500 hc        1 0TA      0.065700
     32 H13         6.9120    0.0520   -1.6340 hc        1 0TA      0.065700
     33 H14         4.7540   -1.3120   -2.9740 ha        1 0TA      0.157000
     34 H17         8.1850   -0.2000    2.1630 hc        1 0TA      0.135700
     35 H           7.4980   -2.5470    2.5860 h4        1 0TA      0.042800
     36 H16         8.0140   -1.6580    5.3340 hn        1 0TA      0.401400
     37 H15         5.1160    0.7270    4.0640 ha        1 0TA      0.176000
     38 H2          3.0460    0.7570    5.1300 hc        1 0TA      0.089033
     39 H1          3.5270    2.3800    4.4500 hc        1 0TA      0.089033
     40 H3          1.7850    2.0260    4.8220 hc        1 0TA      0.089033
     41 H131       -0.6840    0.1920    1.0490 hn        1 0TA      0.481467
     42 O           6.8220   -1.2780    0.3770 o         1 0TA     -0.547500
@<TRIPOS>BOND
     1    1   21 1   
     2    1   23 1   
     3    1   24 1   
     4    1   41 1   
     5    2    3 1   
     6    2   11 1   
     7    2   19 1   
     8    3    7 2   
     9    3   25 1   
    10    4    5 1   
    11    4   26 1   
    12    4   27 1   
    13    4   28 1   
    14    5    6 1   
    15    5   29 1   
    16    5   30 1   
    17    6    7 1   
    18    6   31 1   
    19    6   32 1   
    20    7   33 1   
    21    8    9 1   
    22    8   11 1   
    23    8   15 2   
    24    9   10 1   
    25    9   14 1   
    26    9   34 1   
    27   10   12 2   
    28   10   35 1   
    29   11   42 2   
    30   12   36 1   
    31   13   14 3   
    32   15   16 1   
    33   15   37 1   
    34   16   17 ar  
    35   16   19 ar  
    36   17   18 1   
    37   17   22 ar  
    38   18   38 1   
    39   18   39 1   
    40   18   40 1   
    41   19   20 ar  
    42   20   21 ar  
    43   21   22 ar  
@<TRIPOS>SUBSTRUCTURE
     1 0TA         1 TEMP              0 ****  ****    0 ROOT
