@<TRIPOS>MOLECULE
0TA
   41    44     1     0     0
SMALL
bcc


@<TRIPOS>ATOM
      1 N1          4.9800   -0.2040   -0.0440 nh        1 0TA     -0.938500
      2 N3          0.3430    0.8690   -0.0160 n         1 0TA     -0.415300
      3 C4          0.6560    2.2980   -0.0820 c3        1 0TA      0.097700
      4 C5          0.1210    3.1340    1.1020 c3        1 0TA     -0.091400
      5 C6         -0.0090    4.5540    0.5700 c3        1 0TA     -0.074400
      6 C7          0.0030    4.4820   -0.9530 c3        1 0TA     -0.074400
      7 C8          0.1400    3.0180   -1.3470 c3        1 0TA     -0.091400
      8 C10        -1.3210   -0.9880    0.0550 cc        1 0TA     -0.088400
      9 C13        -2.6950   -1.4000    0.0690 cc        1 0TA     -0.214100
     10 C15        -3.1870   -2.7120    0.2570 cd        1 0TA     -0.143300
     11 C9         -1.0150    0.4590   -0.0080 c         1 0TA      0.712700
     12 N5         -4.5740   -2.6240    0.1840 na        1 0TA     -0.021600
     13 N4         -4.9960   -1.3750   -0.0310 nd        1 0TA     -0.521800
     14 C14        -3.8920   -0.5940   -0.1080 cc        1 0TA      0.335200
     15 C11        -0.3030   -1.8900    0.0990 cd        1 0TA     -0.026200
     16 C12         1.0600   -1.4750    0.0930 ca        1 0TA     -0.410400
     17 C1          2.1510   -2.3930    0.1510 ca        1 0TA      0.534600
     18 C           1.8550   -3.8600    0.2310 c3        1 0TA     -0.163400
     19 C3          1.3780   -0.0730    0.0320 ca        1 0TA      0.625200
     20 N2          2.6840    0.3500    0.0250 nb        1 0TA     -0.818000
     21 C2          3.6580   -0.6210    0.0580 ca        1 0TA      0.923900
     22 N           3.4290   -2.0010    0.1400 nb        1 0TA     -0.773000
     23 H5          5.1780    0.7600    0.0820 hn        1 0TA      0.440300
     24 H4          5.6920   -0.8580    0.1740 hn        1 0TA      0.440300
     25 H6          1.7800    2.4200   -0.0790 h1        1 0TA      0.090700
     26 H8         -0.8750    2.7600    1.4480 hc        1 0TA      0.057700
     27 H7          0.8290    3.0820    1.9650 hc        1 0TA      0.057700
     28 H9         -0.9560    5.0210    0.9370 hc        1 0TA      0.041950
     29 H10         0.8390    5.1870    0.9350 hc        1 0TA      0.041950
     30 H12        -0.9380    4.9120   -1.3770 hc        1 0TA      0.041950
     31 H11         0.8570    5.0780   -1.3630 hc        1 0TA      0.041950
     32 H13         0.8610    2.8850   -2.1900 hc        1 0TA      0.057700
     33 H14        -0.8520    2.6130   -1.6710 hc        1 0TA      0.057700
     34 H17        -2.6710   -3.6540    0.4330 h4        1 0TA      0.171000
     35 H          -5.2260   -3.3660    0.2780 hn        1 0TA      0.320700
     36 H16        -3.9390    0.4860   -0.2750 h4        1 0TA      0.074100
     37 H15        -0.5180   -2.9700    0.1400 ha        1 0TA      0.136000
     38 H2          1.2740   -4.1670   -0.6740 hc        1 0TA      0.062700
     39 H1          2.7850   -4.4770    0.2810 hc        1 0TA      0.062700
     40 H3          1.2440   -4.0630    1.1450 hc        1 0TA      0.062700
     41 O          -1.8990    1.3350   -0.0550 o         1 0TA     -0.624500
@<TRIPOS>BOND
     1    1   21 1   
     2    1   23 1   
     3    1   24 1   
     4    2    3 1   
     5    2   11 1   
     6    2   19 1   
     7    3    4 1   
     8    3    7 1   
     9    3   25 1   
    10    4    5 1   
    11    4   26 1   
    12    4   27 1   
    13    5    6 1   
    14    5   28 1   
    15    5   29 1   
    16    6    7 1   
    17    6   30 1   
    18    6   31 1   
    19    7   32 1   
    20    7   33 1   
    21    8    9 1   
    22    8   11 1   
    23    8   15 2   
    24    9   10 2   
    25    9   14 1   
    26   10   12 1   
    27   10   34 1   
    28   11   41 2   
    29   12   13 1   
    30   12   35 1   
    31   13   14 2   
    32   14   36 1   
    33   15   16 1   
    34   15   37 1   
    35   16   17 ar  
    36   16   19 ar  
    37   17   18 1   
    38   17   22 ar  
    39   18   38 1   
    40   18   39 1   
    41   18   40 1   
    42   19   20 ar  
    43   20   21 ar  
    44   21   22 ar  
@<TRIPOS>SUBSTRUCTURE
     1 0TA         1 TEMP              0 ****  ****    0 ROOT
