@<TRIPOS>MOLECULE
0TA
   41    42     1     0     0
SMALL
bcc


@<TRIPOS>ATOM
      1 N1          0.0090    0.5760    0.4890 nh        1 0TA     -0.946500
      2 N3          4.5980   -0.6310    0.3700 n         1 0TA     -0.351500
      3 C4          4.4230   -1.1080   -0.9590 c2        1 0TA     -0.057400
      4 C5          7.3240   -0.2320   -4.1620 c3        1 0TA     -0.094100
      5 C6          6.4570    0.8140   -3.5080 c3        1 0TA     -0.076400
      6 C7          6.0550    0.4320   -2.0970 c3        1 0TA     -0.062200
      7 C8          5.0490   -0.6500   -2.0560 c2        1 0TA     -0.129200
      8 C10         5.9820   -0.2800    2.3940 cc        1 0TA     -0.226400
      9 C13         7.3410   -0.4310    3.0000 c3        1 0TA     -0.050700
     10 C15         7.5380   -1.8600    3.4740 c2        1 0TA      0.440200
     11 C9          5.8570   -0.7570    1.0060 c         1 0TA      0.711700
     12 N5          7.8310   -2.3100    4.6260 n2        1 0TA     -0.749100
     13 N4          7.7880    1.3210    4.8890 n1        1 0TA     -0.363800
     14 C14         7.5770    0.5400    4.0540 c1        1 0TA      0.206700
     15 C11         4.9170    0.2470    3.0470 cd        1 0TA      0.029800
     16 C12         3.6490    0.3600    2.4050 ca        1 0TA     -0.432400
     17 C1          2.4940    0.9120    3.0410 ca        1 0TA      0.548600
     18 C           2.6180    1.4060    4.4500 c3        1 0TA     -0.168400
     19 C3          3.4950   -0.0920    1.0480 ca        1 0TA      0.633200
     20 N2          2.2940   -0.0050    0.3960 nb        1 0TA     -0.810000
     21 C2          1.2410    0.5290    1.1110 ca        1 0TA      0.938900
     22 N           1.3110    1.0080    2.4290 nb        1 0TA     -0.774000
     23 H5         -0.7400    1.0480    0.9330 hn        1 0TA      0.451300
     24 H4         -0.0620    0.3430   -0.4710 hn        1 0TA      0.451300
     25 H6          3.6710   -1.9190   -1.0260 h4        1 0TA      0.150000
     26 H8          6.7900   -1.2110   -4.2160 hc        1 0TA      0.034700
     27 H7          8.2660   -0.3820   -3.5810 hc        1 0TA      0.034700
     28 H9          7.5930    0.0820   -5.1990 hc        1 0TA      0.034700
     29 H10         7.0170    1.7860   -3.4700 hc        1 0TA      0.039700
     30 H12         5.5380    0.9850   -4.1290 hc        1 0TA      0.039700
     31 H11         6.9660    0.1020   -1.5220 hc        1 0TA      0.064200
     32 H13         5.6480    1.3420   -1.5770 hc        1 0TA      0.064200
     33 H14         4.8140   -1.1350   -3.0210 ha        1 0TA      0.138000
     34 H17         8.1150   -0.2530    2.1850 hc        1 0TA      0.123700
     35 H           7.4060   -2.5910    2.6450 h4        1 0TA      0.041800
     36 H16         7.9510   -1.6480    5.3650 hn        1 0TA      0.388400
     37 H15         5.0090    0.6020    4.0880 ha        1 0TA      0.150000
     38 H2          2.9300    0.5590    5.1100 hc        1 0TA      0.067033
     39 H1          3.3940    2.2100    4.4930 hc        1 0TA      0.067033
     40 H3          1.6550    1.8210    4.8390 hc        1 0TA      0.067033
     41 O           6.8080   -1.2670    0.3830 o         1 0TA     -0.624500
@<TRIPOS>BOND
     1    1   21 1   
     2    1   23 1   
     3    1   24 1   
     4    2    3 1   
     5    2   11 1   
     6    2   19 1   
     7    3    7 2   
     8    3   25 1   
     9    4    5 1   
    10    4   26 1   
    11    4   27 1   
    12    4   28 1   
    13    5    6 1   
    14    5   29 1   
    15    5   30 1   
    16    6    7 1   
    17    6   31 1   
    18    6   32 1   
    19    7   33 1   
    20    8    9 1   
    21    8   11 1   
    22    8   15 2   
    23    9   10 1   
    24    9   14 1   
    25    9   34 1   
    26   10   12 2   
    27   10   35 1   
    28   11   41 2   
    29   12   36 1   
    30   13   14 3   
    31   15   16 1   
    32   15   37 1   
    33   16   17 ar  
    34   16   19 ar  
    35   17   18 1   
    36   17   22 ar  
    37   18   38 1   
    38   18   39 1   
    39   18   40 1   
    40   19   20 ar  
    41   20   21 ar  
    42   21   22 ar  
@<TRIPOS>SUBSTRUCTURE
     1 0TA         1 TEMP              0 ****  ****    0 ROOT
