@<TRIPOS>MOLECULE
0TA
   41    35     1     0     0
SMALL
bcc


@<TRIPOS>ATOM
      1 N1         -4.2700   -0.5650   -0.5570 n3        1 0TA     -0.335000
      2 N3          0.3910   -0.2660   -0.5080 n         1 0TA     -0.229000
      3 C4          0.3430   -0.6740   -1.9050 c3        1 0TA      0.021000
      4 C5          0.6450   -2.2910   -2.0320 c3        1 0TA     -0.170000
      5 C6          1.0880   -2.4890   -3.2700 c3        1 0TA     -0.153500
      6 C7          1.7380   -1.1310   -3.6900 c3        1 0TA     -0.153500
      7 C8          1.2810   -0.0740   -2.5770 c3        1 0TA     -0.170000
      8 C10         1.5950    0.2630    1.7720 c1        1 0TA     -0.081000
      9 C13         1.8270    1.7590    1.8200 c1        1 0TA     -0.150000
     10 C15         2.9830    2.3800    2.1970 c1        1 0TA     -0.117500
     11 O           1.8670   -1.4490    0.2110 o         1 0TA     -0.364000
     12 C9          1.6770   -0.2490    0.2160 c2        1 0TA      0.350000
     13 N5          2.7730    3.7130    2.1540 n2        1 0TA     -0.128500
     14 N4          1.4800    3.9260    1.7490 n2        1 0TA     -0.128500
     15 C14         0.9020    2.7240    1.5450 c1        1 0TA     -0.117500
     16 C11         0.2030    0.2680    2.3220 c1        1 0TA     -0.033000
     17 C12        -0.8690   -0.1110    1.4860 c1        1 0TA     -0.266000
     18 C1         -2.1190   -0.2260    2.0780 c1        1 0TA      0.113000
     19 C          -2.9350   -0.1500    3.3510 c2        1 0TA     -0.188000
     20 C3         -0.7700    0.1000    0.1490 c1        1 0TA      0.215000
     21 N2         -1.8990    0.2000   -0.6100 n1        1 0TA     -0.292000
     22 C2         -3.1290    0.0870   -0.0240 c1        1 0TA      0.204000
     23 N          -3.2300   -0.1270    1.3260 n1        1 0TA     -0.246000
     24 H5         -4.9840   -0.7530   -0.0170 hn        1 0TA      0.235000
     25 H4         -4.2960   -0.7900   -1.4440 hn        1 0TA      0.235000
     26 H6         -0.5310   -0.4640   -2.2870 h1        1 0TA      0.130000
     27 H8          1.3290   -2.5580   -1.3830 hc        1 0TA      0.096750
     28 H7         -0.1790   -2.8000   -1.8830 hc        1 0TA      0.096750
     29 H9          0.3430   -2.7090   -3.8670 hc        1 0TA      0.081000
     30 H10         1.7570   -3.2050   -3.2820 hc        1 0TA      0.081000
     31 H12         1.4110   -0.8580   -4.5700 hc        1 0TA      0.081000
     32 H11         2.7130   -1.2120   -3.7000 hc        1 0TA      0.081000
     33 H13         2.0330    0.1470   -1.9890 hc        1 0TA      0.096750
     34 H14         0.9300    0.7360   -3.0010 hc        1 0TA      0.096750
     35 H17         3.8150    1.9380    2.4520 DU        1 0TA      0.218667
     36 H           3.3840    4.3580    2.3590 DU        1 0TA      0.218667
     37 H16        -0.0170    2.5720    1.2520 DU        1 0TA      0.218667
     38 H15         0.0570    0.3820    3.2810 ha        1 0TA      0.142000
     39 H2         -3.3490    0.7360    3.4220 ha        1 0TA      0.103000
     40 H1         -2.3510   -0.3010    4.1230 ha        1 0TA      0.103000
     41 H3         -3.6350   -0.8370    3.3310 ha        1 0TA      0.103000
@<TRIPOS>BOND
     1    1   22 1   
     2    1   24 1   
     3    1   25 1   
     4    2    3 1   
     5    2   12 1   
     6    2   20 1   
     7    3    4 1   
     8    3    7 1   
     9    3   26 1   
    10    4    5 1   
    11    4   27 1   
    12    4   28 1   
    13    5    6 1   
    14    5   29 1   
    15    5   30 1   
    16    6    7 1   
    17    6   31 1   
    18    6   32 1   
    19    7   33 1   
    20    7   34 1   
    21    8   12 1   
    22    8   16 1   
    23    9   10 1   
    24    9   15 1   
    25   10   13 1   
    26   11   12 1   
    27   13   14 1   
    28   14   15 1   
    29   16   38 1   
    30   17   20 1   
    31   18   23 1   
    32   19   39 1   
    33   19   40 1   
    34   19   41 1   
    35   21   22 1   
@<TRIPOS>SUBSTRUCTURE
     1 0TA         1 TEMP              0 ****  ****    0 ROOT
