@<TRIPOS>MOLECULE
0TA
   41    52     1     0     0
SMALL
bcc


@<TRIPOS>ATOM
      1 N1          0.0000    0.0000    0.0000 nv        1 0TA     -0.266000
      2 N3          4.6780    0.0000    0.0000 n         1 0TA      0.128000
      3 C4          4.6700    0.0070   -1.4650 DU        1 0TA     -0.117000
      4 C5          5.5740   -1.1150   -2.0020 DU        1 0TA     -0.353000
      5 C6          6.6790   -0.4310   -2.8360 DU        1 0TA     -0.311000
      6 C7          6.7450    1.0080   -2.2690 DU        1 0TA     -0.339000
      7 C8          5.2550    1.3350   -1.9900 c3        1 0TA     -0.494000
      8 C10         5.8760   -0.0070    2.1240 c3        1 0TA     -0.170000
      9 C13         7.1700   -0.0070    2.8510 c2        1 0TA     -0.108000
     10 C15         7.6480   -1.0080    3.6470 c3        1 0TA     -0.043000
     11 C9          5.8510    0.0000    0.6610 c2        1 0TA      0.241000
     12 N5          8.8510   -0.6180    4.1150 ny        1 0TA     -0.221000
     13 N4          9.1290    0.6550    3.6000 n7        1 0TA     -0.112000
     14 C14         8.1320    1.0220    2.8400 c2        1 0TA     -0.122000
     15 C11         4.6970   -0.0130    2.8160 c2        1 0TA     -0.111000
     16 C12         3.4790   -0.0020    2.0960 c2        1 0TA     -0.318000
     17 C1          2.2430   -0.0030    2.7590 c2        1 0TA      0.225000
     18 C           2.1760   -0.0150    4.2630 c3        1 0TA     -0.205000
     19 C3          3.4890   -0.0010    0.6850 c2        1 0TA      0.087000
     20 N2          2.3280   -0.0000    0.0390 n2        1 0TA     -0.367000
     21 C2          1.1860   -0.0010    0.7080 c2        1 0TA      0.346000
     22 N           1.1380   -0.0020    2.0360 n2        1 0TA     -0.153000
     23 H5          0.9680   -0.0010    0.2530 hn        1 0TA      0.129500
     24 H4         -0.0450    0.4370   -0.8990 hn        1 0TA      0.129500
     25 H6          3.6460   -0.0780   -1.1210 ha        1 0TA      0.227000
     26 H8          4.6140   -0.6190   -1.9210 DU        1 0TA      0.326000
     27 H7          4.9990   -1.7850   -2.6300 ha        1 0TA      0.117000
     28 H9          6.3500   -1.0460   -2.0060 DU        1 0TA      0.245000
     29 H10         6.4050   -0.4130   -3.8840 ha        1 0TA      0.096000
     30 H12         7.1850    0.0410   -2.4790 DU        1 0TA      0.249000
     31 H11         7.1540    1.6900   -3.0050 ha        1 0TA      0.109000
     32 H13         6.2800    1.1850   -1.6720 DU        1 0TA      0.267000
     33 H14         4.7560    1.6330   -2.9040 hc        1 0TA      0.082000
     34 H17         7.2220   -0.4710    2.8080 hx        1 0TA      0.096000
     35 H           8.0680   -1.2310    3.9990 DU        1 0TA      0.161000
     36 H16         8.5820    0.2790    3.4870 DU        1 0TA      0.302000
     37 H15         5.6220    0.5310    2.6730 DU        1 0TA      0.247000
     38 H2          3.2450    0.0620    4.1050 hc        1 0TA      0.101333
     39 H1          2.2370    0.9130    4.8190 hc        1 0TA      0.101333
     40 H3          2.2310   -0.9520    4.8040 hc        1 0TA      0.101333
     41 O           6.8980    0.0050    0.0360 o         1 0TA     -0.306000
@<TRIPOS>BOND
     1    1   21 1   
     2    1   23 1   
     3    1   24 1   
     4    2    3 1   
     5    2   11 1   
     6    2   19 1   
     7    3    4 1   
     8    3    7 1   
     9    3   25 1   
    10    3   26 1   
    11    4    5 1   
    12    4   26 1   
    13    4   27 1   
    14    4   28 1   
    15    5    6 1   
    16    5   28 1   
    17    5   29 1   
    18    5   30 1   
    19    6    7 1   
    20    6   30 1   
    21    6   31 1   
    22    6   32 1   
    23    7   32 1   
    24    7   33 1   
    25    8    9 1   
    26    8   11 1   
    27    8   15 1   
    28    8   37 1   
    29    9   10 1   
    30    9   14 1   
    31   10   12 1   
    32   10   34 1   
    33   10   35 1   
    34   11   41 1   
    35   12   13 1   
    36   12   35 1   
    37   12   36 1   
    38   13   14 1   
    39   13   36 1   
    40   14   36 1   
    41   15   16 1   
    42   15   37 1   
    43   16   17 1   
    44   16   19 1   
    45   17   18 1   
    46   17   22 1   
    47   18   38 1   
    48   18   39 1   
    49   18   40 1   
    50   19   20 1   
    51   20   21 1   
    52   21   22 1   
@<TRIPOS>SUBSTRUCTURE
     1 0TA         1 TEMP              0 ****  ****    0 ROOT
