@<TRIPOS>MOLECULE
0TB
   47    50     1     0     0
SMALL
bcc


@<TRIPOS>ATOM
      1 N1         -0.0230    0.1470   -0.2030 nb        1 0TB     -0.714000
      2 N3         -0.2330    0.0840    2.2510 nb        1 0TB     -0.689000
      3 C4          1.1460    0.0250    2.3730 ca        1 0TB      0.628200
      4 C5          1.9660    0.0360    1.1840 ca        1 0TB     -0.304400
      5 C6          1.3250    0.0930   -0.0850 ca        1 0TB      0.527600
      6 C8          2.1450    0.0960   -1.3350 c3        1 0TB     -0.173400
      7 C13         3.9940   -0.0810    2.5240 cc        1 0TB     -0.032400
      8 C15         5.4410   -0.0820    2.6580 ca        1 0TB     -0.230100
      9 C17         7.6150    0.6800    1.9130 ca        1 0TB     -0.003400
     10 C20         6.1050   -0.8680    3.6240 ca        1 0TB      0.478200
     11 C22        10.2020   -0.9470    3.9770 c3        1 0TB      0.120700
     12 C24         1.4190   -0.9040    7.0000 c3        1 0TB     -0.094400
     13 C26         1.1330    1.1330    5.6780 c3        1 0TB      0.133300
     14 C2         -0.7080    0.1410    0.9860 ca        1 0TB      0.722900
     15 N7         -2.2000    0.2060    0.8680 n4        1 0TB     -0.817300
     16 N9          1.7440   -0.0480    3.6390 n         1 0TB     -0.303700
     17 N10         0.8980   -0.0110    4.7530 nh        1 0TB     -0.446600
     18 C11         3.3910   -0.0060    1.3100 cd        1 0TB     -0.076200
     19 C12         3.1780   -0.1560    3.7580 c         1 0TB      0.682700
     20 O14         3.6600   -0.3020    4.8890 o         1 0TB     -0.558500
     21 C16         6.2240    0.7070    1.7940 ca        1 0TB     -0.091000
     22 C18         8.1920   -0.1660    2.9260 ca        1 0TB      0.640600
     23 N19         7.4390   -0.9230    3.7620 nb        1 0TB     -0.709000
     24 O21         9.5580   -0.1450    2.9790 os        1 0TB     -0.419100
     25 C23         0.9110   -1.2410    5.5940 c3        1 0TB      0.133300
     26 C25         1.5520    0.6100    7.0570 c3        1 0TB     -0.094400
     27 F27         8.4030    1.4220    1.1090 f         1 0TB     -0.104900
     28 H1          2.7740   -0.8300   -1.3660 hc        1 0TB      0.085033
     29 H2          1.5150    0.1260   -2.2590 hc        1 0TB      0.085033
     30 H3          2.8150    0.9930   -1.3350 hc        1 0TB      0.085033
     31 H4          5.5370   -1.4920    4.3430 h4        1 0TB      0.051100
     32 H5          9.9720   -2.0270    3.8180 h1        1 0TB      0.062700
     33 H6         11.2870   -0.7340    3.7950 h1        1 0TB      0.062700
     34 H7          9.8930   -0.6210    4.9990 h1        1 0TB      0.062700
     35 H8          0.7040   -1.2810    7.7710 hc        1 0TB      0.066450
     36 H9          2.4110   -1.3910    7.1780 hc        1 0TB      0.066450
     37 H10         1.8880    1.8680    5.2920 h1        1 0TB      0.069200
     38 H11         0.1350    1.6490    5.7350 h1        1 0TB      0.069200
     39 H12        -2.6270    0.1970    1.8040 hn        1 0TB      0.479467
     40 H13        -2.5260   -0.6050    0.3300 hn        1 0TB      0.479467
     41 H14         3.9970    0.0250    0.3870 ha        1 0TB      0.169000
     42 H15         5.7580    1.3550    1.0360 ha        1 0TB      0.152000
     43 H16        -0.1670   -1.5610    5.6270 h1        1 0TB      0.069200
     44 H17         1.5140   -2.0750    5.1480 h1        1 0TB      0.069200
     45 H18         2.6090    0.9040    7.2750 hc        1 0TB      0.066450
     46 H19         0.8990    1.0480    7.8510 hc        1 0TB      0.066450
     47 H73        -2.4580    1.0690    0.3760 hn        1 0TB      0.479467
@<TRIPOS>BOND
     1    1    5 ar  
     2    1   14 ar  
     3    2    3 ar  
     4    2   14 ar  
     5    3    4 ar  
     6    3   16 1   
     7    4    5 ar  
     8    4   18 1   
     9    5    6 1   
    10    6   28 1   
    11    6   29 1   
    12    6   30 1   
    13    7    8 1   
    14    7   18 2   
    15    7   19 1   
    16    8   10 ar  
    17    8   21 ar  
    18    9   21 ar  
    19    9   22 ar  
    20    9   27 1   
    21   10   23 ar  
    22   10   31 1   
    23   11   24 1   
    24   11   32 1   
    25   11   33 1   
    26   11   34 1   
    27   12   25 1   
    28   12   26 1   
    29   12   35 1   
    30   12   36 1   
    31   13   17 1   
    32   13   26 1   
    33   13   37 1   
    34   13   38 1   
    35   14   15 1   
    36   15   39 1   
    37   15   40 1   
    38   15   47 1   
    39   16   17 1   
    40   16   19 1   
    41   17   25 1   
    42   18   41 1   
    43   19   20 2   
    44   21   42 1   
    45   22   23 ar  
    46   22   24 1   
    47   25   43 1   
    48   25   44 1   
    49   26   45 1   
    50   26   46 1   
@<TRIPOS>SUBSTRUCTURE
     1 0TB         1 TEMP              0 ****  ****    0 ROOT
