@<TRIPOS>MOLECULE
0TB
   46    49     1     0     0
SMALL
bcc


@<TRIPOS>ATOM
      1 N1          3.6430   -3.0580   -0.0380 nb        1 0TB     -0.774000
      2 N3          3.8140   -0.5910    0.0460 nb        1 0TB     -0.778000
      3 C4          2.4470   -0.5060   -0.0170 ca        1 0TB      0.657200
      4 C5          1.6350   -1.6930   -0.0800 ca        1 0TB     -0.433400
      5 C6          2.3130   -2.9510   -0.0970 ca        1 0TB      0.539600
      6 C8          1.4990   -4.2060   -0.1890 c3        1 0TB     -0.165400
      7 C13        -0.4080   -0.3820   -0.1240 cc        1 0TB     -0.153400
      8 C15        -1.8600   -0.2790   -0.1310 ca        1 0TB     -0.163100
      9 C17        -4.0320   -1.0910    0.5660 ca        1 0TB     -0.009400
     10 C20        -2.5330    0.7090   -0.8840 ca        1 0TB      0.451200
     11 C22        -6.6270    0.9910   -1.0080 c3        1 0TB      0.124700
     12 C24         2.0970    4.1940   -0.6650 c3        1 0TB     -0.091400
     13 C26         2.4280    2.7250    1.2620 c3        1 0TB      0.137800
     14 C2          4.3610   -1.8560    0.0530 ca        1 0TB      0.925900
     15 N7          5.7350   -1.9520    0.1950 nh        1 0TB     -0.942500
     16 N9          1.8120    0.7610   -0.0290 n         1 0TB     -0.316700
     17 N10         2.6280    1.8890    0.0460 nh        1 0TB     -0.429600
     18 C11         0.2160   -1.5900   -0.1170 cd        1 0TB      0.013800
     19 C12         0.3850    0.8590   -0.1180 c         1 0TB      0.696700
     20 O14        -0.1290    1.9920   -0.1890 o         1 0TB     -0.629500
     21 C16        -2.6350   -1.1840    0.6100 ca        1 0TB     -0.106000
     22 C18        -4.6120   -0.0590   -0.2410 ca        1 0TB      0.602600
     23 N19        -3.8700    0.8250   -0.9510 nb        1 0TB     -0.710000
     24 O21        -5.9890   -0.0330   -0.2420 os        1 0TB     -0.434100
     25 C23         2.5490    2.8040   -1.1240 c3        1 0TB      0.137800
     26 C25         2.1660    4.1790    0.8550 c3        1 0TB     -0.091400
     27 F27        -4.8120   -1.9430    1.2630 f         1 0TB     -0.119900
     28 H1          0.8280   -4.2760    0.7030 hc        1 0TB      0.064367
     29 H2          0.8760   -4.1750   -1.1170 hc        1 0TB      0.064367
     30 H3          2.1390   -5.1220   -0.2230 hc        1 0TB      0.064367
     31 H4         -1.9640    1.4660   -1.4590 h4        1 0TB      0.052100
     32 H5         -6.3380    2.0010   -0.6310 h1        1 0TB      0.052033
     33 H6         -6.3740    0.8870   -2.0900 h1        1 0TB      0.052033
     34 H7         -7.7140    0.7920   -0.8290 h1        1 0TB      0.052033
     35 H8          2.7560    4.9830   -1.0980 hc        1 0TB      0.053700
     36 H9          1.0480    4.3850   -1.0050 hc        1 0TB      0.053700
     37 H10         1.5980    2.3550    1.9210 h1        1 0TB      0.063450
     38 H11         3.3950    2.6370    1.8290 h1        1 0TB      0.063450
     39 H12         6.1710   -2.8290    0.0480 hn        1 0TB      0.446800
     40 H13         6.2820   -1.1270    0.1270 hn        1 0TB      0.446800
     41 H14        -0.3770   -2.5210   -0.1420 ha        1 0TB      0.144000
     42 H15        -2.1630   -1.9590    1.2320 ha        1 0TB      0.152000
     43 H16         1.8770    2.4250   -1.9390 h1        1 0TB      0.063450
     44 H17         3.6010    2.8400   -1.5200 h1        1 0TB      0.063450
     45 H18         2.9890    4.8380    1.2260 hc        1 0TB      0.053700
     46 H19         1.2070    4.5410    1.3010 hc        1 0TB      0.053700
@<TRIPOS>BOND
     1    1    5 ar  
     2    1   14 ar  
     3    2    3 ar  
     4    2   14 ar  
     5    3    4 ar  
     6    3   16 1   
     7    4    5 ar  
     8    4   18 1   
     9    5    6 1   
    10    6   28 1   
    11    6   29 1   
    12    6   30 1   
    13    7    8 1   
    14    7   18 2   
    15    7   19 1   
    16    8   10 ar  
    17    8   21 ar  
    18    9   21 ar  
    19    9   22 ar  
    20    9   27 1   
    21   10   23 ar  
    22   10   31 1   
    23   11   24 1   
    24   11   32 1   
    25   11   33 1   
    26   11   34 1   
    27   12   25 1   
    28   12   26 1   
    29   12   35 1   
    30   12   36 1   
    31   13   17 1   
    32   13   26 1   
    33   13   37 1   
    34   13   38 1   
    35   14   15 1   
    36   15   39 1   
    37   15   40 1   
    38   16   17 1   
    39   16   19 1   
    40   17   25 1   
    41   18   41 1   
    42   19   20 2   
    43   21   42 1   
    44   22   23 ar  
    45   22   24 1   
    46   25   43 1   
    47   25   44 1   
    48   26   45 1   
    49   26   46 1   
@<TRIPOS>SUBSTRUCTURE
     1 0TB         1 TEMP              0 ****  ****    0 ROOT
