@<TRIPOS>MOLECULE
0TB
   46    41     1     0     0
SMALL
bcc


@<TRIPOS>ATOM
      1 N1         -3.5890    0.0970   -2.8350 n1        1 0TB     -0.217000
      2 N3         -3.6620    0.0520   -0.4490 n1        1 0TB     -0.252000
      3 C4         -2.3100    0.0850   -0.4080 c1        1 0TB      0.249000
      4 C5         -1.5830    0.1250   -1.5900 c1        1 0TB     -0.291000
      5 C6         -2.2390    0.1300   -2.7990 c1        1 0TB      0.108500
      6 C8         -2.2030    0.5750   -4.2440 c2        1 0TB     -0.189000
      7 C13         0.6080   -0.1180   -0.2820 c1        1 0TB     -0.146000
      8 C15         2.0830   -0.4570   -0.2390 c2        1 0TB     -0.081000
      9 C17         3.8170   -2.0630   -0.3030 c1        1 0TB      0.027000
     10 C20         3.0270    0.5590   -0.2090 c1        1 0TB     -0.047000
     11 C22         6.9140   -0.7430   -1.1920 c3        1 0TB     -0.065000
     12 C24        -1.0670    1.7130    3.3500 c3        1 0TB     -0.170000
     13 C26        -1.5850   -0.4980    3.2770 c3        1 0TB     -0.099000
     14 C2         -4.3130    0.0570   -1.6570 c1        1 0TB      0.207000
     15 N7         -5.7310    0.0710   -1.7070 n3        1 0TB     -0.340000
     16 N9         -1.5980    0.1050    0.9150 n3        1 0TB     -0.200000
     17 N10        -2.3170    0.2750    2.0830 n3        1 0TB     -0.083000
     18 C11        -0.0780   -0.0350   -1.5560 c2        1 0TB      0.001000
     19 C12        -0.1660   -0.0470    0.9660 c1        1 0TB      0.335000
     20 O14         0.3850   -0.2190    2.0280 o         1 0TB     -0.352000
     21 C16         2.4860   -1.7610   -0.2860 c2        1 0TB     -0.078000
     22 C18         4.7590   -1.0460   -0.2730 c1        1 0TB      0.108500
     23 N19         4.3560    0.2560   -0.2260 n1        1 0TB     -0.217000
     24 O21         6.1290   -1.3600   -0.1960 o         1 0TB     -0.191000
     25 C23        -2.3170    1.5330    2.4140 c3        1 0TB     -0.099000
     26 C25        -0.6010    0.2980    3.6890 c3        1 0TB     -0.170000
     27 F27         4.2120   -3.3380   -0.4060 f         1 0TB     -0.082000
     28 H1         -2.7270   -0.0470   -4.7900 ha        1 0TB      0.103667
     29 H2         -2.5830    1.4740   -4.3190 ha        1 0TB      0.103667
     30 H3         -1.2740    0.5850   -4.5610 ha        1 0TB      0.103667
     31 H4          2.7400    1.4910   -0.1750 ha        1 0TB      0.161000
     32 H5          7.1670    0.1590   -0.8970 h1        1 0TB      0.091000
     33 H6          6.3970   -0.6810   -2.0250 h1        1 0TB      0.091000
     34 H7          7.7240   -1.2770   -1.3480 h1        1 0TB      0.091000
     35 H8         -0.3590    2.1990    2.8790 hc        1 0TB      0.093000
     36 H9         -1.3210    2.1900    4.1650 hc        1 0TB      0.093000
     37 H10        -2.2150   -0.6600    4.0100 h1        1 0TB      0.102750
     38 H11        -1.2170   -1.3480    2.9530 h1        1 0TB      0.102750
     39 H12        -6.2160   -0.0580   -0.9430 hn        1 0TB      0.242000
     40 H13        -6.1580    0.2240   -2.4990 hn        1 0TB      0.242000
     41 H14         0.4170   -0.1700   -2.3870 ha        1 0TB      0.144000
     42 H15         1.8220   -2.4760   -0.3070 ha        1 0TB      0.178000
     43 H16        -2.2280    2.0950    1.6130 h1        1 0TB      0.102750
     44 H17        -3.1400    1.7570    2.8980 h1        1 0TB      0.102750
     45 H18         0.2250    0.0900    3.2140 hc        1 0TB      0.093000
     46 H19        -0.4700    0.2060    4.6550 hc        1 0TB      0.093000
@<TRIPOS>BOND
     1    1    5 1   
     2    2   14 1   
     3    3    4 1   
     4    3   16 1   
     5    4   18 1   
     6    6   28 1   
     7    6   29 1   
     8    6   30 1   
     9    7    8 1   
    10    7   18 1   
    11    8   10 1   
    12    8   21 1   
    13    9   21 1   
    14    9   27 1   
    15   10   31 1   
    16   11   24 1   
    17   11   32 1   
    18   11   33 1   
    19   11   34 1   
    20   12   25 1   
    21   12   26 1   
    22   12   35 1   
    23   12   36 1   
    24   13   17 1   
    25   13   26 1   
    26   13   37 1   
    27   13   38 1   
    28   14   15 1   
    29   15   39 1   
    30   15   40 1   
    31   16   17 1   
    32   16   19 1   
    33   17   25 1   
    34   18   41 1   
    35   19   20 1   
    36   21   42 1   
    37   22   23 1   
    38   25   43 1   
    39   25   44 1   
    40   26   45 1   
    41   26   46 1   
@<TRIPOS>SUBSTRUCTURE
     1 0TB         1 TEMP              0 ****  ****    0 ROOT
