@<TRIPOS>MOLECULE
0TB
   46    49     1     0     0
SMALL
bcc


@<TRIPOS>ATOM
      1 N1         -0.0350    0.1290   -0.1870 nb        1 0TB     -0.774000
      2 N3         -0.2280    0.0580    2.2780 nb        1 0TB     -0.778000
      3 C4          1.1390    0.0370    2.3730 ca        1 0TB      0.657200
      4 C5          1.9620    0.0540    1.1920 ca        1 0TB     -0.432400
      5 C6          1.2950    0.1060   -0.0710 ca        1 0TB      0.539600
      6 C8          2.1210    0.1400   -1.3210 c3        1 0TB     -0.165400
      7 C13         3.9940   -0.0430    2.5160 cc        1 0TB     -0.153400
      8 C15         5.4450   -0.0520    2.6320 ca        1 0TB     -0.163100
      9 C17         7.6220    0.6910    1.8780 ca        1 0TB     -0.009400
     10 C20         6.1110   -0.8540    3.5850 ca        1 0TB      0.451200
     11 C22        10.2020   -0.9840    3.8980 c3        1 0TB      0.124700
     12 C24         1.2160   -0.9120    7.0290 c3        1 0TB     -0.091900
     13 C26         1.2440    1.1480    5.7220 c3        1 0TB      0.137800
     14 C2         -0.7670    0.0860    1.0100 ca        1 0TB      0.924900
     15 N7         -2.1470    0.0310    0.9050 nv        1 0TB     -0.941500
     16 N9          1.7650    0.0000    3.6430 n         1 0TB     -0.316700
     17 N10         0.9400    0.0490    4.7670 nh        1 0TB     -0.429600
     18 C11         3.3800    0.0250    1.3050 cd        1 0TB      0.013800
     19 C12         3.1900   -0.1030    3.7490 c         1 0TB      0.696700
     20 O14         3.6950   -0.2300    4.8820 o         1 0TB     -0.629500
     21 C16         6.2260    0.7370    1.7730 ca        1 0TB     -0.106000
     22 C18         8.1960   -0.1680    2.8720 ca        1 0TB      0.602600
     23 N19         7.4470   -0.9230    3.7110 nb        1 0TB     -0.710000
     24 O21         9.5720   -0.1670    2.9100 os        1 0TB     -0.434100
     25 C23         0.8860   -1.2090    5.5620 c3        1 0TB      0.137800
     26 C25         1.5930    0.5600    7.0930 c3        1 0TB     -0.091900
     27 F27         8.4090    1.4330    1.0700 f         1 0TB     -0.119900
     28 H1          1.4900    0.1820   -2.2430 hc        1 0TB      0.064367
     29 H2          2.7810    1.0420   -1.3030 hc        1 0TB      0.064367
     30 H3          2.7550   -0.7800   -1.3680 hc        1 0TB      0.064367
     31 H4          5.5370   -1.4690    4.3060 h4        1 0TB      0.052100
     32 H5          9.9530   -2.0590    3.7350 h1        1 0TB      0.052033
     33 H6         11.2910   -0.7930    3.7190 h1        1 0TB      0.052033
     34 H7          9.9030   -0.6620    4.9240 h1        1 0TB      0.052033
     35 H8          0.3300   -1.1280    7.6750 hc        1 0TB      0.053450
     36 H9          2.0610   -1.5560    7.3770 hc        1 0TB      0.053450
     37 H10         2.0630    1.8300    5.3700 h1        1 0TB      0.063700
     38 H11         0.2890    1.7400    5.7760 h1        1 0TB      0.063700
     39 H12        -2.6920    0.1430    1.7250 hn        1 0TB      0.446300
     40 H13        -2.5650    0.2080    0.0250 hn        1 0TB      0.446300
     41 H14         3.9810    0.0530    0.3800 ha        1 0TB      0.144000
     42 H15         5.7590    1.3970    1.0280 ha        1 0TB      0.152000
     43 H16        -0.1740   -1.5670    5.4550 h1        1 0TB      0.063700
     44 H17         1.5690   -2.0090    5.1680 h1        1 0TB      0.063700
     45 H18         2.6900    0.6740    7.2870 hc        1 0TB      0.053450
     46 H19         1.0370    1.0930    7.9010 hc        1 0TB      0.053450
@<TRIPOS>BOND
     1    1    5 ar  
     2    1   14 ar  
     3    2    3 ar  
     4    2   14 ar  
     5    3    4 ar  
     6    3   16 1   
     7    4    5 ar  
     8    4   18 1   
     9    5    6 1   
    10    6   28 1   
    11    6   29 1   
    12    6   30 1   
    13    7    8 1   
    14    7   18 2   
    15    7   19 1   
    16    8   10 ar  
    17    8   21 ar  
    18    9   21 ar  
    19    9   22 ar  
    20    9   27 1   
    21   10   23 ar  
    22   10   31 1   
    23   11   24 1   
    24   11   32 1   
    25   11   33 1   
    26   11   34 1   
    27   12   25 1   
    28   12   26 1   
    29   12   35 1   
    30   12   36 1   
    31   13   17 1   
    32   13   26 1   
    33   13   37 1   
    34   13   38 1   
    35   14   15 1   
    36   15   39 1   
    37   15   40 1   
    38   16   17 1   
    39   16   19 1   
    40   17   25 1   
    41   18   41 1   
    42   19   20 2   
    43   21   42 1   
    44   22   23 ar  
    45   22   24 1   
    46   25   43 1   
    47   25   44 1   
    48   26   45 1   
    49   26   46 1   
@<TRIPOS>SUBSTRUCTURE
     1 0TB         1 TEMP              0 ****  ****    0 ROOT
