@<TRIPOS>MOLECULE
0TB
   46    49     1     0     0
SMALL
bcc


@<TRIPOS>ATOM
      1 N1         -0.0330    0.1450   -0.1910 nb        1 0TB     -0.774000
      2 N3         -0.2290    0.0980    2.2740 nb        1 0TB     -0.778000
      3 C4          1.1370    0.0350    2.3700 ca        1 0TB      0.657200
      4 C5          1.9620    0.0390    1.1900 ca        1 0TB     -0.433400
      5 C6          1.2960    0.0850   -0.0740 ca        1 0TB      0.539600
      6 C8          2.1230    0.0620   -1.3240 c3        1 0TB     -0.165400
      7 C13         3.9910   -0.0680    2.5160 cc        1 0TB     -0.153400
      8 C15         5.4420   -0.0740    2.6350 ca        1 0TB     -0.163100
      9 C17         7.6190    0.6720    1.8820 ca        1 0TB     -0.009400
     10 C20         6.1090   -0.8760    3.5870 ca        1 0TB      0.451200
     11 C22        10.2000   -0.9990    3.9050 c3        1 0TB      0.124700
     12 C24         1.4460   -0.8600    7.0310 c3        1 0TB     -0.091400
     13 C26         1.1200    1.1420    5.6650 c3        1 0TB      0.137800
     14 C2         -0.7640    0.1700    1.0060 ca        1 0TB      0.925900
     15 N7         -2.1370    0.3120    0.9040 nh        1 0TB     -0.942500
     16 N9          1.7600   -0.0400    3.6400 n         1 0TB     -0.316700
     17 N10         0.9320   -0.0280    4.7620 nh        1 0TB     -0.429600
     18 C11         3.3790    0.0000    1.3040 cd        1 0TB      0.013800
     19 C12         3.1860   -0.1300    3.7480 c         1 0TB      0.696700
     20 O14         3.6890   -0.2590    4.8810 o         1 0TB     -0.629500
     21 C16         6.2230    0.7160    1.7770 ca        1 0TB     -0.106000
     22 C18         8.1930   -0.1870    2.8760 ca        1 0TB      0.602600
     23 N19         7.4450   -0.9440    3.7140 nb        1 0TB     -0.710000
     24 O21         9.5690   -0.1830    2.9160 os        1 0TB     -0.434100
     25 C23         1.0060   -1.2450    5.6150 c3        1 0TB      0.137800
     26 C25         1.3750    0.6590    7.0970 c3        1 0TB     -0.091400
     27 F27         8.4050    1.4160    1.0760 f         1 0TB     -0.119900
     28 H1          2.7500   -0.8640   -1.3360 hc        1 0TB      0.064367
     29 H2          2.7900    0.9590   -1.3410 hc        1 0TB      0.064367
     30 H3          1.4920    0.0740   -2.2480 hc        1 0TB      0.064367
     31 H4          5.5350   -1.4920    4.3070 h4        1 0TB      0.052100
     32 H5          9.8990   -0.6770    4.9300 h1        1 0TB      0.052033
     33 H6         11.2890   -0.8070    3.7270 h1        1 0TB      0.052033
     34 H7          9.9530   -2.0750    3.7420 h1        1 0TB      0.052033
     35 H8          0.7800   -1.3350    7.7910 hc        1 0TB      0.053700
     36 H9          2.4930   -1.2090    7.2130 hc        1 0TB      0.053700
     37 H10         0.1510    1.7080    5.6000 h1        1 0TB      0.063450
     38 H11         1.9490    1.8250    5.3360 h1        1 0TB      0.063450
     39 H12        -2.5630    0.2100    0.0160 hn        1 0TB      0.446800
     40 H13        -2.6910    0.1990    1.7190 hn        1 0TB      0.446800
     41 H14         3.9820    0.0270    0.3800 ha        1 0TB      0.144000
     42 H15         5.7560    1.3760    1.0310 ha        1 0TB      0.152000
     43 H16        -0.0450   -1.6450    5.6210 h1        1 0TB      0.063450
     44 H17         1.6830   -2.0380    5.1990 h1        1 0TB      0.063450
     45 H18         0.5480    0.9940    7.7700 hc        1 0TB      0.053700
     46 H19         2.3310    1.0860    7.4870 hc        1 0TB      0.053700
@<TRIPOS>BOND
     1    1    5 ar  
     2    1   14 ar  
     3    2    3 ar  
     4    2   14 ar  
     5    3    4 ar  
     6    3   16 1   
     7    4    5 ar  
     8    4   18 1   
     9    5    6 1   
    10    6   28 1   
    11    6   29 1   
    12    6   30 1   
    13    7    8 1   
    14    7   18 2   
    15    7   19 1   
    16    8   10 ar  
    17    8   21 ar  
    18    9   21 ar  
    19    9   22 ar  
    20    9   27 1   
    21   10   23 ar  
    22   10   31 1   
    23   11   24 1   
    24   11   32 1   
    25   11   33 1   
    26   11   34 1   
    27   12   25 1   
    28   12   26 1   
    29   12   35 1   
    30   12   36 1   
    31   13   17 1   
    32   13   26 1   
    33   13   37 1   
    34   13   38 1   
    35   14   15 1   
    36   15   39 1   
    37   15   40 1   
    38   16   17 1   
    39   16   19 1   
    40   17   25 1   
    41   18   41 1   
    42   19   20 2   
    43   21   42 1   
    44   22   23 ar  
    45   22   24 1   
    46   25   43 1   
    47   25   44 1   
    48   26   45 1   
    49   26   46 1   
@<TRIPOS>SUBSTRUCTURE
     1 0TB         1 TEMP              0 ****  ****    0 ROOT
