@<TRIPOS>MOLECULE
0TD
   18    17     1     0     0
SMALL
bcc


@<TRIPOS>ATOM
      1 N          -0.5020    1.6330   -1.1330 n3        1 0TD     -0.909800
      2 CA         -0.9590    0.4980   -0.3560 c3        1 0TD      0.074500
      3 C          -2.1090    0.8580    0.6380 c         1 0TD      0.911600
      4 O          -2.2340    2.0400    1.0730 o         1 0TD     -0.866800
      5 CSB         2.7470    0.3530    1.2030 c3        1 0TD     -0.033000
      6 SB          1.0630    0.7260    1.5350 ss        1 0TD     -0.380200
      7 CB          0.1400   -0.2990    0.3640 c3        1 0TD     -0.070600
      8 CG          1.0900   -1.0100   -0.6140 c         1 0TD      0.904600
      9 OD2         1.6880   -0.3530   -1.5210 o         1 0TD     -0.861300
     10 OD1         1.2700   -2.2570   -0.4660 o         1 0TD     -0.861300
     11 H1         -0.4400    2.4320   -0.5260 hn        1 0TD      0.344300
     12 H2          0.4150    1.4330   -1.4960 hn        1 0TD      0.344300
     13 H4         -1.4090   -0.2310   -1.0980 h1        1 0TD      0.047700
     14 H6         -0.3690   -1.0730    0.9930 h1        1 0TD      0.083700
     15 OXT        -2.9110   -0.0720    0.9540 o         1 0TD     -0.866800
     16 H3          3.3560    0.9590    1.9080 h1        1 0TD      0.046700
     17 H5          2.9580   -0.7300    1.3530 h1        1 0TD      0.046700
     18 H8          3.0130    0.6030    0.1490 h1        1 0TD      0.046700
@<TRIPOS>BOND
     1    1    2 1   
     2    1   11 1   
     3    1   12 1   
     4    2    3 1   
     5    2    7 1   
     6    2   13 1   
     7    3    4 1   
     8    3   15 1   
     9    5    6 1   
    10    5   16 1   
    11    5   17 1   
    12    5   18 1   
    13    6    7 1   
    14    7    8 1   
    15    7   14 1   
    16    8    9 1   
    17    8   10 1   
@<TRIPOS>SUBSTRUCTURE
     1 0TD         1 TEMP              0 ****  ****    0 ROOT
