@<TRIPOS>MOLECULE
0TD
   18    17     1     0     0
SMALL
bcc


@<TRIPOS>ATOM
      1 N          -1.7490   -0.9440    0.6160 n3        1 0TD     -0.899800
      2 CA         -0.3490   -1.0010    0.6920 c3        1 0TD      0.085500
      3 C           0.0890   -1.0270    2.1860 c         1 0TD      0.914600
      4 O          -0.2650   -0.0920    2.9660 o         1 0TD     -0.871800
      5 CSB        -0.1550    1.5860   -2.4900 c3        1 0TD     -0.055000
      6 SB          0.1160    0.0230   -1.7560 ss        1 0TD     -0.328200
      7 CB          0.2400    0.2060    0.0220 c3        1 0TD     -0.041600
      8 CG          1.6780    0.3360    0.4140 c         1 0TD      0.909600
      9 OD2         2.0710    1.3710    1.0280 o         1 0TD     -0.871800
     10 OD1         2.5220   -0.5060   -0.0040 o         1 0TD     -0.871800
     11 H1         -2.0300   -1.2600   -0.2100 hn        1 0TD      0.337300
     12 H2         -2.1000   -1.4420    1.2600 hn        1 0TD      0.337300
     13 H4         -0.0130   -1.8540    0.2190 h1        1 0TD      0.010700
     14 H6         -0.2450    1.0020    0.3020 h1        1 0TD      0.085700
     15 OXT         0.7750   -2.0160    2.6380 o         1 0TD     -0.871800
     16 H3         -0.3050    1.4750   -3.4350 h1        1 0TD      0.043367
     17 H5         -0.9080    1.9900   -2.1000 h1        1 0TD      0.043367
     18 H8          0.6280    2.1510   -2.3490 h1        1 0TD      0.043367
@<TRIPOS>BOND
     1    1    2 1   
     2    1   11 1   
     3    1   12 1   
     4    2    3 1   
     5    2    7 1   
     6    2   13 1   
     7    3    4 1   
     8    3   15 1   
     9    5    6 1   
    10    5   16 1   
    11    5   17 1   
    12    5   18 1   
    13    6    7 1   
    14    7    8 1   
    15    7   14 1   
    16    8    9 1   
    17    8   10 1   
@<TRIPOS>SUBSTRUCTURE
     1 0TD         1 TEMP              0 ****  ****    0 ROOT
