@<TRIPOS>MOLECULE
0TF
   41    40     1     0     0
SMALL
bcc


@<TRIPOS>ATOM
      1 O18        -2.3080    2.4140    0.5640 o         1 0TF     -0.634100
      2 C11        -2.3720    1.2910    0.0170 c         1 0TF      0.608100
      3 C12        -3.7000    0.8140   -0.6330 c3        1 0TF      0.098500
      4 C14        -4.3290   -0.2210    0.3110 c3        1 0TF     -0.073400
      5 C15        -5.5530   -0.8670   -0.2990 c3        1 0TF     -0.079400
      6 C16        -6.0740   -1.9660    0.6260 c3        1 0TF      0.154800
      7 N17        -7.2400   -2.6460    0.1130 n3        1 0TF     -0.914800
      8 N13        -4.5960    1.9070   -0.9530 n3        1 0TF     -0.884800
      9 N6         -1.3020    0.4370   -0.0290 n         1 0TF     -0.557900
     10 C5         -0.0020    0.7740    0.4960 c3        1 0TF      0.084000
     11 C4          1.1510    0.1950   -0.3210 c3        1 0TF     -0.097400
     12 C3          2.4740    0.4950    0.3550 c3        1 0TF     -0.073400
     13 C2          3.6240   -0.1070   -0.4230 c3        1 0TF     -0.064400
     14 C1          4.9630    0.0540    0.2960 c3        1 0TF      0.018500
     15 N7          5.3920    1.4420    0.4150 n3        1 0TF     -0.891800
     16 C8          6.0030   -0.8880   -0.3990 c         1 0TF      0.887600
     17 O10         5.6810   -2.0990   -0.5500 o         1 0TF     -0.843800
     18 O9          7.1120   -0.3930   -0.7510 o         1 0TF     -0.843800
     19 H1         -3.4570    0.3030   -1.6130 h1        1 0TF      0.069700
     20 H2         -3.5630   -1.0100    0.5330 hc        1 0TF      0.050200
     21 H3         -4.5970    0.2690    1.2840 hc        1 0TF      0.050200
     22 H4         -6.3500   -0.0960   -0.4650 hc        1 0TF      0.055200
     23 H5         -5.2950   -1.3010   -1.3000 hc        1 0TF      0.055200
     24 H6         -5.2690   -2.7450    0.7590 h1        1 0TF      0.024200
     25 H7         -6.2580   -1.5070    1.6440 h1        1 0TF      0.024200
     26 H8         -7.6500   -3.2160    0.8250 hn        1 0TF      0.345800
     27 H9         -7.9220   -1.9920   -0.2170 hn        1 0TF      0.345800
     28 H11        -4.9050    2.3540   -0.1090 hn        1 0TF      0.355800
     29 H12        -4.1090    2.5880   -1.5050 hn        1 0TF      0.355800
     30 H14        -1.3890   -0.4240   -0.5120 hn        1 0TF      0.308500
     31 H15         0.0920    1.8970    0.5420 h1        1 0TF      0.055700
     32 H16         0.0660    0.3840    1.5540 h1        1 0TF      0.055700
     33 H17         1.0340   -0.9160   -0.4270 hc        1 0TF      0.039700
     34 H18         1.1490    0.6320   -1.3530 hc        1 0TF      0.039700
     35 H19         2.6090    1.6050    0.4440 hc        1 0TF      0.040700
     36 H20         2.4670    0.0780    1.3970 hc        1 0TF      0.040700
     37 H21         3.4580   -1.2090   -0.5650 hc        1 0TF      0.047200
     38 H22         3.6740    0.3590   -1.4410 hc        1 0TF      0.047200
     39 H23         4.8450   -0.3330    1.3510 h1        1 0TF      0.040700
     40 H24         6.3620    1.4300    0.6850 hn        1 0TF      0.330800
     41 H25         5.3620    1.8630   -0.4970 hn        1 0TF      0.330800
@<TRIPOS>BOND
     1    1    2 2   
     2    2    3 1   
     3    2    9 1   
     4    3    4 1   
     5    3    8 1   
     6    3   19 1   
     7    4    5 1   
     8    4   20 1   
     9    4   21 1   
    10    5    6 1   
    11    5   22 1   
    12    5   23 1   
    13    6    7 1   
    14    6   24 1   
    15    6   25 1   
    16    7   26 1   
    17    7   27 1   
    18    8   28 1   
    19    8   29 1   
    20    9   10 1   
    21    9   30 1   
    22   10   11 1   
    23   10   31 1   
    24   10   32 1   
    25   11   12 1   
    26   11   33 1   
    27   11   34 1   
    28   12   13 1   
    29   12   35 1   
    30   12   36 1   
    31   13   14 1   
    32   13   37 1   
    33   13   38 1   
    34   14   15 1   
    35   14   16 1   
    36   14   39 1   
    37   15   40 1   
    38   15   41 1   
    39   16   17 1   
    40   16   18 1   
@<TRIPOS>SUBSTRUCTURE
     1 0TF         1 TEMP              0 ****  ****    0 ROOT
