@<TRIPOS>MOLECULE
0TF
   45    44     1     0     0
SMALL
bcc


@<TRIPOS>ATOM
      1 O18         0.4870   -0.0860    0.0980 o         1 0TF     -0.572100
      2 C11         1.7230    0.0530    0.0120 c         1 0TF      0.638100
      3 C12         2.5390   -0.0850    1.3450 c3        1 0TF      0.039500
      4 C14         2.5300    1.2890    2.0220 c3        1 0TF     -0.112400
      5 C15         3.4720    1.4030    3.2080 c3        1 0TF     -0.115400
      6 C16         3.4880    2.8570    3.6830 c3        1 0TF      0.100800
      7 N17         4.3760    3.1000    4.8550 n4        1 0TF     -0.837600
      8 N13         1.8780   -1.1490    2.1740 n4        1 0TF     -0.839600
      9 N6          2.3970    0.3480   -1.1310 n         1 0TF     -0.523900
     10 C5          1.7080    0.6050   -2.3800 c3        1 0TF      0.078000
     11 C4          2.0180   -0.3990   -3.4950 c3        1 0TF     -0.099400
     12 C3          1.2970    0.0280   -4.7600 c3        1 0TF     -0.085400
     13 C2          1.5610   -0.9500   -5.8910 c3        1 0TF     -0.098400
     14 C1          0.9660   -0.4180   -7.2050 c3        1 0TF      0.067500
     15 N7          0.8580   -1.4900   -8.2540 n4        1 0TF     -0.840600
     16 C8          1.8430    0.7050   -7.7550 c         1 0TF      0.611100
     17 O10         1.5580    1.9130   -7.2310 oh        1 0TF     -0.567100
     18 O9          2.7330    0.5690   -8.5930 o         1 0TF     -0.487000
     19 H1          3.6000   -0.4220    1.1540 hx        1 0TF      0.122700
     20 H2          2.8350    2.0350    1.2340 hc        1 0TF      0.109200
     21 H3          1.4810    1.5570    2.3300 hc        1 0TF      0.109200
     22 H4          4.5060    1.0830    2.9070 hc        1 0TF      0.072700
     23 H5          3.1350    0.7360    4.0450 hc        1 0TF      0.072700
     24 H6          3.8420    3.5290    2.8450 hx        1 0TF      0.127700
     25 H7          2.4430    3.1760    3.9770 hx        1 0TF      0.127700
     26 H8          4.3400    4.0980    5.1120 hn        1 0TF      0.477467
     27 H9          5.3490    2.8550    4.6340 hn        1 0TF      0.477467
     28 H11         2.1230   -2.0790    1.8120 hn        1 0TF      0.478800
     29 H12         2.1640   -1.0790    3.1530 hn        1 0TF      0.478800
     30 H14         2.1230    2.5990   -7.6460 ho        1 0TF      0.497000
     31 H15         2.0150    1.6380   -2.7220 h1        1 0TF      0.089700
     32 H16         0.5950    0.6120   -2.1880 h1        1 0TF      0.089700
     33 H17         1.6830   -1.4260   -3.1940 hc        1 0TF      0.061200
     34 H18         3.1230   -0.4420   -3.6850 hc        1 0TF      0.061200
     35 H19         0.1930    0.0860   -4.5630 hc        1 0TF      0.074700
     36 H20         1.6370    1.0560   -5.0620 hc        1 0TF      0.074700
     37 H21         1.0980   -1.9410   -5.6310 hc        1 0TF      0.081700
     38 H22         2.6660   -1.1080   -6.0140 hc        1 0TF      0.081700
     39 H23        -0.0780   -0.0160   -7.0140 hx        1 0TF      0.149700
     40 H24         0.4670   -2.3450   -7.8460 hn        1 0TF      0.479800
     41 H25         1.7940   -1.6910   -8.6430 hn        1 0TF      0.479800
     42 H173        4.0750    2.5450    5.6650 hn        1 0TF      0.477467
     43 H133        0.8480   -1.0370    2.1050 hn        1 0TF      0.478800
     44 H62         3.3910    0.3590   -1.1430 hn        1 0TF      0.332500
     45 H73         0.2540   -1.1690   -9.0210 hn        1 0TF      0.479800
@<TRIPOS>BOND
     1    1    2 2   
     2    2    3 1   
     3    2    9 1   
     4    3    4 1   
     5    3    8 1   
     6    3   19 1   
     7    4    5 1   
     8    4   20 1   
     9    4   21 1   
    10    5    6 1   
    11    5   22 1   
    12    5   23 1   
    13    6    7 1   
    14    6   24 1   
    15    6   25 1   
    16    7   26 1   
    17    7   27 1   
    18    7   42 1   
    19    8   28 1   
    20    8   29 1   
    21    8   43 1   
    22    9   10 1   
    23    9   44 1   
    24   10   11 1   
    25   10   31 1   
    26   10   32 1   
    27   11   12 1   
    28   11   33 1   
    29   11   34 1   
    30   12   13 1   
    31   12   35 1   
    32   12   36 1   
    33   13   14 1   
    34   13   37 1   
    35   13   38 1   
    36   14   15 1   
    37   14   16 1   
    38   14   39 1   
    39   15   40 1   
    40   15   41 1   
    41   15   45 1   
    42   16   17 1   
    43   16   18 2   
    44   17   30 1   
@<TRIPOS>SUBSTRUCTURE
     1 0TF         1 TEMP              0 ****  ****    0 ROOT
