@<TRIPOS>MOLECULE
0TF
   45    44     1     0     0
SMALL
bcc


@<TRIPOS>ATOM
      1 O18         0.4360   -0.0220    0.0670 o         1 0TF     -0.572100
      2 C11         1.6770    0.0750    0.0040 c         1 0TF      0.638100
      3 C12         2.4630   -0.0840    1.3530 c3        1 0TF      0.039500
      4 C14         2.4870    1.2920    2.0250 c3        1 0TF     -0.112400
      5 C15         3.4090    1.3800    3.2280 c3        1 0TF     -0.115400
      6 C16         3.4660    2.8350    3.6990 c3        1 0TF      0.100800
      7 N17         4.3390    3.0530    4.8860 n4        1 0TF     -0.837600
      8 N13         1.7510   -1.1220    2.1730 n4        1 0TF     -0.839600
      9 N6          2.3830    0.3430   -1.1260 n         1 0TF     -0.523900
     10 C5          1.7270    0.6180   -2.3900 c3        1 0TF      0.078000
     11 C4          2.0260   -0.3990   -3.4950 c3        1 0TF     -0.099400
     12 C3          1.3430    0.0440   -4.7750 c3        1 0TF     -0.085400
     13 C2          1.5980   -0.9450   -5.8980 c3        1 0TF     -0.098400
     14 C1          1.0450   -0.4000   -7.2240 c3        1 0TF      0.067500
     15 N7          0.9250   -1.4720   -8.2730 n4        1 0TF     -0.840600
     16 C8          1.9660    0.6950   -7.7610 c         1 0TF      0.611100
     17 O10         1.7080    1.9120   -7.2460 oh        1 0TF     -0.567100
     18 O9          2.8670    0.5290   -8.5810 o         1 0TF     -0.487000
     19 H1          3.5150   -0.4570    1.1830 hx        1 0TF      0.122700
     20 H2          1.4410    1.5970    2.3120 hc        1 0TF      0.109200
     21 H3          2.8320    2.0250    1.2410 hc        1 0TF      0.109200
     22 H4          4.4370    1.0230    2.9490 hc        1 0TF      0.072700
     23 H5          3.0340    0.7280    4.0610 hc        1 0TF      0.072700
     24 H6          2.4260    3.1900    3.9700 hx        1 0TF      0.127700
     25 H7          3.8580    3.4910    2.8650 hx        1 0TF      0.127700
     26 H8          4.0030    2.5120    5.6920 hn        1 0TF      0.477467
     27 H9          4.3320    4.0530    5.1380 hn        1 0TF      0.477467
     28 H11         0.7270   -0.9760    2.0840 hn        1 0TF      0.478800
     29 H12         2.0210   -1.0570    3.1570 hn        1 0TF      0.478800
     30 H14         3.3760    0.3220   -1.1200 hn        1 0TF      0.332500
     31 H15         2.0730    1.6390   -2.7280 h1        1 0TF      0.089200
     32 H16         0.6110    0.6600   -2.2190 h1        1 0TF      0.089200
     33 H17         1.6540   -1.4140   -3.1980 hc        1 0TF      0.061200
     34 H18         3.1320   -0.4780   -3.6640 hc        1 0TF      0.061200
     35 H19         1.7200    1.0610   -5.0740 hc        1 0TF      0.074700
     36 H20         0.2370    0.1370   -4.6000 hc        1 0TF      0.074700
     37 H21         2.7000   -1.1370   -6.0000 hc        1 0TF      0.081700
     38 H22         1.1010   -1.9200   -5.6440 hc        1 0TF      0.081700
     39 H23         0.0110    0.0340   -7.0550 hx        1 0TF      0.149700
     40 H24         1.8610   -1.7010   -8.6430 hn        1 0TF      0.479800
     41 H25         0.3450   -1.1350   -9.0510 hn        1 0TF      0.479800
     42 H173        5.3070    2.7740    4.6850 hn        1 0TF      0.477467
     43 H133        1.9720   -2.0610    1.8200 hn        1 0TF      0.478800
     44 H62         2.3000    2.5800   -7.6520 ho        1 0TF      0.497000
     45 H73         0.5000   -2.3130   -7.8700 hn        1 0TF      0.479800
@<TRIPOS>BOND
     1    1    2 2   
     2    2    3 1   
     3    2    9 1   
     4    3    4 1   
     5    3    8 1   
     6    3   19 1   
     7    4    5 1   
     8    4   20 1   
     9    4   21 1   
    10    5    6 1   
    11    5   22 1   
    12    5   23 1   
    13    6    7 1   
    14    6   24 1   
    15    6   25 1   
    16    7   26 1   
    17    7   27 1   
    18    7   42 1   
    19    8   28 1   
    20    8   29 1   
    21    8   43 1   
    22    9   10 1   
    23    9   30 1   
    24   10   11 1   
    25   10   31 1   
    26   10   32 1   
    27   11   12 1   
    28   11   33 1   
    29   11   34 1   
    30   12   13 1   
    31   12   35 1   
    32   12   36 1   
    33   13   14 1   
    34   13   37 1   
    35   13   38 1   
    36   14   15 1   
    37   14   16 1   
    38   14   39 1   
    39   15   40 1   
    40   15   41 1   
    41   15   45 1   
    42   16   17 1   
    43   16   18 2   
    44   17   44 1   
@<TRIPOS>SUBSTRUCTURE
     1 0TF         1 TEMP              0 ****  ****    0 ROOT
