@<TRIPOS>MOLECULE
0TF
   41    38     1     0     0
SMALL
bcc


@<TRIPOS>ATOM
      1 O18        -1.8220    0.1250    1.5260 o         1 0TF     -0.393000
      2 C11        -0.6180   -0.0140    1.5350 c1        1 0TF      0.252000
      3 C12         0.1210   -0.1510    2.8580 c3        1 0TF     -0.048000
      4 C14        -0.4850    0.7930    3.8750 c3        1 0TF     -0.153000
      5 C15         0.3990    0.8510    5.0990 c3        1 0TF     -0.158000
      6 C16        -0.2350    1.7600    6.1430 c3        1 0TF     -0.082000
      7 N17         0.5290    1.7020    7.3520 n3        1 0TF     -0.347000
      8 N13         0.0120   -1.4850    3.3260 n3        1 0TF     -0.316000
      9 N6          0.1120   -0.0970    0.2850 n2        1 0TF     -0.369000
     10 C5         -0.6070   -0.1460   -0.9700 c3        1 0TF     -0.031000
     11 C4          0.3950   -0.2590   -2.1300 c3        1 0TF     -0.176000
     12 C3         -0.3640   -0.4830   -3.4400 c3        1 0TF     -0.152000
     13 C2          0.6220   -0.4540   -4.6130 c3        1 0TF     -0.143000
     14 C1         -0.0990   -0.8480   -5.8920 c3        1 0TF     -0.129000
     15 N7          0.3880   -2.1040   -6.3410 n3        1 0TF     -0.324000
     16 C8          0.1500    0.1960   -6.9540 c1        1 0TF      0.307000
     17 O10        -0.8240    0.7820   -7.4990 os        1 0TF     -0.574000
     18 O9          1.3210    0.4070   -7.3660 o         1 0TF     -0.584000
     19 H1          1.0660    0.0730    2.7280 h1        1 0TF      0.108000
     20 H2         -0.5620    1.6850    3.4860 hc        1 0TF      0.090000
     21 H3         -1.3720    0.4720    4.1290 hc        1 0TF      0.090000
     22 H4          1.2750    1.2020    4.8510 hc        1 0TF      0.094000
     23 H5          0.5020   -0.0480    5.4700 hc        1 0TF      0.094000
     24 H6         -1.1530    1.4630    6.3210 h1        1 0TF      0.064000
     25 H7         -0.2490    2.6810    5.8090 h1        1 0TF      0.064000
     26 H8         -0.0180    1.4580    8.0490 hn        1 0TF      0.141000
     27 H9          0.8930    2.5230    7.5220 hn        1 0TF      0.141000
     28 H11         0.8260   -1.9010    3.2550 hn        1 0TF      0.152000
     29 H12        -0.6060   -1.9350    2.8230 hn        1 0TF      0.152000
     30 H14         1.0250   -0.0970    0.2890 hn        1 0TF      0.221000
     31 H15        -1.2020   -0.9270   -0.9750 h1        1 0TF      0.094000
     32 H16        -1.1380    0.6700   -1.0750 h1        1 0TF      0.094000
     33 H17         0.9160    0.5670   -2.1920 hc        1 0TF      0.079000
     34 H18         0.9950   -1.0120   -1.9700 hc        1 0TF      0.079000
     35 H19        -0.8140   -1.3520   -3.4120 hc        1 0TF      0.080500
     36 H20        -1.0290    0.2240   -3.5560 hc        1 0TF      0.080500
     37 H21         1.3510   -1.0840   -4.4420 hc        1 0TF      0.086000
     38 H22         0.9880    0.4490   -4.7100 hc        1 0TF      0.086000
     39 H23        -1.0560   -0.9130   -5.7190 h1        1 0TF      0.080000
     40 H24         0.6340   -2.0400   -7.2210 hn        1 0TF      0.126000
     41 H25        -0.2650   -2.7320   -6.2540 hn        1 0TF      0.126000
@<TRIPOS>BOND
     1    1    2 1   
     2    2    3 1   
     3    3    4 1   
     4    3    8 1   
     5    3   19 1   
     6    4    5 1   
     7    4   20 1   
     8    4   21 1   
     9    5    6 1   
    10    5   22 1   
    11    5   23 1   
    12    6    7 1   
    13    6   24 1   
    14    6   25 1   
    15    7   26 1   
    16    7   27 1   
    17    8   28 1   
    18    8   29 1   
    19    9   10 1   
    20    9   30 1   
    21   10   11 1   
    22   10   31 1   
    23   10   32 1   
    24   11   12 1   
    25   11   33 1   
    26   11   34 1   
    27   12   13 1   
    28   12   35 1   
    29   12   36 1   
    30   13   14 1   
    31   13   37 1   
    32   13   38 1   
    33   14   15 1   
    34   14   16 1   
    35   14   39 1   
    36   15   40 1   
    37   15   41 1   
    38   16   18 1   
@<TRIPOS>SUBSTRUCTURE
     1 0TF         1 TEMP              0 ****  ****    0 ROOT
