@<TRIPOS>MOLECULE
0TF
   45    44     1     0     0
SMALL
bcc


@<TRIPOS>ATOM
      1 O18         0.4200    0.0540    0.0710 o         1 0TF     -0.572100
      2 C11         1.6630    0.1160    0.0090 c         1 0TF      0.638100
      3 C12         2.4420   -0.0440    1.3620 c3        1 0TF      0.039500
      4 C14         2.5030    1.3420    2.0130 c3        1 0TF     -0.112400
      5 C15         3.4260    1.4230    3.2160 c3        1 0TF     -0.115400
      6 C16         3.5220    2.8830    3.6630 c3        1 0TF      0.100800
      7 N17         4.3990    3.0950    4.8490 nz        1 0TF     -0.837600
      8 N13         1.7010   -1.0490    2.1970 nz        1 0TF     -0.839600
      9 N6          2.3780    0.3450   -1.1230 ns        1 0TF     -0.523900
     10 C5          1.7320    0.6180   -2.3930 c3        1 0TF      0.078000
     11 C4          2.0050   -0.4240   -3.4810 c3        1 0TF     -0.099400
     12 C3          1.3360    0.0180   -4.7700 c3        1 0TF     -0.085400
     13 C2          1.5670   -0.9960   -5.8760 c3        1 0TF     -0.098400
     14 C1          1.0310   -0.4560   -7.2120 c3        1 0TF      0.067500
     15 N7          0.8830   -1.5410   -8.2440 nz        1 0TF     -0.840600
     16 C8          1.9820    0.6040   -7.7640 c         1 0TF      0.611100
     17 O10         1.7560    1.8360   -7.2690 oh        1 0TF     -0.567100
     18 O9          2.8800    0.4010   -8.5800 o         1 0TF     -0.487000
     19 H1          3.4840   -0.4490    1.2010 hx        1 0TF      0.122700
     20 H2          2.8700    2.0520    1.2170 hc        1 0TF      0.109200
     21 H3          1.4660    1.6800    2.2920 hc        1 0TF      0.109200
     22 H4          3.0310    0.7950    4.0580 hc        1 0TF      0.072700
     23 H5          4.4440    1.0330    2.9440 hc        1 0TF      0.072700
     24 H6          3.9340    3.5140    2.8200 hx        1 0TF      0.127700
     25 H7          2.4930    3.2720    3.9270 hx        1 0TF      0.127700
     26 H8          4.4190    4.0990    5.0850 hn        1 0TF      0.477467
     27 H9          4.0470    2.5770    5.6630 hn        1 0TF      0.477467
     28 H11         1.8950   -1.9990    1.8590 hn        1 0TF      0.478800
     29 H12         1.9700   -0.9750    3.1810 hn        1 0TF      0.478800
     30 H14         3.3700    0.2960   -1.1150 hn        1 0TF      0.332500
     31 H15         0.6170    0.6940   -2.2250 h1        1 0TF      0.089200
     32 H16         2.1060    1.6230   -2.7470 h1        1 0TF      0.089200
     33 H17         3.1090   -0.5360   -3.6460 hc        1 0TF      0.061200
     34 H18         1.6040   -1.4240   -3.1690 hc        1 0TF      0.061200
     35 H19         0.2330    0.1430   -4.5980 hc        1 0TF      0.074700
     36 H20         1.7410    1.0190   -5.0830 hc        1 0TF      0.074700
     37 H21         2.6630   -1.2190   -5.9730 hc        1 0TF      0.081700
     38 H22         1.0430   -1.9530   -5.6080 hc        1 0TF      0.081700
     39 H23         0.0080    0.0080   -7.0510 hx        1 0TF      0.149700
     40 H24         1.8130   -1.8020   -8.6090 hn        1 0TF      0.479800
     41 H25         0.4350   -2.3640   -7.8290 hn        1 0TF      0.479800
     42 H173        5.3590    2.7870    4.6540 hn        1 0TF      0.477467
     43 H133        0.6810   -0.8750    2.1040 hn        1 0TF      0.478800
     44 H62         2.3670    2.4810   -7.6830 ho        1 0TF      0.497000
     45 H73         0.3140   -1.2010   -9.0290 hn        1 0TF      0.479800
@<TRIPOS>BOND
     1    1    2 2   
     2    2    3 1   
     3    2    9 1   
     4    3    4 1   
     5    3    8 1   
     6    3   19 1   
     7    4    5 1   
     8    4   20 1   
     9    4   21 1   
    10    5    6 1   
    11    5   22 1   
    12    5   23 1   
    13    6    7 1   
    14    6   24 1   
    15    6   25 1   
    16    7   26 1   
    17    7   27 1   
    18    7   42 1   
    19    8   28 1   
    20    8   29 1   
    21    8   43 1   
    22    9   10 1   
    23    9   30 1   
    24   10   11 1   
    25   10   31 1   
    26   10   32 1   
    27   11   12 1   
    28   11   33 1   
    29   11   34 1   
    30   12   13 1   
    31   12   35 1   
    32   12   36 1   
    33   13   14 1   
    34   13   37 1   
    35   13   38 1   
    36   14   15 1   
    37   14   16 1   
    38   14   39 1   
    39   15   40 1   
    40   15   41 1   
    41   15   45 1   
    42   16   17 1   
    43   16   18 2   
    44   17   44 1   
@<TRIPOS>SUBSTRUCTURE
     1 0TF         1 TEMP              0 ****  ****    0 ROOT
