@<TRIPOS>MOLECULE
0TH
   28    25     1     0     0
SMALL
bcc


@<TRIPOS>ATOM
      1 C15         1.6100    1.5530   -1.6670 c1        1 0TH      0.345000
      2 O1          2.8650    1.6200   -1.5860 o         1 0TH     -0.552000
      3 C1         -0.0580    2.9010   -0.4430 c3        1 0TH      0.016000
      4 O2         -1.1370    2.7800    0.4530 oh        1 0TH     -0.378000
      5 N4         -0.0980    0.5090   -0.3530 n3        1 0TH     -0.884000
      6 C5          0.7660    1.6340   -0.4140 c2        1 0TH     -0.082000
      7 C3          0.8060    4.0730   -0.0340 c3        1 0TH     -0.243000
      8 S1          0.4290   -0.8960    0.3140 s4        1 0TH      2.025800
      9 O4          1.6400   -1.3490   -0.3140 o         1 0TH     -0.572900
     10 O3          0.8730   -0.6980    1.6660 o         1 0TH     -0.572900
     11 C9         -0.8400   -2.1310    0.2280 c2        1 0TH     -0.852000
     12 C8         -0.3390   -3.4140    0.8520 c3        1 0TH     -0.128000
     13 C7         -1.4330   -4.4580    0.8090 c3        1 0TH     -0.201000
     14 H1         -0.3990    3.0480   -1.3470 h1        1 0TH      0.115000
     15 HO2        -1.7680    3.3690    0.2380 ho        1 0TH      0.214000
     16 HN4        -0.9460    0.5660   -0.6850 hn        1 0TH      0.276000
     17 H5          1.3480    1.6410    0.3710 h4        1 0TH      0.093000
     18 H31A        1.4800    4.2390   -0.7270 hc        1 0TH      0.084667
     19 H32         0.2460    4.8700    0.0740 hc        1 0TH      0.084667
     20 H33         1.2530    3.8700    0.8140 hc        1 0TH      0.084667
     21 H91        -1.6310   -1.8200    0.7120 ha        1 0TH      0.148500
     22 H92        -1.0740   -2.2930   -0.7080 ha        1 0TH      0.148500
     23 H81        -0.0850   -3.2470    1.7820 hc        1 0TH      0.090500
     24 H82         0.4390   -3.7370    0.3550 hc        1 0TH      0.090500
     25 H71        -1.0710   -5.3230    1.0950 hc        1 0TH      0.065667
     26 H72        -2.1610   -4.1930    1.4100 hc        1 0TH      0.065667
     27 H73        -1.7760   -4.5330   -0.1060 hc        1 0TH      0.065667
     28 OXT         1.0590    1.4190   -2.7900 o         1 0TH     -0.552000
@<TRIPOS>BOND
     1    1    2 1   
     2    1   28 1   
     3    3    4 1   
     4    3    6 1   
     5    3    7 1   
     6    3   14 1   
     7    4   15 1   
     8    5    6 1   
     9    5    8 1   
    10    5   16 1   
    11    6   17 1   
    12    7   18 1   
    13    7   19 1   
    14    7   20 1   
    15    8    9 1   
    16    8   10 1   
    17   11   12 1   
    18   11   21 1   
    19   11   22 1   
    20   12   13 1   
    21   12   23 1   
    22   12   24 1   
    23   13   25 1   
    24   13   26 1   
    25   13   27 1   
@<TRIPOS>SUBSTRUCTURE
     1 0TH         1 TEMP              0 ****  ****    0 ROOT
