@<TRIPOS>MOLECULE
0TH
   28    27     1     0     0
SMALL
bcc


@<TRIPOS>ATOM
      1 C15        -2.7950   -0.3390    0.6050 c         1 0TH      0.919600
      2 O1         -2.6520   -0.1660    1.8490 o         1 0TH     -0.817800
      3 C1         -1.3930    1.5070   -0.2760 c3        1 0TH      0.127100
      4 O2         -0.8220    1.9840    0.9360 oh        1 0TH     -0.644800
      5 N4         -0.3810   -0.7560    0.2280 n3        1 0TH     -0.899100
      6 C5         -1.5200   -0.0370   -0.2840 c3        1 0TH      0.057500
      7 O4          1.6310   -2.1710   -0.0280 o         1 0TH     -0.678800
      8 O3          1.0370   -0.7410   -1.8490 o         1 0TH     -0.678800
      9 C9          2.0050    0.3060    0.2850 c3        1 0TH     -0.324600
     10 C8          3.1800    0.6980   -0.5760 c3        1 0TH     -0.043400
     11 C7          4.0040    1.7860    0.0620 c3        1 0TH     -0.085100
     12 H1         -2.4440    1.9150   -0.3600 h1        1 0TH      0.048700
     13 HO2        -1.2990    1.5260    1.6510 ho        1 0TH      0.443000
     14 HN4        -0.5580   -1.0690    1.1610 hn        1 0TH      0.471800
     15 H5         -1.7210   -0.3690   -1.3410 h1        1 0TH      0.066700
     16 H91         1.3960    1.2270    0.5070 h1        1 0TH      0.113200
     17 H92         2.3860   -0.0440    1.2790 h1        1 0TH      0.113200
     18 H81         3.8260   -0.2040   -0.7570 hc        1 0TH      0.049200
     19 H82         2.8050    1.0460   -1.5770 hc        1 0TH      0.049200
     20 H71         4.4060    1.4480    1.0480 hc        1 0TH      0.027367
     21 H72         4.8640    2.0580   -0.5960 hc        1 0TH      0.027367
     22 H73         3.3840    2.6990    0.2330 hc        1 0TH      0.027367
     23 OXT        -3.8410   -0.6820    0.0080 o         1 0TH     -0.817800
     24 C3         -0.5690    2.0550   -1.4240 c3        1 0TH     -0.100100
     25 H31A       -0.4330    3.1560   -1.3040 hc        1 0TH      0.034700
     26 H32         0.4400    1.5780   -1.4690 hc        1 0TH      0.034700
     27 H33        -1.0970    1.8510   -2.3860 hc        1 0TH      0.034700
     28 S1          1.0410   -0.9440   -0.4450 s6        1 0TH      1.441900
@<TRIPOS>BOND
     1    1    2 1   
     2    1    6 1   
     3    1   23 1   
     4    3    4 1   
     5    3    6 1   
     6    3   12 1   
     7    3   24 1   
     8    4   13 1   
     9    5    6 1   
    10    5   14 1   
    11    5   28 1   
    12    6   15 1   
    13    7   28 2   
    14    8   28 2   
    15    9   10 1   
    16    9   16 1   
    17    9   17 1   
    18    9   28 1   
    19   10   11 1   
    20   10   18 1   
    21   10   19 1   
    22   11   20 1   
    23   11   21 1   
    24   11   22 1   
    25   24   25 1   
    26   24   26 1   
    27   24   27 1   
@<TRIPOS>SUBSTRUCTURE
     1 0TH         1 TEMP              0 ****  ****    0 ROOT
