@<TRIPOS>MOLECULE
0TJ
   39    33     1     0     0
SMALL
bcc


@<TRIPOS>ATOM
      1 BR1        -8.0870    1.0110    1.1650 br        1 0TJ      0.113500
      2 CAM        -6.2760    1.6240    1.3020 c1        1 0TJ     -0.128250
      3 CAK        -6.2600    2.6980    2.1810 c1        1 0TJ     -0.128250
      4 BR2        -7.8510    3.0460    3.2050 br        1 0TJ      0.113500
      5 CAL        -5.0770    3.3830    2.4170 c1        1 0TJ     -0.128250
      6 BR3        -5.4050    4.7600    3.6740 br        1 0TJ      0.113500
      7 CAN        -3.9190    2.9980    1.7790 c1        1 0TJ     -0.128250
      8 BR4        -2.9330    4.3340    2.7410 br        1 0TJ      0.113500
      9 CAP        -3.9350    1.9040    0.8830 c1        1 0TJ     -0.022000
     10 CAO        -5.0980    1.2310    0.6520 c1        1 0TJ     -0.022000
     11 NAI        -4.8520    0.2800   -0.2940 n1        1 0TJ     -0.151500
     12 CAG        -3.5430    0.3650   -0.6450 c1        1 0TJ     -0.010000
     13 N          -2.9750    1.3700    0.0830 n1        1 0TJ     -0.151500
     14 CA         -1.6010    1.6810   -0.2010 c2        1 0TJ     -0.056000
     15 C          -0.6840    0.6070    0.4310 c2        1 0TJ      0.277000
     16 O          -1.1010   -0.0890    1.3500 o         1 0TJ     -0.358000
     17 NAA         0.7040    0.5030    0.0170 n         1 0TJ     -0.360000
     18 H1         -3.0890   -0.1930   -1.3090 DU        1 0TJ      0.216000
     19 H2         -1.4620    1.6960   -1.1850 ha        1 0TJ      0.143500
     20 H3         -1.3810    2.5590    0.1740 ha        1 0TJ      0.143500
     21 H4          1.1500    1.2470   -0.2780 hn        1 0TJ      0.229000
     22 C1          1.4090   -0.7450    0.1740 c3        1 0TJ     -0.033000
     23 C2          2.7900   -0.6440   -0.4850 c3        1 0TJ     -0.184000
     24 C3          3.3760   -2.0850   -0.7040 c3        1 0TJ     -0.156000
     25 C4          4.7650   -1.9810   -1.3600 c3        1 0TJ     -0.154000
     26 C5          5.3180   -3.3610   -1.5790 c3        1 0TJ     -0.233000
     27 H5          0.8940   -1.4700   -0.2540 h1        1 0TJ      0.106000
     28 H6          1.5170   -0.9410    1.1280 h1        1 0TJ      0.106000
     29 H7          2.7050   -0.1870   -1.3570 hc        1 0TJ      0.087000
     30 H8          3.3960   -0.1280    0.0990 hc        1 0TJ      0.087000
     31 H9          2.7750   -2.5970   -1.2890 hc        1 0TJ      0.086000
     32 H10         3.4550   -2.5390    0.1560 hc        1 0TJ      0.086000
     33 H11         4.6860   -1.5180   -2.2220 hc        1 0TJ      0.084500
     34 H12         5.3580   -1.4840   -0.7820 hc        1 0TJ      0.084500
     35 H13         5.3720   -3.8350   -0.7140 hc        1 0TJ      0.114500
     36 H14         4.7320   -3.8530   -2.1820 hc        1 0TJ      0.114500
     37 C6          6.6820   -3.2630   -2.1790 c2        1 0TJ      0.183000
     38 O1          7.6640   -3.3220   -1.4640 o         1 0TJ     -0.285000
     39 H15         6.7820   -3.0600   -3.1280 h4        1 0TJ      0.087000
@<TRIPOS>BOND
     1    1    2 1   
     2    2    3 1   
     3    3    4 1   
     4    5    6 1   
     5    5    7 1   
     6    7    8 1   
     7    9   10 1   
     8   11   12 1   
     9   12   13 1   
    10   14   15 1   
    11   14   19 1   
    12   14   20 1   
    13   15   16 1   
    14   15   17 1   
    15   17   21 1   
    16   17   22 1   
    17   22   23 1   
    18   22   27 1   
    19   22   28 1   
    20   23   24 1   
    21   23   29 1   
    22   23   30 1   
    23   24   25 1   
    24   24   31 1   
    25   24   32 1   
    26   25   26 1   
    27   25   33 1   
    28   25   34 1   
    29   26   35 1   
    30   26   36 1   
    31   26   37 1   
    32   37   38 1   
    33   37   39 1   
@<TRIPOS>SUBSTRUCTURE
     1 0TJ         1 TEMP              0 ****  ****    0 ROOT
