@<TRIPOS>MOLECULE
0TJ
   40    38     1     0     0
SMALL
bcc


@<TRIPOS>ATOM
      1 Br1         1.3310   -2.4790    0.0750 br        1 0TJ      0.178000
      2 CAM         3.0050   -1.7130   -0.1790 ca        1 0TJ     -0.072000
      3 CAK         3.8350   -1.3790    0.9010 ca        1 0TJ     -0.153000
      4 Br2         3.2340   -1.6950    2.6380 br        1 0TJ      0.164000
      5 CAL         5.1100   -0.8160    0.6970 ca        1 0TJ     -0.101000
      6 Br3         6.1750   -0.4020    2.1740 br        1 0TJ      0.159000
      7 CAN         5.6000   -0.5600   -0.5920 ca        1 0TJ     -0.178000
      8 Br4         7.3240    0.1440   -0.8060 br        1 0TJ      0.082000
      9 CAP         4.7780   -0.8520   -1.6800 ca        1 0TJ     -0.013000
     10 CAO         3.4730   -1.4500   -1.4690 ca        1 0TJ     -0.042000
     11 NAI         2.8500   -1.6880   -2.7230 n2        1 0TJ     -0.058000
     12 CAG         3.7060   -1.2570   -3.6380 c2        1 0TJ     -0.023000
     13 N           4.9470   -0.7740   -3.0870 na        1 0TJ     -0.246000
     14 CA          5.7610    0.1490   -3.7990 c3        1 0TJ     -0.037000
     15 C           7.0100   -0.4780   -4.4270 c2        1 0TJ      0.226000
     16 O           7.4270   -0.2270   -5.5470 o         1 0TJ     -0.162000
     17 NAA         7.8230   -1.4130   -3.5910 ny        1 0TJ     -0.117000
     18 H1          3.5400   -1.2740   -4.7260 h5        1 0TJ      0.223000
     19 H2          6.1150    0.9990   -3.1390 h1        1 0TJ      0.171000
     20 H3          5.1810    0.6010   -4.6640 h1        1 0TJ      0.171000
     21 H4          7.4550   -2.9780   -4.9810 hx        1 0TJ      0.147500
     22 C1          7.5020   -2.8460   -3.8610 c3        1 0TJ     -0.118000
     23 C2          8.5650   -3.7920   -3.2810 c3        1 0TJ     -0.120000
     24 C3          9.8660   -3.2130   -3.3210 c1        1 0TJ     -0.166000
     25 C4         11.1260   -3.4200   -3.1260 c1        1 0TJ     -0.053000
     26 C5         12.3540   -3.4510   -2.9560 c1        1 0TJ     -0.073000
     27 H5          7.6790   -1.1920   -2.5830 hn        1 0TJ      0.274500
     28 H6          8.8380   -1.2890   -3.8050 hn        1 0TJ      0.274500
     29 H7          9.7610    0.2580   -5.0080 ha        1 0TJ      0.001167
     30 H8          9.9920    0.4210   -5.6240 ha        1 0TJ      0.001167
     31 H9          8.5130   -4.7600   -3.8680 hc        1 0TJ      0.165000
     32 H10         8.3090   -4.0530   -2.2110 hc        1 0TJ      0.165000
     33 H11         6.2020   -5.6340   -5.1420 ha        1 0TJ      0.001167
     34 H12         6.4470   -5.0710   -4.8530 ha        1 0TJ      0.001167
     35 H13         8.2800   -6.6510   -4.8920 ha        1 0TJ      0.001167
     36 H14         8.8700   -6.9650   -4.7790 ha        1 0TJ      0.001167
     37 C6         13.7610   -3.5000   -2.8080 c2        1 0TJ      0.264000
     38 O1         14.3520   -3.2400   -1.7600 o         1 0TJ     -0.236000
     39 H15        14.2880   -3.8010   -3.7460 h4        1 0TJ      0.147000
     40 HAA2        6.4940   -3.0870   -3.4220 hx        1 0TJ      0.147500
@<TRIPOS>BOND
     1    1    2 1   
     2    2    3 1   
     3    2   10 1   
     4    3    4 1   
     5    3    5 1   
     6    5    6 1   
     7    5    7 1   
     8    7    8 1   
     9    7    9 1   
    10    9   10 1   
    11    9   13 1   
    12   10   11 1   
    13   11   12 1   
    14   12   13 1   
    15   12   18 1   
    16   13   14 1   
    17   14   15 1   
    18   14   19 1   
    19   14   20 1   
    20   15   16 1   
    21   15   17 1   
    22   17   22 1   
    23   17   27 1   
    24   17   28 1   
    25   21   22 1   
    26   22   23 1   
    27   22   40 1   
    28   23   24 1   
    29   23   31 1   
    30   23   32 1   
    31   24   25 1   
    32   25   26 1   
    33   26   37 1   
    34   29   30 1   
    35   33   34 1   
    36   35   36 1   
    37   37   38 1   
    38   37   39 1   
@<TRIPOS>SUBSTRUCTURE
     1 0TJ         1 TEMP              0 ****  ****    0 ROOT
