@<TRIPOS>MOLECULE
0TJ
   40    39     1     0     0
SMALL
bcc


@<TRIPOS>ATOM
      1 BR1         2.1420   -2.4810    1.0760 br        1 0TJ      0.040900
      2 CAM         3.4930   -1.4580    0.3140 ca        1 0TJ      0.069100
      3 CAK         4.3100   -0.6200    1.0890 ca        1 0TJ     -0.011900
      4 BR2         4.0160   -0.5150    2.9280 br        1 0TJ      0.026900
      5 CAL         5.3440    0.1360    0.5040 ca        1 0TJ      0.040100
      6 BR3         6.4070    1.2260    1.5860 br        1 0TJ      0.019900
      7 CAN         5.5980    0.0880   -0.8750 ca        1 0TJ     -0.036900
      8 BR4         7.0210    1.0750   -1.5930 br        1 0TJ     -0.063100
      9 CAP         4.7760   -0.7100   -1.6690 ca        1 0TJ     -0.058200
     10 CAO         3.7240   -1.5040   -1.0630 ca        1 0TJ      0.098400
     11 NAI         3.0590   -2.2590   -2.0660 nc        1 0TJ     -0.482100
     12 CAG         3.6520   -1.9450   -3.2070 cd        1 0TJ      0.432700
     13 N           4.7600   -1.0340   -3.0510 na        1 0TJ     -0.221300
     14 CA          5.1920   -0.2070   -4.1240 c3        1 0TJ     -0.023700
     15 C           6.4990   -0.6600   -4.7800 c         1 0TJ      0.517100
     16 O           6.7240   -0.6460   -5.9800 o         1 0TJ     -0.399100
     17 NAA         7.6280   -1.0910   -3.8900 n4        1 0TJ     -0.691800
     18 H1          3.3800   -2.3370   -4.1990 h5        1 0TJ      0.094800
     19 H2          5.3460    0.8670   -3.7970 h1        1 0TJ      0.133700
     20 H3          4.4220   -0.2090   -4.9580 h1        1 0TJ      0.133700
     21 H4          7.7270   -3.0250   -4.7690 hx        1 0TJ      0.113200
     22 C1          7.6780   -2.5780   -3.7330 c3        1 0TJ      0.108800
     23 C2          8.8880   -3.0310   -2.9160 c3        1 0TJ     -0.054200
     24 C3          8.8620   -4.5130   -2.8070 c2        1 0TJ     -0.230300
     25 C4          9.7930   -5.2850   -3.2920 c1        1 0TJ      0.043200
     26 C5         10.7050   -6.0760   -3.7790 ce        1 0TJ     -0.250300
     27 H5          7.5300   -0.6270   -2.9590 hn        1 0TJ      0.466800
     28 H6          8.5230   -0.7900   -4.3120 hn        1 0TJ      0.466800
     29 H7         10.5980   -0.8650   -5.1880 ha        1 0TJ      0.002000
     30 H8         10.5780   -0.7630   -4.5180 ha        1 0TJ      0.002000
     31 H9          8.8500   -2.5910   -1.8820 hc        1 0TJ      0.074700
     32 H10         9.8390   -2.6820   -3.4050 hc        1 0TJ      0.074700
     33 H11         8.8760   -1.7920   -7.0600 ha        1 0TJ      0.002000
     34 H12         8.8920   -1.8060   -6.3820 ha        1 0TJ      0.002000
     35 H13         8.0070   -4.9420   -2.2530 ha        1 0TJ      0.162000
     36 H14        10.6160   -6.4890   -4.8040 ha        1 0TJ      0.182000
     37 C6         11.9170   -6.4810   -3.0310 c         1 0TJ      0.563100
     38 O1         12.8890   -6.9700   -3.6030 o         1 0TJ     -0.478100
     39 H15        11.8880   -6.3230   -1.9310 h4        1 0TJ      0.018200
     40 HAA2        6.7290   -2.9170   -3.2300 hx        1 0TJ      0.113200
@<TRIPOS>BOND
     1    1    2 1   
     2    2    3 ar  
     3    2   10 ar  
     4    3    4 1   
     5    3    5 ar  
     6    5    6 1   
     7    5    7 ar  
     8    7    8 1   
     9    7    9 ar  
    10    9   10 ar  
    11    9   13 1   
    12   10   11 1   
    13   11   12 2   
    14   12   13 1   
    15   12   18 1   
    16   13   14 1   
    17   14   15 1   
    18   14   19 1   
    19   14   20 1   
    20   15   16 2   
    21   15   17 1   
    22   17   22 1   
    23   17   27 1   
    24   17   28 1   
    25   21   22 1   
    26   22   23 1   
    27   22   40 1   
    28   23   24 1   
    29   23   31 1   
    30   23   32 1   
    31   24   25 2   
    32   24   35 1   
    33   25   26 2   
    34   26   36 1   
    35   26   37 1   
    36   29   30 1   
    37   33   34 1   
    38   37   38 2   
    39   37   39 1   
@<TRIPOS>SUBSTRUCTURE
     1 0TJ         1 TEMP              0 ****  ****    0 ROOT
