@<TRIPOS>MOLECULE
0TJ
   40    38     1     0     0
SMALL
bcc


@<TRIPOS>ATOM
      1 BR1         1.6070   -0.7300    0.9230 br        1 0TJ      0.035900
      2 CAM         3.3090   -0.5140    0.2110 ca        1 0TJ      0.068100
      3 CAK         4.4010   -0.1410    1.0090 ca        1 0TJ     -0.011900
      4 BR2         4.1310    0.1680    2.8290 br        1 0TJ      0.021900
      5 CAL         5.6920   -0.0010    0.4630 ca        1 0TJ      0.039100
      6 BR3         7.1090    0.4890    1.5760 br        1 0TJ      0.015900
      7 CAN         5.9400   -0.2220   -0.9000 ca        1 0TJ     -0.035900
      8 BR4         7.6860   -0.0770   -1.5630 br        1 0TJ     -0.053100
      9 CAP         4.8630   -0.5590   -1.7190 ca        1 0TJ     -0.058200
     10 CAO         3.5370   -0.7220   -1.1520 ca        1 0TJ      0.097400
     11 NAI         2.6260   -1.1030   -2.1730 nc        1 0TJ     -0.485100
     12 CAG         3.3390   -1.1610   -3.2880 cd        1 0TJ      0.431700
     13 N           4.7420   -0.8930   -3.0940 na        1 0TJ     -0.219300
     14 CA          5.5530   -0.4110   -4.1590 c3        1 0TJ     -0.028700
     15 C           6.4800   -1.4710   -4.7620 c         1 0TJ      0.514100
     16 O           6.6780   -1.6210   -5.9580 o         1 0TJ     -0.400100
     17 NAA         7.2550   -2.3440   -3.8290 n4        1 0TJ     -0.700800
     18 H1          2.9460   -1.4140   -4.2840 h5        1 0TJ      0.093800
     19 H2          6.2080    0.4540   -3.8340 h1        1 0TJ      0.131200
     20 H3          4.9040   -0.0520   -5.0180 h1        1 0TJ      0.131200
     21 H4          6.0440   -3.9870   -4.5090 hx        1 0TJ      0.122700
     22 C1          6.5480   -3.6510   -3.5520 c3        1 0TJ      0.243900
     23 C2          7.5170   -4.6150   -3.1320 c1        1 0TJ     -0.214100
     24 C3          8.4370   -5.3260   -2.8380 cg        1 0TJ     -0.019300
     25 C4          9.6020   -6.0530   -2.5470 ce        1 0TJ      0.038300
     26 C5         10.8250   -5.5530   -2.8140 cf        1 0TJ     -0.230200
     27 H5          7.4230   -1.8320   -2.9340 hn        1 0TJ      0.484300
     28 H6          8.1870   -2.5540   -4.2470 hn        1 0TJ      0.484300
     29 H7         10.2790   -1.0410   -3.9850 ha        1 0TJ      0.001500
     30 H8          9.6680   -0.8740   -3.7400 ha        1 0TJ      0.001500
     31 H9          9.1390   -2.3480   -6.0640 ha        1 0TJ      0.001500
     32 H10         9.7800   -2.4150   -5.8500 ha        1 0TJ      0.001500
     33 H11        11.9240   -2.2120   -5.0390 ha        1 0TJ      0.001500
     34 H12        12.0830   -1.6900   -5.4410 ha        1 0TJ      0.001500
     35 H13        11.7250   -6.1470   -2.5740 ha        1 0TJ      0.171000
     36 H14         9.4690   -7.0540   -2.0920 ha        1 0TJ      0.181000
     37 C6         11.0880   -4.2420   -3.4250 c         1 0TJ      0.590100
     38 O1         10.2110   -3.4130   -3.7140 o         1 0TJ     -0.605100
     39 H15        12.1620   -4.0200   -3.6240 h4        1 0TJ      0.036200
     40 HAA2        5.7610   -3.4740   -2.7600 hx        1 0TJ      0.122700
@<TRIPOS>BOND
     1    1    2 1   
     2    2    3 ar  
     3    2   10 ar  
     4    3    4 1   
     5    3    5 ar  
     6    5    6 1   
     7    5    7 ar  
     8    7    8 1   
     9    7    9 ar  
    10    9   10 ar  
    11    9   13 1   
    12   10   11 1   
    13   11   12 2   
    14   12   13 1   
    15   12   18 1   
    16   13   14 1   
    17   14   15 1   
    18   14   19 1   
    19   14   20 1   
    20   15   16 2   
    21   15   17 1   
    22   17   22 1   
    23   17   27 1   
    24   17   28 1   
    25   21   22 1   
    26   22   23 1   
    27   22   40 1   
    28   23   24 3   
    29   24   25 1   
    30   25   26 2   
    31   25   36 1   
    32   26   35 1   
    33   26   37 1   
    34   29   30 1   
    35   31   32 1   
    36   33   34 1   
    37   37   38 2   
    38   37   39 1   
@<TRIPOS>SUBSTRUCTURE
     1 0TJ         1 TEMP              0 ****  ****    0 ROOT
