@<TRIPOS>MOLECULE
0TJ
   39    40     1     0     0
SMALL
bcc


@<TRIPOS>ATOM
      1 BR1        -3.2830   -0.3820    1.7730 br        1 0TJ     -0.010100
      2 CAM        -1.8970   -0.1180    0.5570 ca        1 0TJ      0.059100
      3 CAK        -1.5580    1.1560    0.0970 ca        1 0TJ     -0.017900
      4 BR2        -2.5140    2.6350    0.7230 br        1 0TJ     -0.024100
      5 CAL        -0.5120    1.3460   -0.8300 ca        1 0TJ      0.025100
      6 BR3        -0.1150    3.0810   -1.4080 br        1 0TJ     -0.025100
      7 CAN         0.2350    0.2740   -1.3290 ca        1 0TJ     -0.018900
      8 BR4         1.5950    0.5870   -2.5720 br        1 0TJ     -0.047100
      9 CAP        -0.0780   -1.0120   -0.8730 ca        1 0TJ     -0.043200
     10 CAO        -1.1640   -1.2100    0.0800 ca        1 0TJ      0.093400
     11 NAI        -1.2940   -2.5850    0.3700 nc        1 0TJ     -0.539100
     12 CAG        -0.3490   -3.1900   -0.3550 cd        1 0TJ      0.445700
     13 N           0.4160   -2.2970   -1.1480 na        1 0TJ     -0.165300
     14 CA          1.5410   -2.6940   -1.9310 c3        1 0TJ     -0.046700
     15 C           2.8820   -2.8280   -1.1830 c         1 0TJ      0.633100
     16 O           3.6260   -3.7840   -1.4770 o         1 0TJ     -0.597100
     17 NAA         3.2000   -1.9030   -0.2200 n         1 0TJ     -0.550900
     18 H1         -0.1580   -4.2720   -0.3750 h5        1 0TJ      0.086800
     19 H2          1.3210   -3.7110   -2.3740 h1        1 0TJ      0.104200
     20 H3          1.6970   -1.9650   -2.7790 h1        1 0TJ      0.104200
     21 H4          2.6410   -1.0890   -0.1230 hn        1 0TJ      0.315500
     22 C1          4.4710   -1.9000    0.4560 c3        1 0TJ      0.083000
     23 C2          5.4000   -0.7540    0.0490 c3        1 0TJ     -0.105400
     24 C3          6.6790   -0.8210    0.8550 c3        1 0TJ     -0.077400
     25 C4          7.6230    0.2970    0.4680 c3        1 0TJ     -0.075400
     26 C5          8.9000    0.2330    1.2760 c3        1 0TJ     -0.204400
     27 H5          4.2680   -1.8260    1.5640 h1        1 0TJ      0.066700
     28 H6          4.9900   -2.8830    0.2580 h1        1 0TJ      0.066700
     29 H7          5.6380   -0.8240   -1.0440 hc        1 0TJ      0.047700
     30 H8          4.8970    0.2330    0.2220 hc        1 0TJ      0.047700
     31 H9          6.4420   -0.7500    1.9490 hc        1 0TJ      0.046700
     32 H10         7.1800   -1.8110    0.6870 hc        1 0TJ      0.046700
     33 H11         7.8630    0.2250   -0.6270 hc        1 0TJ      0.045200
     34 H12         7.1220    1.2870    0.6330 hc        1 0TJ      0.045200
     35 H13         8.6690    0.3040    2.3720 hc        1 0TJ      0.075200
     36 H14         9.4110   -0.7550    1.1090 hc        1 0TJ      0.075200
     37 C6          9.8580    1.3150    0.8850 c         1 0TJ      0.564900
     38 O1         10.6730    1.8030    1.6690 o         1 0TJ     -0.524100
     39 H15         9.7980    1.6510   -0.1750 h4        1 0TJ     -0.005800
@<TRIPOS>BOND
     1    1    2 1   
     2    2    3 ar  
     3    2   10 ar  
     4    3    4 1   
     5    3    5 ar  
     6    5    6 1   
     7    5    7 ar  
     8    7    8 1   
     9    7    9 ar  
    10    9   10 ar  
    11    9   13 1   
    12   10   11 1   
    13   11   12 2   
    14   12   13 1   
    15   12   18 1   
    16   13   14 1   
    17   14   15 1   
    18   14   19 1   
    19   14   20 1   
    20   15   16 2   
    21   15   17 1   
    22   17   21 1   
    23   17   22 1   
    24   22   23 1   
    25   22   27 1   
    26   22   28 1   
    27   23   24 1   
    28   23   29 1   
    29   23   30 1   
    30   24   25 1   
    31   24   31 1   
    32   24   32 1   
    33   25   26 1   
    34   25   33 1   
    35   25   34 1   
    36   26   35 1   
    37   26   36 1   
    38   26   37 1   
    39   37   38 2   
    40   37   39 1   
@<TRIPOS>SUBSTRUCTURE
     1 0TJ         1 TEMP              0 ****  ****    0 ROOT
