@<TRIPOS>MOLECULE
0TK
   24    23     1     0     0
SMALL
bcc


@<TRIPOS>ATOM
      1 C1         -1.0190    1.3500   -0.2900 c3        1 0TK      0.032500
      2 C2         -1.8440    0.3110    0.4730 c3        1 0TK     -0.100400
      3 C3         -3.0030   -0.1990   -0.3500 c3        1 0TK     -0.094400
      4 O12         0.4230   -1.8570    0.8270 o         1 0TK     -0.902167
      5 P11         1.3530   -1.1350   -0.1000 p5        1 0TK      1.330900
      6 O13         2.8150   -1.3890    0.0390 o         1 0TK     -0.902167
      7 O14         0.8080   -0.8490   -1.4650 o         1 0TK     -0.902167
      8 O10         1.1800    0.5510    0.5790 os        1 0TK     -0.487500
      9 C8          0.3360    1.5170    0.4450 c         1 0TK      0.694100
     10 O9          0.6270    2.6410    0.9350 o         1 0TK     -0.741000
     11 N7         -1.7260    2.6100   -0.4960 n3        1 0TK     -0.890800
     12 C4         -3.7480   -1.3000    0.4060 c3        1 0TK      0.127800
     13 N5         -4.7770   -1.9950   -0.3420 n3        1 0TK     -0.911800
     14 H1         -0.7770    0.9260   -1.3150 h1        1 0TK      0.122700
     15 H2         -1.1320   -0.5530    0.7010 hc        1 0TK      0.082200
     16 H3         -2.2150    0.7310    1.4420 hc        1 0TK      0.082200
     17 H4         -3.7110    0.6340   -0.5980 hc        1 0TK      0.031200
     18 H5         -2.6020   -0.6050   -1.3170 hc        1 0TK      0.031200
     19 H8         -1.9900    2.9760    0.4030 hn        1 0TK      0.319300
     20 H9         -1.0690    3.2670   -0.8820 hn        1 0TK      0.319300
     21 H11        -2.9940   -2.0570    0.7680 h1        1 0TK      0.055700
     22 H12        -4.2420   -0.8490    1.3120 h1        1 0TK      0.055700
     23 H13        -5.3380   -1.3290   -0.8420 hn        1 0TK      0.322800
     24 H14        -4.3480   -2.5920   -1.0240 hn        1 0TK      0.322800
@<TRIPOS>BOND
     1    1    2 1   
     2    1    9 1   
     3    1   11 1   
     4    1   14 1   
     5    2    3 1   
     6    2   15 1   
     7    2   16 1   
     8    3   12 1   
     9    3   17 1   
    10    3   18 1   
    11    4    5 1   
    12    5    6 1   
    13    5    7 1   
    14    5    8 1   
    15    8    9 1   
    16    9   10 2   
    17   11   19 1   
    18   11   20 1   
    19   12   13 1   
    20   12   21 1   
    21   12   22 1   
    22   13   23 1   
    23   13   24 1   
@<TRIPOS>SUBSTRUCTURE
     1 0TK         1 TEMP              0 ****  ****    0 ROOT
