@<TRIPOS>MOLECULE
0TK
   24    23     1     0     0
SMALL
bcc


@<TRIPOS>ATOM
      1 C1          1.1860    0.0800    0.0680 c3        1 0TK      0.055500
      2 C2          1.9040    0.0360    1.4190 c3        1 0TK     -0.070400
      3 C3          1.5860   -1.2250    2.1900 c3        1 0TK     -0.108400
      4 O12         5.2650    2.0360   -1.7460 o         1 0TK     -0.905833
      5 P11         3.8420    2.4870   -1.8980 p5        1 0TK      1.300900
      6 O13         3.4650    3.6830   -1.0800 o         1 0TK     -0.905833
      7 O14         3.2520    2.2770   -3.2570 o         1 0TK     -0.905833
      8 O10         3.1230    1.1300   -0.9300 os        1 0TK     -0.461500
      9 C8          1.8380    1.1880   -0.7930 c         1 0TK      0.639100
     10 O9          1.1610    2.0740   -1.3450 o         1 0TK     -0.628000
     11 N7         -0.2630    0.2050    0.1870 n3        1 0TK     -0.903800
     12 C4          2.3420   -1.2560    3.5180 c3        1 0TK      0.131800
     13 N5          2.1450   -2.4350    4.3330 n3        1 0TK     -0.907800
     14 H1          1.3820   -0.8950   -0.4690 h1        1 0TK      0.052700
     15 H2          1.6330    0.9360    2.0310 hc        1 0TK      0.066200
     16 H3          3.0070    0.0960    1.2060 hc        1 0TK      0.066200
     17 H4          0.4830   -1.2890    2.3810 hc        1 0TK      0.029700
     18 H5          1.8680   -2.1180    1.5720 hc        1 0TK      0.029700
     19 H8         -0.4670    0.9990    0.7690 hn        1 0TK      0.334300
     20 H9         -0.6200    0.4280   -0.7280 hn        1 0TK      0.334300
     21 H11         2.0330   -0.3620    4.1310 h1        1 0TK      0.052700
     22 H12         3.4450   -1.1560    3.3110 h1        1 0TK      0.052700
     23 H13         1.1650   -2.5720    4.5020 hn        1 0TK      0.325800
     24 H14         2.4820   -3.2450    3.8480 hn        1 0TK      0.325800
@<TRIPOS>BOND
     1    1    2 1   
     2    1    9 1   
     3    1   11 1   
     4    1   14 1   
     5    2    3 1   
     6    2   15 1   
     7    2   16 1   
     8    3   12 1   
     9    3   17 1   
    10    3   18 1   
    11    4    5 1   
    12    5    6 1   
    13    5    7 1   
    14    5    8 1   
    15    8    9 1   
    16    9   10 2   
    17   11   19 1   
    18   11   20 1   
    19   12   13 1   
    20   12   21 1   
    21   12   22 1   
    22   13   23 1   
    23   13   24 1   
@<TRIPOS>SUBSTRUCTURE
     1 0TK         1 TEMP              0 ****  ****    0 ROOT
