@<TRIPOS>MOLECULE
0TK
   24    22     1     0     0
SMALL
bcc


@<TRIPOS>ATOM
      1 C1         -0.6140    0.0730   -0.7150 c3        1 0TK     -0.128000
      2 C2         -0.1160    0.0640    0.7270 c3        1 0TK     -0.143000
      3 C3         -0.0080   -1.4010    1.2280 c3        1 0TK     -0.180000
      4 O12         1.5620    2.2390   -4.8160 o         1 0TK     -1.225667
      5 P11         0.8650    2.5950   -3.4860 p3        1 0TK      2.514000
      6 O13         1.8030    3.4510   -2.6310 o         1 0TK     -1.225667
      7 O14        -0.4180    3.3790   -3.7760 o         1 0TK     -1.225667
      8 O10         0.4980    1.2310   -2.6910 o         1 0TK     -0.584000
      9 C8         -0.1350    1.3250   -1.4090 c2        1 0TK      0.357000
     10 O9         -0.3510    2.4190   -0.9140 o         1 0TK     -0.584000
     11 N7         -2.0350    0.0370   -0.7300 n3        1 0TK     -0.327000
     12 C4          0.5380   -1.4080    2.6370 c3        1 0TK     -0.105000
     13 N5          0.6810   -2.7680    3.0980 n3        1 0TK     -0.344000
     14 H1         -0.2600   -0.7200   -1.1900 h1        1 0TK      0.191000
     15 H2         -0.7510    0.5620    1.3000 hc        1 0TK      0.099500
     16 H3          0.7760    0.4920    0.7710 hc        1 0TK      0.099500
     17 H4          0.5960   -1.9050    0.6400 hc        1 0TK      0.079000
     18 H5         -0.8980   -1.8180    1.2180 hc        1 0TK      0.079000
     19 H8         -2.3540    0.6820   -1.3140 hn        1 0TK      0.120500
     20 H9         -2.3280   -0.8240   -1.0160 hn        1 0TK      0.120500
     21 H11         1.4300   -0.9580    2.6500 h1        1 0TK      0.086000
     22 H12        -0.0830   -0.9250    3.2310 h1        1 0TK      0.086000
     23 H13         1.5290   -2.8900    3.4290 hn        1 0TK      0.120500
     24 H14         0.0720   -2.9330    3.7560 hn        1 0TK      0.120500
@<TRIPOS>BOND
     1    1    2 1   
     2    1    9 1   
     3    1   11 1   
     4    1   14 1   
     5    2    3 1   
     6    2   15 1   
     7    2   16 1   
     8    3   12 1   
     9    3   17 1   
    10    3   18 1   
    11    4    5 1   
    12    5    6 1   
    13    5    7 1   
    14    8    9 1   
    15    9   10 1   
    16   11   19 1   
    17   11   20 1   
    18   12   13 1   
    19   12   21 1   
    20   12   22 1   
    21   13   23 1   
    22   13   24 1   
@<TRIPOS>SUBSTRUCTURE
     1 0TK         1 TEMP              0 ****  ****    0 ROOT
