@<TRIPOS>MOLECULE
0TM
   47    39     1     0     0
SMALL
bcc


@<TRIPOS>ATOM
      1 C14         0.0040    4.5310   -2.7610 c3        1 0TM     -0.076000
      2 O1          1.0340    3.5400   -2.6130 os        1 0TM     -0.211000
      3 C5          0.5900    2.2060   -2.8440 c2        1 0TM      0.032000
      4 C4          0.0050    1.4830   -1.8080 c1        1 0TM     -0.078000
      5 C6          0.8530    1.5860   -4.0690 c1        1 0TM      0.080000
      6 O2          1.5480    2.2880   -5.0760 o         1 0TM     -0.201000
      7 C17         0.7680    2.6000   -6.1940 c3        1 0TM     -0.080000
      8 C1          0.5320    0.2580   -4.2490 c1        1 0TM     -0.194000
      9 C2         -0.0530   -0.4630   -3.2090 c1        1 0TM     -0.007000
     10 CL         -0.5960   -2.0880   -3.4830 cl        1 0TM      0.004000
     11 C3         -0.3140    0.1600   -1.9870 c1        1 0TM     -0.068000
     12 C7         -0.9210   -0.6270   -0.8540 c2        1 0TM      0.135000
     13 N1          0.0570   -1.1370   -0.0720 n2        1 0TM     -0.150000
     14 C9         -2.2730   -0.9400   -0.5850 c1        1 0TM     -0.144000
     15 C12        -3.4660   -0.5620   -1.1940 c1        1 0TM     -0.057000
     16 C13        -4.2390    0.3110   -2.1320 c1        1 0TM     -0.064000
     17 N4         -4.8350    0.9850   -2.8570 n1        1 0TM     -0.042000
     18 C11        -4.5100   -1.1620   -0.4980 c1        1 0TM     -0.028000
     19 N3         -3.9800   -1.8810    0.5010 n2        1 0TM     -0.189000
     20 C10        -2.5760   -1.7430    0.4480 c1        1 0TM      0.066000
     21 N2         -1.5730   -2.2580    1.2390 n1        1 0TM     -0.200000
     22 C8         -0.2610   -1.9530    0.9750 c1        1 0TM     -0.120000
     23 S           0.8520   -2.7910    2.1030 ss        1 0TM      0.363000
     24 C15         0.7890   -2.0010    3.6810 c3        1 0TM     -0.342000
     25 C16         1.8700   -2.5430    4.5640 c1        1 0TM      0.316000
     26 O3          2.1800   -3.7660    4.5060 o         1 0TM     -0.352000
     27 N5          2.4990   -1.6830    5.5370 n2        1 0TM     -0.332000
     28 C18         2.4660   -2.0300    6.9190 c3        1 0TM     -0.082500
     29 C19         3.2640   -0.5400    5.1000 c3        1 0TM     -0.082500
     30 H1         -0.7460    4.1560   -3.3080 h1        1 0TM      0.086000
     31 H2          0.3640    5.3020   -3.2010 h1        1 0TM      0.086000
     32 H3         -0.3380    4.7890   -1.8670 h1        1 0TM      0.086000
     33 H4         -0.1740    1.9070   -0.9730 ha        1 0TM      0.160000
     34 H5          0.5610    1.7630   -6.7010 h1        1 0TM      0.088667
     35 H6          1.2670    3.2270   -6.7840 h1        1 0TM      0.088667
     36 H7         -0.0830    3.0300   -5.8940 h1        1 0TM      0.088667
     37 H8          0.7200   -0.1960   -5.1350 ha        1 0TM      0.157000
     38 H9         -5.4340   -1.0160   -0.6460 DU        1 0TM      0.228000
     39 H10        -4.4500   -2.3790    1.1150 DU        1 0TM      0.228000
     40 H11        -0.0690   -2.1670    4.0870 h1        1 0TM      0.144000
     41 H12         0.9200   -0.9960    3.5640 h1        1 0TM      0.144000
     42 H13         2.0150   -2.9130    7.0300 h1        1 0TM      0.086667
     43 H14         2.0080   -1.3980    7.3780 h1        1 0TM      0.086667
     44 H15         3.3890   -2.0850    7.2680 h1        1 0TM      0.086667
     45 H16         2.6320    0.1580    4.6730 h1        1 0TM      0.086667
     46 H17         3.7390   -0.1230    5.9020 h1        1 0TM      0.086667
     47 H18         3.9640   -0.8390    4.4040 h1        1 0TM      0.086667
@<TRIPOS>BOND
     1    1    2 1   
     2    1   30 1   
     3    1   31 1   
     4    1   32 1   
     5    2    3 1   
     6    3    4 1   
     7    3    5 1   
     8    4   33 1   
     9    5    8 1   
    10    6    7 1   
    11    7   34 1   
    12    7   35 1   
    13    7   36 1   
    14    8   37 1   
    15    9   10 1   
    16    9   11 1   
    17   11   12 1   
    18   12   13 1   
    19   12   14 1   
    20   13   22 1   
    21   15   18 1   
    22   16   17 1   
    23   18   19 1   
    24   19   20 1   
    25   20   21 1   
    26   22   23 1   
    27   23   24 1   
    28   24   25 1   
    29   24   40 1   
    30   24   41 1   
    31   25   26 1   
    32   27   28 1   
    33   27   29 1   
    34   28   42 1   
    35   28   43 1   
    36   28   44 1   
    37   29   45 1   
    38   29   46 1   
    39   29   47 1   
@<TRIPOS>SUBSTRUCTURE
     1 0TM         1 TEMP              0 ****  ****    0 ROOT
