@<TRIPOS>MOLECULE
0TM
   48    50     1     0     0
SMALL
bcc


@<TRIPOS>ATOM
      1 C14         0.5850   -1.0500    1.0370 c3        1 0TM      0.104700
      2 O1          1.7250   -1.4760    1.7820 os        1 0TM     -0.292900
      3 C5          1.8690   -0.9260    3.0330 ca        1 0TM      0.117100
      4 C4          0.8400   -0.3430    3.7660 ca        1 0TM     -0.157000
      5 C6          3.1770   -1.0200    3.5970 ca        1 0TM      0.147100
      6 O2          4.1180   -1.6190    2.8000 os        1 0TM     -0.287900
      7 C17         5.4680   -1.5650    3.2600 c3        1 0TM      0.103700
      8 C1          3.4120   -0.5370    4.8830 ca        1 0TM     -0.194000
      9 C2          2.3600    0.0350    5.6140 ca        1 0TM      0.038400
     10 CL          2.6980    0.6170    7.1780 cl        1 0TM     -0.088400
     11 C3          1.0820    0.1440    5.0620 cp        1 0TM     -0.189500
     12 C7         -0.0330    0.7450    5.8160 cp        1 0TM      0.580800
     13 N1         -0.4410    0.1380    6.9510 nb        1 0TM     -0.780000
     14 C9         -0.6800    1.9230    5.3700 ca        1 0TM     -0.245400
     15 C12        -0.5660    2.8530    4.2770 cc        1 0TM     -0.014900
     16 C13         0.3480    2.8150    3.2140 cg        1 0TM      0.208500
     17 N4          1.1010    2.7900    2.3270 n1        1 0TM     -0.328800
     18 C11        -1.5500    3.8390    4.4610 cd        1 0TM     -0.018100
     19 N3         -2.2850    3.5810    5.6110 na        1 0TM     -0.254100
     20 C10        -1.7790    2.4190    6.2050 ca        1 0TM      0.433800
     21 N2         -2.1790    1.8160    7.3660 nb        1 0TM     -0.616000
     22 C8         -1.4760    0.6990    7.6610 ca        1 0TM      0.685300
     23 S          -1.9600   -0.1700    9.0970 ss        1 0TM     -0.170400
     24 C15        -0.4330   -0.5070    9.8800 c3        1 0TM     -0.154300
     25 C16         0.3240   -1.7400    9.4940 c         1 0TM      0.560100
     26 O3          1.3720   -2.1190    9.9950 o         1 0TM     -0.415100
     27 N5         -0.2620   -2.6120    8.3990 n4        1 0TM     -0.584200
     28 C18         0.7710   -2.9330    7.3800 c3        1 0TM      0.085600
     29 C19        -0.8220   -3.8530    8.9920 c3        1 0TM      0.085600
     30 H1         -0.3460   -1.4840    1.4770 h1        1 0TM      0.054700
     31 H2          0.7750   -1.4750    0.0180 h1        1 0TM      0.054700
     32 H3          0.5250    0.0640    0.9990 h1        1 0TM      0.054700
     33 H4         -0.1660   -0.2470    3.3320 ha        1 0TM      0.156000
     34 H5          6.0400   -2.0280    2.4150 h1        1 0TM      0.057033
     35 H6          5.7890   -0.5080    3.4250 h1        1 0TM      0.057033
     36 H7          5.5860   -2.1670    4.1940 h1        1 0TM      0.057033
     37 H8          4.4200   -0.5840    5.3240 ha        1 0TM      0.168000
     38 H9         -1.7700    4.7130    3.8370 h4        1 0TM      0.206000
     39 H10        -3.0250    4.1330    5.9720 hn        1 0TM      0.337700
     40 H11         0.2900    0.3520    9.7810 h1        1 0TM      0.156700
     41 H12        -0.6720   -0.5980   10.9810 h1        1 0TM      0.156700
     42 H13         1.1630   -1.9790    6.9280 hx        1 0TM      0.107533
     43 H14         1.6150   -3.4890    7.8710 hx        1 0TM      0.107533
     44 H15         0.3080   -3.5680    6.5780 hx        1 0TM      0.107533
     45 H16        -1.2310   -4.5030    8.1740 hx        1 0TM      0.107533
     46 H17        -0.0090   -4.4040    9.5390 hx        1 0TM      0.107533
     47 H18        -1.6460   -3.5860    9.7060 hx        1 0TM      0.107533
     48 H51        -1.0340   -2.0810    7.9520 hn        1 0TM      0.479800
@<TRIPOS>BOND
     1    1    2 1   
     2    1   30 1   
     3    1   31 1   
     4    1   32 1   
     5    2    3 1   
     6    3    4 ar  
     7    3    5 ar  
     8    4   11 ar  
     9    4   33 1   
    10    5    6 1   
    11    5    8 ar  
    12    6    7 1   
    13    7   34 1   
    14    7   35 1   
    15    7   36 1   
    16    8    9 ar  
    17    8   37 1   
    18    9   10 1   
    19    9   11 ar  
    20   11   12 1   
    21   12   13 ar  
    22   12   14 ar  
    23   13   22 ar  
    24   14   15 1   
    25   14   20 ar  
    26   15   16 1   
    27   15   18 2   
    28   16   17 3   
    29   18   19 1   
    30   18   38 1   
    31   19   20 1   
    32   19   39 1   
    33   20   21 ar  
    34   21   22 ar  
    35   22   23 1   
    36   23   24 1   
    37   24   25 1   
    38   24   40 1   
    39   24   41 1   
    40   25   26 2   
    41   25   27 1   
    42   27   28 1   
    43   27   29 1   
    44   27   48 1   
    45   28   42 1   
    46   28   43 1   
    47   28   44 1   
    48   29   45 1   
    49   29   46 1   
    50   29   47 1   
@<TRIPOS>SUBSTRUCTURE
     1 0TM         1 TEMP              0 ****  ****    0 ROOT
