@<TRIPOS>MOLECULE
0TM
   48    50     1     0     0
SMALL
bcc


@<TRIPOS>ATOM
      1 C14         1.3120   -1.1440    1.1320 c3        1 0TM      0.104700
      2 O1          2.4410   -1.1520    2.0030 os        1 0TM     -0.292900
      3 C5          2.2660   -0.5450    3.2240 ca        1 0TM      0.117100
      4 C4          1.0320   -0.3050    3.8200 ca        1 0TM     -0.157000
      5 C6          3.4670   -0.1910    3.9100 ca        1 0TM      0.147100
      6 O2          4.6300   -0.4780    3.2430 os        1 0TM     -0.287900
      7 C17         5.8340    0.0270    3.8200 c3        1 0TM      0.103700
      8 C1          3.3950    0.3830    5.1780 ca        1 0TM     -0.194000
      9 C2          2.1430    0.6050    5.7710 ca        1 0TM      0.038400
     10 Cl          2.1070    1.3160    7.3170 cl        1 0TM     -0.088400
     11 C3          0.9650    0.2760    5.0980 cp        1 0TM     -0.189500
     12 C7         -0.3580    0.5060    5.7070 cp        1 0TM      0.580800
     13 N1         -0.6700   -0.1640    6.8360 nb        1 0TM     -0.780000
     14 C9         -1.2960    1.3950    5.1280 ca        1 0TM     -0.245400
     15 C12        -1.3680    2.2760    3.9910 cc        1 0TM     -0.014900
     16 C13        -0.3820    2.5030    3.0210 cg        1 0TM      0.208500
     17 N4          0.4310    2.6950    2.2100 n1        1 0TM     -0.328800
     18 C11        -2.6300    2.8940    4.0200 cd        1 0TM     -0.018100
     19 N3         -3.3620    2.4490    5.1120 na        1 0TM     -0.254100
     20 C10        -2.5790    1.5340    5.8250 ca        1 0TM      0.433800
     21 N2         -2.8870    0.8710    6.9810 nb        1 0TM     -0.616000
     22 C8         -1.9000    0.0520    7.4110 ca        1 0TM      0.685300
     23 S          -2.2320   -0.8790    8.8500 ss        1 0TM     -0.170400
     24 C15        -0.7710   -0.6770    9.7900 c3        1 0TM     -0.154300
     25 C16         0.3770   -1.6090    9.5540 c         1 0TM      0.560100
     26 O3          1.4320   -1.6100   10.1710 o         1 0TM     -0.415100
     27 N5          0.2220   -2.6590    8.4700 nx        1 0TM     -0.584200
     28 C18         0.0270   -3.9940    9.0910 c3        1 0TM      0.085600
     29 C19         1.4050   -2.6610    7.5720 c3        1 0TM      0.085600
     30 H1          1.7360   -1.5170    0.1640 h1        1 0TM      0.054700
     31 H2          0.5270   -1.8420    1.5120 h1        1 0TM      0.054700
     32 H3          0.9030   -0.1120    1.0150 h1        1 0TM      0.054700
     33 H4          0.1010   -0.5550    3.2900 ha        1 0TM      0.156000
     34 H5          6.6110   -0.2520    3.0620 h1        1 0TM      0.057033
     35 H6          6.0370   -0.4730    4.7980 h1        1 0TM      0.057033
     36 H7          5.7800    1.1360    3.9440 h1        1 0TM      0.057033
     37 H8          4.3110    0.6800    5.7110 ha        1 0TM      0.168000
     38 H9         -3.0490    3.6300    3.3220 h4        1 0TM      0.206000
     39 H10        -4.2740    2.7420    5.3680 hn        1 0TM      0.337700
     40 H11        -0.3550    0.3670    9.7020 h1        1 0TM      0.156700
     41 H12        -1.0850   -0.8070   10.8670 h1        1 0TM      0.156700
     42 H13        -0.0620   -4.7690    8.2830 hx        1 0TM      0.107533
     43 H14        -0.9100   -3.9860    9.7080 hx        1 0TM      0.107533
     44 H15         0.9100   -4.2340    9.7430 hx        1 0TM      0.107533
     45 H16         1.2580   -3.4370    6.7750 hx        1 0TM      0.107533
     46 H17         1.5180   -1.6470    7.0960 hx        1 0TM      0.107533
     47 H18         2.3250   -2.8970    8.1730 hx        1 0TM      0.107533
     48 H51        -0.6270   -2.4220    7.9210 hn        1 0TM      0.479800
@<TRIPOS>BOND
     1    1    2 1   
     2    1   30 1   
     3    1   31 1   
     4    1   32 1   
     5    2    3 1   
     6    3    4 ar  
     7    3    5 ar  
     8    4   11 ar  
     9    4   33 1   
    10    5    6 1   
    11    5    8 ar  
    12    6    7 1   
    13    7   34 1   
    14    7   35 1   
    15    7   36 1   
    16    8    9 ar  
    17    8   37 1   
    18    9   10 1   
    19    9   11 ar  
    20   11   12 1   
    21   12   13 ar  
    22   12   14 ar  
    23   13   22 ar  
    24   14   15 1   
    25   14   20 ar  
    26   15   16 1   
    27   15   18 2   
    28   16   17 3   
    29   18   19 1   
    30   18   38 1   
    31   19   20 1   
    32   19   39 1   
    33   20   21 ar  
    34   21   22 ar  
    35   22   23 1   
    36   23   24 1   
    37   24   25 1   
    38   24   40 1   
    39   24   41 1   
    40   25   26 2   
    41   25   27 1   
    42   27   28 1   
    43   27   29 1   
    44   27   48 1   
    45   28   42 1   
    46   28   43 1   
    47   28   44 1   
    48   29   45 1   
    49   29   46 1   
    50   29   47 1   
@<TRIPOS>SUBSTRUCTURE
     1 0TM         1 TEMP              0 ****  ****    0 ROOT
