@<TRIPOS>MOLECULE
0TM
   48    50     1     0     0
SMALL
bcc


@<TRIPOS>ATOM
      1 C14         1.5060   -1.1880    1.1680 c3        1 0TM      0.104700
      2 O1          2.5980   -1.1870    2.0870 os        1 0TM     -0.292900
      3 C5          2.3710   -0.5680    3.2930 ca        1 0TM      0.117100
      4 C4          1.1130   -0.3230    3.8340 ca        1 0TM     -0.157000
      5 C6          3.5410   -0.2060    4.0260 ca        1 0TM      0.147100
      6 O2          4.7310   -0.4980    3.4120 os        1 0TM     -0.287900
      7 C17         5.9100    0.0130    4.0340 c3        1 0TM      0.103700
      8 C1          3.4150    0.3800    5.2840 ca        1 0TM     -0.194000
      9 C2          2.1400    0.6070    5.8210 ca        1 0TM      0.038400
     10 CL          2.0370    1.3320    7.3580 cl        1 0TM     -0.088400
     11 C3          0.9910    0.2700    5.1030 cp        1 0TM     -0.189500
     12 C7         -0.3570    0.5050    5.6520 cp        1 0TM      0.580800
     13 N1         -0.7160   -0.1540    6.7740 nb        1 0TM     -0.780000
     14 C9         -1.2690    1.3870    5.0250 ca        1 0TM     -0.245400
     15 C12        -1.2940    2.2570    3.8780 cc        1 0TM     -0.014900
     16 C13        -0.2680    2.4750    2.9480 cg        1 0TM      0.208500
     17 N4          0.5780    2.6600    2.1700 n1        1 0TM     -0.328800
     18 C11        -2.5560    2.8750    3.8470 cd        1 0TM     -0.018100
     19 N3         -3.3340    2.4390    4.9120 na        1 0TM     -0.254100
     20 C10        -2.5810    1.5320    5.6660 ca        1 0TM      0.433800
     21 N2         -2.9370    0.8800    6.8140 nb        1 0TM     -0.616000
     22 C8         -1.9690    0.0670    7.2940 ca        1 0TM      0.685300
     23 S          -2.3620   -0.8510    8.7270 ss        1 0TM     -0.170400
     24 C15        -0.9420   -0.6390    9.7260 c3        1 0TM     -0.154300
     25 C16         0.2150   -1.5730    9.5490 c         1 0TM      0.560100
     26 O3          1.2430   -1.5680   10.2110 o         1 0TM     -0.415100
     27 N5          0.1060   -2.6330    8.4680 n4        1 0TM     -0.584200
     28 C18        -0.1140   -3.9630    9.0920 c3        1 0TM      0.085600
     29 C19         1.3280   -2.6420    7.6220 c3        1 0TM      0.085600
     30 H1          1.9710   -1.5700    0.2230 h1        1 0TM      0.054700
     31 H2          0.7060   -1.8830    1.5220 h1        1 0TM      0.054700
     32 H3          1.1020   -0.1570    1.0240 h1        1 0TM      0.054700
     33 H4          0.2050   -0.5800    3.2680 ha        1 0TM      0.156000
     34 H5          6.7180   -0.2720    3.3130 h1        1 0TM      0.057033
     35 H6          6.0710   -0.4770    5.0240 h1        1 0TM      0.057033
     36 H7          5.8500    1.1230    4.1450 h1        1 0TM      0.057033
     37 H8          4.3080    0.6830    5.8530 ha        1 0TM      0.168000
     38 H9         -2.9460    3.6030    3.1260 h4        1 0TM      0.206000
     39 H10        -4.2560    2.7340    5.1260 hn        1 0TM      0.337700
     40 H11        -0.5220    0.4040    9.6450 h1        1 0TM      0.156700
     41 H12        -1.3010   -0.7570   10.7900 h1        1 0TM      0.156700
     42 H13        -0.1680   -4.7440    8.2880 hx        1 0TM      0.107533
     43 H14        -1.0770   -3.9500    9.6680 hx        1 0TM      0.107533
     44 H15         0.7400   -4.1950    9.7840 hx        1 0TM      0.107533
     45 H16         1.2150   -3.4250    6.8260 hx        1 0TM      0.107533
     46 H17         1.4600   -1.6320    7.1420 hx        1 0TM      0.107533
     47 H18         2.2210   -2.8710    8.2640 hx        1 0TM      0.107533
     48 H51        -0.7180   -2.4020    7.8810 hn        1 0TM      0.479800
@<TRIPOS>BOND
     1    1    2 1   
     2    1   30 1   
     3    1   31 1   
     4    1   32 1   
     5    2    3 1   
     6    3    4 ar  
     7    3    5 ar  
     8    4   11 ar  
     9    4   33 1   
    10    5    6 1   
    11    5    8 ar  
    12    6    7 1   
    13    7   34 1   
    14    7   35 1   
    15    7   36 1   
    16    8    9 ar  
    17    8   37 1   
    18    9   10 1   
    19    9   11 ar  
    20   11   12 1   
    21   12   13 ar  
    22   12   14 ar  
    23   13   22 ar  
    24   14   15 1   
    25   14   20 ar  
    26   15   16 1   
    27   15   18 2   
    28   16   17 3   
    29   18   19 1   
    30   18   38 1   
    31   19   20 1   
    32   19   39 1   
    33   20   21 ar  
    34   21   22 ar  
    35   22   23 1   
    36   23   24 1   
    37   24   25 1   
    38   24   40 1   
    39   24   41 1   
    40   25   26 2   
    41   25   27 1   
    42   27   28 1   
    43   27   29 1   
    44   27   48 1   
    45   28   42 1   
    46   28   43 1   
    47   28   44 1   
    48   29   45 1   
    49   29   46 1   
    50   29   47 1   
@<TRIPOS>SUBSTRUCTURE
     1 0TM         1 TEMP              0 ****  ****    0 ROOT
