@<TRIPOS>MOLECULE
0TM
   47    49     1     0     0
SMALL
bcc


@<TRIPOS>ATOM
      1 C14        -4.0560   -0.4090   -3.5460 c3        1 0TM      0.107700
      2 O1         -4.6750    0.2980   -2.4770 os        1 0TM     -0.299900
      3 C5         -3.9140    0.4530   -1.3370 ca        1 0TM      0.105100
      4 C4         -2.6340   -0.0620   -1.1560 ca        1 0TM     -0.145000
      5 C6         -4.5280    1.2040   -0.2940 ca        1 0TM      0.128100
      6 O2         -5.7930    1.6720   -0.5710 os        1 0TM     -0.298900
      7 C17        -6.4500    2.3620    0.4880 c3        1 0TM      0.107700
      8 C1         -3.8410    1.4250    0.8980 ca        1 0TM     -0.180000
      9 C2         -2.5510    0.9020    1.0650 ca        1 0TM      0.049400
     10 CL         -1.7380    1.2110    2.5250 cl        1 0TM     -0.081400
     11 C3         -1.9520    0.1510    0.0520 cp        1 0TM     -0.152500
     12 C7         -0.5940   -0.4120    0.2050 cp        1 0TM      0.570800
     13 N1          0.4440    0.2750   -0.3000 nb        1 0TM     -0.680000
     14 C9         -0.3980   -1.6540    0.8590 ca        1 0TM     -0.288400
     15 C12        -1.2020   -2.6660    1.5000 cc        1 0TM     -0.005900
     16 C13        -2.5950   -2.6810    1.6600 cg        1 0TM      0.225500
     17 N4         -3.7510   -2.7050    1.7990 n1        1 0TM     -0.362800
     18 C11        -0.3310   -3.6670    1.9520 cd        1 0TM     -0.061100
     19 N3          0.9840   -3.3450    1.6280 na        1 0TM     -0.278100
     20 C10         0.9830   -2.1140    0.9550 ca        1 0TM      0.458800
     21 N2          2.0490   -1.4250    0.4530 nb        1 0TM     -0.738000
     22 C8          1.7150   -0.2560   -0.1560 ca        1 0TM      0.720300
     23 S           2.9420    0.7310   -0.8580 ss        1 0TM     -0.087400
     24 C15         4.4330   -0.1460   -0.4890 c3        1 0TM     -0.142300
     25 C16         5.6150    0.6300   -1.0290 c         1 0TM      0.676100
     26 O3          5.4750    1.6070   -1.7900 o         1 0TM     -0.589100
     27 N5          6.8830    0.1910   -0.6720 n         1 0TM     -0.477800
     28 C18         8.0510    0.9150   -1.0920 c3        1 0TM      0.079800
     29 C19         7.0660   -0.8850    0.2560 c3        1 0TM      0.079800
     30 H1         -4.8360   -0.3890   -4.3500 h1        1 0TM      0.046700
     31 H2         -3.1280    0.1120   -3.8830 h1        1 0TM      0.046700
     32 H3         -3.8290   -1.4610   -3.2440 h1        1 0TM      0.046700
     33 H4         -2.1410   -0.6360   -1.9540 ha        1 0TM      0.152000
     34 H5         -6.5580    1.7040    1.3830 h1        1 0TM      0.047700
     35 H6         -5.8980    3.2970    0.7500 h1        1 0TM      0.047700
     36 H7         -7.4520    2.6050    0.0510 h1        1 0TM      0.047700
     37 H8         -4.3000    2.0070    1.7110 ha        1 0TM      0.157000
     38 H9         -0.5650   -4.5930    2.4850 h4        1 0TM      0.184000
     39 H10         1.7850   -3.8810    1.8370 hn        1 0TM      0.316700
     40 H11         4.5380   -0.2880    0.6170 h1        1 0TM      0.098700
     41 H12         4.4220   -1.1630   -0.9590 h1        1 0TM      0.098700
     42 H13         8.5710    1.3610   -0.2020 h1        1 0TM      0.044367
     43 H14         8.7610    0.2150   -1.6100 h1        1 0TM      0.044367
     44 H15         7.7660    1.7380   -1.8000 h1        1 0TM      0.044367
     45 H16         6.4460   -1.7720   -0.0430 h1        1 0TM      0.044367
     46 H17         8.1460   -1.1930    0.2700 h1        1 0TM      0.044367
     47 H18         6.7700   -0.5760    1.2960 h1        1 0TM      0.044367
@<TRIPOS>BOND
     1    1    2 1   
     2    1   30 1   
     3    1   31 1   
     4    1   32 1   
     5    2    3 1   
     6    3    4 ar  
     7    3    5 ar  
     8    4   11 ar  
     9    4   33 1   
    10    5    6 1   
    11    5    8 ar  
    12    6    7 1   
    13    7   34 1   
    14    7   35 1   
    15    7   36 1   
    16    8    9 ar  
    17    8   37 1   
    18    9   10 1   
    19    9   11 ar  
    20   11   12 1   
    21   12   13 ar  
    22   12   14 ar  
    23   13   22 ar  
    24   14   15 1   
    25   14   20 ar  
    26   15   16 1   
    27   15   18 2   
    28   16   17 3   
    29   18   19 1   
    30   18   38 1   
    31   19   20 1   
    32   19   39 1   
    33   20   21 ar  
    34   21   22 ar  
    35   22   23 1   
    36   23   24 1   
    37   24   25 1   
    38   24   40 1   
    39   24   41 1   
    40   25   26 2   
    41   25   27 1   
    42   27   28 1   
    43   27   29 1   
    44   28   42 1   
    45   28   43 1   
    46   28   44 1   
    47   29   45 1   
    48   29   46 1   
    49   29   47 1   
@<TRIPOS>SUBSTRUCTURE
     1 0TM         1 TEMP              0 ****  ****    0 ROOT
