@<TRIPOS>MOLECULE
0TO
   36    30     1     0     0
SMALL
bcc


@<TRIPOS>ATOM
      1 C21        -3.0400   -1.1720   -4.7390 c1        1 0TO     -0.120500
      2 C20        -2.2250   -1.9640   -3.9470 c1        1 0TO     -0.047000
      3 CL         -1.7590   -3.5520   -4.4910 cl        1 0TO     -0.013000
      4 C18        -1.7560   -1.4820   -2.7340 c1        1 0TO     -0.108000
      5 C19        -3.3870    0.1020   -4.3200 c1        1 0TO     -0.120500
      6 C17        -2.9190    0.5850   -3.1080 c1        1 0TO     -0.170000
      7 C7         -2.1030   -0.2070   -2.3150 c1        1 0TO      0.063000
      8 N6         -1.7180    0.2430   -1.0210 n3        1 0TO     -0.247000
      9 C4         -0.4250    0.7940   -0.8170 c2        1 0TO      0.181000
     10 N5         -0.0970    1.6110   -1.8340 n1        1 0TO     -0.242000
     11 C8          0.9590    2.4740   -1.7080 c1        1 0TO      0.012000
     12 N9          1.6830    2.5060   -0.5490 n1        1 0TO     -0.193000
     13 C2          0.3070    0.8250    0.3600 c2        1 0TO     -0.174000
     14 C1          1.3540    1.6810    0.4840 c1        1 0TO      0.069000
     15 C3         -0.0110   -0.0580    1.4160 c1        1 0TO     -0.088000
     16 C10         0.7450   -0.0520    2.5760 c1        1 0TO      0.060000
     17 O11         0.1850   -0.7500    3.6600 os        1 0TO     -0.208000
     18 C14         0.4880   -2.1280    3.6700 c3        1 0TO     -0.078000
     19 C12         1.8120    0.8210    2.7020 c1        1 0TO      0.060000
     20 C15         2.1250    1.6870    1.6680 c1        1 0TO     -0.198000
     21 O13         2.5490    0.9300    3.8950 os        1 0TO     -0.208000
     22 C16         3.8350    0.3500    3.8280 c3        1 0TO     -0.078000
     23 H1         -3.3700   -1.5110   -5.5920 ha        1 0TO      0.144000
     24 H2         -1.1830   -2.0390   -2.1770 ha        1 0TO      0.168000
     25 H3         -3.9610    0.6600   -4.8780 ha        1 0TO      0.144000
     26 H4         -3.1630    1.4810   -2.8130 ha        1 0TO      0.134000
     27 H5         -2.2920    0.1550   -0.3180 hn        1 0TO      0.229000
     28 H6          1.1960    3.0660   -2.4460 ha        1 0TO      0.192000
     29 H7         -0.7750   -0.6580    1.3360 ha        1 0TO      0.148000
     30 H8         -0.0140   -2.5780    2.9560 h1        1 0TO      0.088000
     31 H9          0.2380   -2.5130    4.5380 h1        1 0TO      0.088000
     32 H10         1.4500   -2.2530    3.5210 h1        1 0TO      0.088000
     33 H11         2.8760    2.3010    1.7570 ha        1 0TO      0.163000
     34 H12         4.1830    0.2180    4.7370 h1        1 0TO      0.088000
     35 H13         3.7790   -0.5170    3.3700 h1        1 0TO      0.088000
     36 H14         4.4370    0.9450    3.3310 h1        1 0TO      0.088000
@<TRIPOS>BOND
     1    1    5 1   
     2    1   23 1   
     3    2    4 1   
     4    4   24 1   
     5    5   25 1   
     6    6    7 1   
     7    6   26 1   
     8    7    8 1   
     9    8    9 1   
    10    8   27 1   
    11    9   10 1   
    12    9   13 1   
    13   11   12 1   
    14   11   28 1   
    15   13   14 1   
    16   13   15 1   
    17   14   20 1   
    18   15   29 1   
    19   16   17 1   
    20   16   19 1   
    21   17   18 1   
    22   18   30 1   
    23   18   31 1   
    24   18   32 1   
    25   19   21 1   
    26   20   33 1   
    27   21   22 1   
    28   22   34 1   
    29   22   35 1   
    30   22   36 1   
@<TRIPOS>SUBSTRUCTURE
     1 0TO         1 TEMP              0 ****  ****    0 ROOT
