@<TRIPOS>MOLECULE
0TO
   36    38     1     0     0
SMALL
bcc


@<TRIPOS>ATOM
      1 C21        -0.2470   -0.0110   -0.0230 ca        1 0TO     -0.138000
      2 C20         1.1240   -0.2540   -0.1440 ca        1 0TO      0.032400
      3 Cl          1.7860   -0.5710   -1.6790 cl        1 0TO     -0.091400
      4 C18         1.9650   -0.2470    0.9700 ca        1 0TO     -0.108000
      5 C19        -0.7790    0.2430    1.2390 ca        1 0TO     -0.104000
      6 C17         0.0370    0.2640    2.3650 ca        1 0TO     -0.172000
      7 C7          1.4230    0.0170    2.2450 ca        1 0TO      0.143600
      8 N6          2.2250   -0.0520    3.4080 nu        1 0TO     -0.722300
      9 C4          3.4150    0.6800    3.5570 ca        1 0TO      0.687200
     10 N5          3.8960    1.4310    2.5410 nb        1 0TO     -0.760000
     11 C8          5.0840    2.0820    2.7660 ca        1 0TO      0.664900
     12 N9          5.8270    2.0870    3.8720 nb        1 0TO     -0.711000
     13 C2          4.1410    0.5750    4.8220 ca        1 0TO     -0.279600
     14 C1          5.3540    1.3240    4.9240 ca        1 0TO      0.446600
     15 C3          3.7170   -0.2230    5.9120 ca        1 0TO     -0.166000
     16 C10         4.4500   -0.2620    7.0780 ca        1 0TO      0.108100
     17 O11         4.1320   -0.9960    8.2000 os        1 0TO     -0.299900
     18 C14         2.9910   -1.8410    8.0950 c3        1 0TO      0.107700
     19 C12         5.6590    0.5110    7.1970 ca        1 0TO      0.145100
     20 C15         6.0980    1.2790    6.1440 ca        1 0TO     -0.254300
     21 O13         6.2910    0.3960    8.4140 os        1 0TO     -0.299900
     22 C16         7.4990    1.1380    8.5640 c3        1 0TO      0.106700
     23 H1         -0.8970   -0.0200   -0.9100 ha        1 0TO      0.149000
     24 H2          3.0420   -0.4440    0.8460 ha        1 0TO      0.167000
     25 H3         -1.8570    0.4350    1.3460 ha        1 0TO      0.138000
     26 H4         -0.4110    0.4740    3.3490 ha        1 0TO      0.132000
     27 H5          1.7010   -0.1400    4.2550 hn        1 0TO      0.425800
     28 H6          5.4500    2.6840    1.9070 h5        1 0TO      0.055100
     29 H7          2.8100   -0.8390    5.8310 ha        1 0TO      0.140000
     30 H8          2.9590   -2.3520    9.0910 h1        1 0TO      0.046700
     31 H9          2.0660   -1.2350    7.9340 h1        1 0TO      0.046700
     32 H10         3.1220   -2.5850    7.2730 h1        1 0TO      0.046700
     33 H11         7.0260    1.8680    6.2150 ha        1 0TO      0.164000
     34 H12         8.2630    0.8020    7.8220 h1        1 0TO      0.050367
     35 H13         7.3040    2.2330    8.4600 h1        1 0TO      0.050367
     36 H14         7.8220    0.8900    9.6070 h1        1 0TO      0.050367
@<TRIPOS>BOND
     1    1    2 ar  
     2    1    5 ar  
     3    1   23 1   
     4    2    3 1   
     5    2    4 ar  
     6    4    7 ar  
     7    4   24 1   
     8    5    6 ar  
     9    5   25 1   
    10    6    7 ar  
    11    6   26 1   
    12    7    8 1   
    13    8    9 1   
    14    8   27 1   
    15    9   10 ar  
    16    9   13 ar  
    17   10   11 ar  
    18   11   12 ar  
    19   11   28 1   
    20   12   14 ar  
    21   13   14 ar  
    22   13   15 ar  
    23   14   20 ar  
    24   15   16 ar  
    25   15   29 1   
    26   16   17 1   
    27   16   19 ar  
    28   17   18 1   
    29   18   30 1   
    30   18   31 1   
    31   18   32 1   
    32   19   20 ar  
    33   19   21 1   
    34   20   33 1   
    35   21   22 1   
    36   22   34 1   
    37   22   35 1   
    38   22   36 1   
@<TRIPOS>SUBSTRUCTURE
     1 0TO         1 TEMP              0 ****  ****    0 ROOT
