@<TRIPOS>MOLECULE
0TO
   37    39     1     0     0
SMALL
bcc


@<TRIPOS>ATOM
      1 C21        -0.4350    0.7510    1.4480 ca        1 0TO     -0.071000
      2 C20         0.6500    0.6390    0.5690 ca        1 0TO      0.028400
      3 CL          0.5490    1.2820   -0.9890 cl        1 0TO     -0.015400
      4 C18         1.8270   -0.0040    0.9680 ca        1 0TO     -0.091000
      5 C19        -0.3430    0.2180    2.7330 ca        1 0TO     -0.096000
      6 C17         0.8160   -0.4260    3.1570 ca        1 0TO     -0.109000
      7 C7          1.8970   -0.5390    2.2650 ca        1 0TO     -0.038400
      8 N6          3.1180   -1.2380    2.6880 n4        1 0TO     -0.619100
      9 C4          4.2210   -0.2980    3.0260 ca        1 0TO      0.511200
     10 N5          4.9370    0.1690    1.9880 nb        1 0TO     -0.687000
     11 C8          5.9630    1.0260    2.3040 ca        1 0TO      0.655900
     12 N9          6.3180    1.4340    3.5280 nb        1 0TO     -0.624000
     13 C2          4.4740    0.0540    4.3910 ca        1 0TO     -0.214600
     14 C1          5.5870    0.9550    4.5860 ca        1 0TO      0.456600
     15 C3          3.7390   -0.4080    5.5110 ca        1 0TO     -0.247000
     16 C10         4.0870   -0.0130    6.7840 ca        1 0TO      0.187100
     17 O11         3.4600   -0.3880    7.9380 os        1 0TO     -0.272900
     18 C14         2.3620   -1.2920    7.8190 c3        1 0TO      0.102700
     19 C12         5.2080    0.8860    6.9910 ca        1 0TO      0.170100
     20 C15         5.9280    1.3530    5.9190 ca        1 0TO     -0.253300
     21 O13         5.4400    1.1910    8.3010 os        1 0TO     -0.281900
     22 C16         6.5330    2.0750    8.5710 c3        1 0TO      0.100700
     23 H1         -1.3600    1.2610    1.1250 ha        1 0TO      0.182000
     24 H2          2.6790   -0.0750    0.2690 ha        1 0TO      0.184000
     25 H3         -1.1980    0.3090    3.4250 ha        1 0TO      0.173000
     26 H4          0.8670   -0.8340    4.1790 ha        1 0TO      0.149000
     27 H5          2.9200   -1.8150    3.5140 hn        1 0TO      0.468800
     28 H6          6.5490    1.4090    1.4380 h5        1 0TO      0.092100
     29 H7          2.8730   -1.0720    5.3810 ha        1 0TO      0.128000
     30 H8          1.5380   -0.8320    7.2210 h1        1 0TO      0.059033
     31 H9          2.6950   -2.2570    7.3690 h1        1 0TO      0.059033
     32 H10         2.0450   -1.4380    8.8850 h1        1 0TO      0.059033
     33 H11         6.7800    2.0400    6.0590 ha        1 0TO      0.188000
     34 H12         6.3580    3.0680    8.0910 h1        1 0TO      0.065700
     35 H13         6.5110    2.1600    9.6880 h1        1 0TO      0.065700
     36 H14         7.4940    1.6240    8.2240 h1        1 0TO      0.065700
     37 H62         3.4210   -1.8530    1.9150 hn        1 0TO      0.468800
@<TRIPOS>BOND
     1    1    2 ar  
     2    1    5 ar  
     3    1   23 1   
     4    2    3 1   
     5    2    4 ar  
     6    4    7 ar  
     7    4   24 1   
     8    5    6 ar  
     9    5   25 1   
    10    6    7 ar  
    11    6   26 1   
    12    7    8 1   
    13    8    9 1   
    14    8   27 1   
    15    8   37 1   
    16    9   10 ar  
    17    9   13 ar  
    18   10   11 ar  
    19   11   12 ar  
    20   11   28 1   
    21   12   14 ar  
    22   13   14 ar  
    23   13   15 ar  
    24   14   20 ar  
    25   15   16 ar  
    26   15   29 1   
    27   16   17 1   
    28   16   19 ar  
    29   17   18 1   
    30   18   30 1   
    31   18   31 1   
    32   18   32 1   
    33   19   20 ar  
    34   19   21 1   
    35   20   33 1   
    36   21   22 1   
    37   22   34 1   
    38   22   35 1   
    39   22   36 1   
@<TRIPOS>SUBSTRUCTURE
     1 0TO         1 TEMP              0 ****  ****    0 ROOT
