@<TRIPOS>MOLECULE
0TO
   36    38     1     0     0
SMALL
bcc


@<TRIPOS>ATOM
      1 C21        -0.2460   -0.0100   -0.0240 ca        1 0TO     -0.138000
      2 C20         1.1250   -0.2540   -0.1440 ca        1 0TO      0.032400
      3 CL          1.7860   -0.5730   -1.6790 cl        1 0TO     -0.091400
      4 C18         1.9650   -0.2470    0.9710 ca        1 0TO     -0.108000
      5 C19        -0.7780    0.2460    1.2380 ca        1 0TO     -0.104000
      6 C17         0.0370    0.2670    2.3650 ca        1 0TO     -0.172000
      7 C7          1.4230    0.0190    2.2450 ca        1 0TO      0.143600
      8 N6          2.2250   -0.0500    3.4080 nh        1 0TO     -0.722300
      9 C4          3.4150    0.6800    3.5570 ca        1 0TO      0.687200
     10 N5          3.8970    1.4310    2.5410 nb        1 0TO     -0.760000
     11 C8          5.0870    2.0800    2.7650 ca        1 0TO      0.664900
     12 N9          5.8290    2.0840    3.8720 nb        1 0TO     -0.711000
     13 C2          4.1410    0.5750    4.8220 ca        1 0TO     -0.279600
     14 C1          5.3550    1.3220    4.9240 ca        1 0TO      0.446600
     15 C3          3.7160   -0.2220    5.9130 ca        1 0TO     -0.166000
     16 C10         4.4490   -0.2620    7.0780 ca        1 0TO      0.108100
     17 O11         4.1300   -0.9950    8.2010 os        1 0TO     -0.299900
     18 C14         2.9870   -1.8370    8.0970 c3        1 0TO      0.107700
     19 C12         5.6590    0.5090    7.1970 ca        1 0TO      0.145100
     20 C15         6.1000    1.2760    6.1440 ca        1 0TO     -0.254300
     21 O13         6.2920    0.3930    8.4140 os        1 0TO     -0.299900
     22 C16         7.5010    1.1340    8.5630 c3        1 0TO      0.106700
     23 H1         -0.8960   -0.0190   -0.9110 ha        1 0TO      0.149000
     24 H2          3.0410   -0.4450    0.8470 ha        1 0TO      0.167000
     25 H3         -1.8570    0.4390    1.3450 ha        1 0TO      0.138000
     26 H4         -0.4110    0.4780    3.3480 ha        1 0TO      0.132000
     27 H5          1.7000   -0.1380    4.2550 hn        1 0TO      0.425800
     28 H6          5.4530    2.6810    1.9060 h5        1 0TO      0.055100
     29 H7          2.8080   -0.8360    5.8320 ha        1 0TO      0.140000
     30 H8          2.0630   -1.2300    7.9360 h1        1 0TO      0.046700
     31 H9          2.9550   -2.3480    9.0930 h1        1 0TO      0.046700
     32 H10         3.1160   -2.5820    7.2750 h1        1 0TO      0.046700
     33 H11         7.0280    1.8640    6.2140 ha        1 0TO      0.164000
     34 H12         8.2640    0.7960    7.8210 h1        1 0TO      0.050367
     35 H13         7.3070    2.2290    8.4590 h1        1 0TO      0.050367
     36 H14         7.8240    0.8860    9.6070 h1        1 0TO      0.050367
@<TRIPOS>BOND
     1    1    2 ar  
     2    1    5 ar  
     3    1   23 1   
     4    2    3 1   
     5    2    4 ar  
     6    4    7 ar  
     7    4   24 1   
     8    5    6 ar  
     9    5   25 1   
    10    6    7 ar  
    11    6   26 1   
    12    7    8 1   
    13    8    9 1   
    14    8   27 1   
    15    9   10 ar  
    16    9   13 ar  
    17   10   11 ar  
    18   11   12 ar  
    19   11   28 1   
    20   12   14 ar  
    21   13   14 ar  
    22   13   15 ar  
    23   14   20 ar  
    24   15   16 ar  
    25   15   29 1   
    26   16   17 1   
    27   16   19 ar  
    28   17   18 1   
    29   18   30 1   
    30   18   31 1   
    31   18   32 1   
    32   19   20 ar  
    33   19   21 1   
    34   20   33 1   
    35   21   22 1   
    36   22   34 1   
    37   22   35 1   
    38   22   36 1   
@<TRIPOS>SUBSTRUCTURE
     1 0TO         1 TEMP              0 ****  ****    0 ROOT
