@<TRIPOS>MOLECULE
0TO
   36    38     1     0     0
SMALL
bcc


@<TRIPOS>ATOM
      1 C21         5.2070    1.2060    0.3740 ca        1 0TO     -0.138000
      2 C20         4.6340    0.2120   -0.4230 ca        1 0TO      0.032400
      3 CL          5.6410   -0.8440   -1.2980 cl        1 0TO     -0.091400
      4 C18         3.2490    0.0690   -0.5230 ca        1 0TO     -0.108000
      5 C19         4.3730    2.0680    1.0820 ca        1 0TO     -0.104000
      6 C17         2.9900    1.9430    1.0080 ca        1 0TO     -0.172000
      7 C7          2.4090    0.9390    0.2010 ca        1 0TO      0.143600
      8 N6          1.0020    0.8820    0.0600 nh        1 0TO     -0.722300
      9 C4          0.2650   -0.2970    0.2600 ca        1 0TO      0.687200
     10 N5          0.8890   -1.4670    0.5180 nb        1 0TO     -0.760000
     11 C8          0.0880   -2.5740    0.6620 ca        1 0TO      0.664900
     12 N9         -1.2410   -2.6450    0.6000 nb        1 0TO     -0.711000
     13 C2         -1.1920   -0.2330    0.1390 ca        1 0TO     -0.279600
     14 C1         -1.9000   -1.4580    0.3350 ca        1 0TO      0.446600
     15 C3         -1.9080    0.9490   -0.1680 ca        1 0TO     -0.166000
     16 C10        -3.2830    0.9320   -0.2530 ca        1 0TO      0.108100
     17 O11        -4.0810    2.0180   -0.5390 os        1 0TO     -0.299900
     18 C14        -3.4040    3.2310   -0.8500 c3        1 0TO      0.107700
     19 C12        -4.0050   -0.2930   -0.0310 ca        1 0TO      0.145100
     20 C15        -3.3280   -1.4570    0.2520 ca        1 0TO     -0.254300
     21 O13        -5.3720   -0.1760   -0.1320 os        1 0TO     -0.299900
     22 C16        -6.1200   -1.3720    0.0710 c3        1 0TO      0.106700
     23 H1          6.3000    1.3080    0.4430 ha        1 0TO      0.149000
     24 H2          2.8250   -0.7220   -1.1610 ha        1 0TO      0.167000
     25 H3          4.8140    2.8550    1.7140 ha        1 0TO      0.138000
     26 H4          2.3570    2.6350    1.5840 ha        1 0TO      0.132000
     27 H5          0.5320    1.7060    0.3730 hn        1 0TO      0.425800
     28 H6          0.6380   -3.5180    0.8670 h5        1 0TO      0.055100
     29 H7         -1.3720    1.8890   -0.3650 ha        1 0TO      0.140000
     30 H8         -4.2390    3.9390   -1.0810 h1        1 0TO      0.046700
     31 H9         -2.8160    3.5900    0.0290 h1        1 0TO      0.046700
     32 H10        -2.7400    3.0990   -1.7390 h1        1 0TO      0.046700
     33 H11        -3.8640   -2.4050    0.4140 ha        1 0TO      0.164000
     34 H12        -7.1800   -1.0350   -0.0600 h1        1 0TO      0.050367
     35 H13        -5.8510   -2.1390   -0.6950 h1        1 0TO      0.050367
     36 H14        -5.9550   -1.7700    1.1010 h1        1 0TO      0.050367
@<TRIPOS>BOND
     1    1    2 ar  
     2    1    5 ar  
     3    1   23 1   
     4    2    3 1   
     5    2    4 ar  
     6    4    7 ar  
     7    4   24 1   
     8    5    6 ar  
     9    5   25 1   
    10    6    7 ar  
    11    6   26 1   
    12    7    8 1   
    13    8    9 1   
    14    8   27 1   
    15    9   10 ar  
    16    9   13 ar  
    17   10   11 ar  
    18   11   12 ar  
    19   11   28 1   
    20   12   14 ar  
    21   13   14 ar  
    22   13   15 ar  
    23   14   20 ar  
    24   15   16 ar  
    25   15   29 1   
    26   16   17 1   
    27   16   19 ar  
    28   17   18 1   
    29   18   30 1   
    30   18   31 1   
    31   18   32 1   
    32   19   20 ar  
    33   19   21 1   
    34   20   33 1   
    35   21   22 1   
    36   22   34 1   
    37   22   35 1   
    38   22   36 1   
@<TRIPOS>SUBSTRUCTURE
     1 0TO         1 TEMP              0 ****  ****    0 ROOT
