@<TRIPOS>MOLECULE
0TP
   47    58     1     0     0
SMALL
bcc


@<TRIPOS>ATOM
      1 C1          0.0000    0.0000    0.0000 c3        1 0TP     -0.076000
      2 N1         -4.7120   -8.7210    7.2430 n7        1 0TP     -0.064000
      3 O1          1.4300    0.0000    0.0000 os        1 0TP     -0.162000
      4 S1         -0.8770   -6.8170    5.8700 ss        1 0TP      0.390000
      5 C2         -0.0090   -4.2860    4.1550 c2        1 0TP      0.184000
      6 O2         -0.0480   -9.1420    7.4060 oh        1 0TP     -0.223000
      7 C3          2.0060    0.0000    1.3100 c3        1 0TP     -0.236000
      8 N3         -1.2420  -10.6850    8.4670 ny        1 0TP      0.933000
      9 C4          1.5210   -1.2330    2.0750 DU        1 0TP     -0.340000
     10 N4          0.0510   -1.2350    2.1130 n3        1 0TP      0.006000
     11 C5         -1.7990   -2.4990    3.0050 c3        1 0TP     -0.212000
     12 C6         -0.5050   -1.2340    0.7530 c3        1 0TP     -0.417000
     13 C7         -3.1850   -5.8750    5.2990 c2        1 0TP     -0.166000
     14 C8         -3.4470   -7.0560    6.0960 c2        1 0TP     -0.266000
     15 C9         -2.2670   -7.6920    6.4920 c2        1 0TP     -0.108000
     16 C10        -4.6800   -7.6240    6.5090 c3        1 0TP     -0.021000
     17 C11        -2.3600   -8.8670    7.2790 c2        1 0TP     -0.357000
     18 C12        -1.1430   -9.5690    7.7190 c2        1 0TP      0.785000
     19 C13        -3.6170   -9.3460    7.6310 c2        1 0TP     -0.162000
     20 C14        -1.8930   -5.6170    5.0930 c3        1 0TP     -0.314000
     21 C15        -0.0310  -11.3840    8.9050 c3        1 0TP     -0.039000
     22 C16        -1.3850   -4.4700    4.3130 c3        1 0TP     -0.144000
     23 C17         0.4620   -3.2160    3.4270 c3        1 0TP     -0.359000
     24 C18        -0.4290   -2.3190    2.8500 c2        1 0TP      0.094000
     25 C19        -2.2780   -3.5680    3.7320 c2        1 0TP     -0.078000
     26 H1         -0.5110   -0.7990    0.5240 h1        1 0TP      0.090500
     27 H1A        -0.3610    0.8950    0.4920 h1        1 0TP      0.090500
     28 H2         -0.0660   -3.5990    3.3190 DU        1 0TP      0.038000
     29 HN2        -4.9330   -6.7280    5.9210 DU        1 0TP      0.218000
     30 HN2A       -6.0770   -7.9840    5.9670 hn        1 0TP      0.152000
     31 H3          1.3460   -0.8020    1.6190 DU        1 0TP      0.313000
     32 H3A         3.0860   -0.0280    1.2290 h1        1 0TP      0.125000
     33 HN3        -1.0140   -9.8360    7.9890 hn        1 0TP     -0.557000
     34 H4          1.2370   -2.1330    2.6080 ha        1 0TP      0.213000
     35 H4A         1.8690   -2.1280    1.5740 ha        1 0TP      0.213000
     36 H5         -0.7760   -2.1420    3.0290 hc        1 0TP     -0.138000
     37 H6         -1.2870   -1.4480    1.4710 h1        1 0TP      0.304000
     38 H6A        -1.5870   -1.2070    0.8050 h1        1 0TP      0.304000
     39 H7         -2.7190   -5.2940    4.5120 DU        1 0TP      0.350000
     40 H13        -3.6970   -8.4470    7.0320 DU        1 0TP      0.350000
     41 H15        -1.0500  -11.0680    8.7190 hx        1 0TP      0.085667
     42 H15A       -0.3070  -12.2590    9.4810 hx        1 0TP      0.085667
     43 H15B        0.5660  -10.7210    9.5200 hx        1 0TP      0.085667
     44 H17         0.4720   -4.1670    3.9440 hc        1 0TP      0.073000
     45 H19        -1.2100   -3.4290    3.6120 DU        1 0TP      0.186000
     46 H32        -0.8580   -9.9180    7.9520 DU        1 0TP     -0.226000
     47 N2         -5.8660   -7.0200    6.1350 n8        1 0TP     -0.003000
@<TRIPOS>BOND
     1    1    3 1   
     2    1   12 1   
     3    1   26 1   
     4    1   27 1   
     5    2   16 1   
     6    2   19 1   
     7    2   40 1   
     8    3    7 1   
     9    4   15 1   
    10    4   20 1   
    11    5   22 1   
    12    5   23 1   
    13    5   28 1   
    14    6   18 1   
    15    6   46 1   
    16    7    9 1   
    17    7   31 1   
    18    7   32 1   
    19    8   18 1   
    20    8   21 1   
    21    8   33 1   
    22    8   46 1   
    23    9   10 1   
    24    9   31 1   
    25    9   34 1   
    26    9   35 1   
    27   10   12 1   
    28   10   24 1   
    29   11   24 1   
    30   11   25 1   
    31   11   36 1   
    32   11   45 1   
    33   12   37 1   
    34   12   38 1   
    35   13   14 1   
    36   13   20 1   
    37   13   39 1   
    38   14   15 1   
    39   14   16 1   
    40   15   17 1   
    41   16   29 1   
    42   16   47 1   
    43   17   18 1   
    44   17   19 1   
    45   19   40 1   
    46   20   22 1   
    47   20   39 1   
    48   21   41 1   
    49   21   42 1   
    50   21   43 1   
    51   22   25 1   
    52   22   45 1   
    53   23   24 1   
    54   23   28 1   
    55   23   44 1   
    56   25   45 1   
    57   29   47 1   
    58   30   47 1   
@<TRIPOS>SUBSTRUCTURE
     1 0TP         1 TEMP              0 ****  ****    0 ROOT
