@<TRIPOS>MOLECULE
0TP
   46    46     1     0     0
SMALL
bcc


@<TRIPOS>ATOM
      1 C1          0.6290    0.4050    0.7170 c3        1 0TP     -0.139000
      2 N1         -4.9090   -8.3780    7.9000 n3        1 0TP     -0.162000
      3 O1          2.0240    0.3760    0.2700 os        1 0TP     -0.127000
      4 S1         -1.2200   -7.0670    5.8240 ss        1 0TP      0.635000
      5 C2         -0.2550   -4.8050    3.9880 c2        1 0TP     -0.128000
      6 O2         -1.5420  -10.3230    9.0450 oh        1 0TP     -0.252000
      7 C3          2.8180    1.3660    0.3940 c1        1 0TP     -0.026000
      8 N3         -0.1600   -9.0590    7.5350 n2        1 0TP     -0.328000
      9 C4          2.0200   -2.3680    1.2750 c3        1 0TP     -0.171000
     10 N4          0.7430   -1.8890    1.7700 n3        1 0TP     -0.082000
     11 C5         -3.7830   -4.3070    3.0780 c1        1 0TP      0.184000
     12 C6          0.1730   -0.7300    1.5250 c1        1 0TP     -0.155000
     13 C7         -3.4950   -6.0180    5.3080 c2        1 0TP     -0.104000
     14 C8         -3.7280   -7.0110    6.3200 c2        1 0TP     -0.229000
     15 C9         -2.5140   -7.6720    6.6970 c2        1 0TP     -0.182000
     16 C10        -4.9590   -7.3680    6.9340 c2        1 0TP      0.209000
     17 C11        -2.5430   -8.6740    7.6750 c2        1 0TP     -0.193000
     18 C12        -1.3090   -9.3630    8.0730 c2        1 0TP      0.207000
     19 C13        -3.7760   -9.0200    8.2790 c1        1 0TP     -0.051000
     20 C14        -2.1700   -5.9500    4.9540 c2        1 0TP     -0.367000
     21 C15         1.0460   -9.7160    7.9090 c3        1 0TP     -0.132000
     22 C16        -1.5870   -5.0570    3.9730 c2        1 0TP      0.057000
     23 C17         0.4890   -3.9460    3.1010 c2        1 0TP     -0.173000
     24 C18         0.0260   -2.7680    2.6320 c2        1 0TP     -0.034000
     25 C19        -2.4810   -4.4770    2.9850 c2        1 0TP     -0.436000
     26 H1          0.4470    1.3390    1.3140 h1        1 0TP      0.128500
     27 H1A         0.0100    0.4290   -0.2230 h1        1 0TP      0.128500
     28 H2          1.5040   -4.3140    2.8630 ha        1 0TP      0.137000
     29 HN2        -6.1220   -6.0760    5.8610 hn        1 0TP      0.239500
     30 HN2A       -7.0010   -7.0400    6.9550 hn        1 0TP      0.239500
     31 H3          2.4010   -1.7040    0.4570 h1        1 0TP      0.104667
     32 H3A         2.4460    2.3080    0.8640 ha        1 0TP      0.014000
     33 HN3        -0.7080  -10.7530    9.2850 ho        1 0TP      0.206000
     34 H4          2.7710   -2.3900    2.1090 h1        1 0TP      0.104667
     35 H4A         1.9050   -3.4060    0.8630 h1        1 0TP      0.104667
     36 H5         -0.9710   -2.3660    2.9160 h4        1 0TP      0.182000
     37 H6         -3.2610   -1.9630    2.3850 ha        1 0TP      0.000500
     38 H6A        -3.2000   -1.2940    2.2880 ha        1 0TP      0.000500
     39 H7         -4.2990   -5.3970    4.8960 ha        1 0TP      0.152000
     40 H13        -5.7500   -8.6550    8.3620 hn        1 0TP      0.253000
     41 H15         1.8680   -9.2630    7.2930 h1        1 0TP      0.073000
     42 H15A        1.0210  -10.8220    7.7030 h1        1 0TP      0.073000
     43 H15B        1.3000   -9.5740    8.9950 h1        1 0TP      0.073000
     44 H17         0.3730   -5.3170    4.7450 ha        1 0TP      0.142000
     45 H19        -1.9920   -4.1420    2.0400 ha        1 0TP      0.202000
     46 N2         -6.1300   -6.7280    6.6060 n3        1 0TP     -0.378000
@<TRIPOS>BOND
     1    1    3 1   
     2    1   12 1   
     3    1   26 1   
     4    1   27 1   
     5    2   16 1   
     6    2   19 1   
     7    2   40 1   
     8    3    7 1   
     9    4   15 1   
    10    4   20 1   
    11    5   22 1   
    12    5   23 1   
    13    5   44 1   
    14    6   18 1   
    15    6   33 1   
    16    7   32 1   
    17    8   18 1   
    18    8   21 1   
    19    9   10 1   
    20    9   31 1   
    21    9   34 1   
    22    9   35 1   
    23   10   12 1   
    24   10   24 1   
    25   11   25 1   
    26   13   14 1   
    27   13   20 1   
    28   13   39 1   
    29   14   15 1   
    30   14   16 1   
    31   15   17 1   
    32   16   46 1   
    33   17   18 1   
    34   17   19 1   
    35   20   22 1   
    36   21   41 1   
    37   21   42 1   
    38   21   43 1   
    39   22   25 1   
    40   23   24 1   
    41   23   28 1   
    42   24   36 1   
    43   25   45 1   
    44   29   46 1   
    45   30   46 1   
    46   37   38 1   
@<TRIPOS>SUBSTRUCTURE
     1 0TP         1 TEMP              0 ****  ****    0 ROOT
