@<TRIPOS>MOLECULE
0TP
   46    49     1     0     0
SMALL
bcc


@<TRIPOS>ATOM
      1 C1         -7.3920    0.5990    0.2970 c3        1 0TP      0.122900
      2 N1          5.0010    2.2450    0.0630 nb        1 0TP     -0.753000
      3 O1         -7.8180   -0.7500    0.4460 os        1 0TP     -0.412600
      4 S1          1.6280   -0.6950   -0.3510 ss        1 0TP      0.134500
      5 C2         -1.4210   -0.8560    0.1720 ca        1 0TP     -0.092500
      6 O2          4.2110   -2.2530   -1.2920 o         1 0TP     -0.608100
      7 C3         -7.0760   -1.6390   -0.3800 c3        1 0TP      0.122900
      8 N3          5.8940   -1.9300    0.2260 n         1 0TP     -0.574900
      9 C4         -5.5690   -1.5430   -0.1050 c3        1 0TP      0.150300
     10 N4         -5.0850   -0.1740   -0.1950 nh        1 0TP     -0.632000
     11 C5         -3.1230    1.2780   -0.3760 ca        1 0TP     -0.167000
     12 C6         -5.8930    0.7550    0.5850 c3        1 0TP      0.150300
     13 C7          1.2250    1.7880    0.0860 cc        1 0TP     -0.111200
     14 C8          2.6460    1.6150    0.0260 ca        1 0TP     -0.259100
     15 C9          3.0020    0.2560   -0.2020 ca        1 0TP      0.003900
     16 C10         3.6830    2.6000    0.1660 ca        1 0TP      0.713200
     17 C11         4.3640   -0.0910   -0.2640 ca        1 0TP     -0.286900
     18 C12         4.7950   -1.4940   -0.4900 c         1 0TP      0.683700
     19 C13         5.2970    0.9470   -0.1350 ca        1 0TP      0.475200
     20 C14         0.5570    0.5990   -0.0990 cd        1 0TP     -0.058600
     21 C15         6.3930   -3.2640    0.1370 c3        1 0TP      0.079300
     22 C16        -0.8720    0.4050   -0.1000 ca        1 0TP     -0.052800
     23 C17        -2.7950   -1.0560    0.1790 ca        1 0TP     -0.167000
     24 C18        -3.6840    0.0080   -0.0990 ca        1 0TP      0.143600
     25 C19        -1.7480    1.4660   -0.3740 ca        1 0TP     -0.092500
     26 H1         -7.6370    0.9590   -0.7370 h1        1 0TP      0.057200
     27 H1A        -7.9890    1.1670    1.0570 h1        1 0TP      0.057200
     28 H2         -0.7520   -1.7050    0.3920 ha        1 0TP      0.134500
     29 HN2         4.0610    4.6030    0.3960 hn        1 0TP      0.424800
     30 HN2A        2.4300    4.1960    0.2280 hn        1 0TP      0.424800
     31 H3         -7.4500   -2.6590   -0.1020 h1        1 0TP      0.057200
     32 H3A        -7.2970   -1.4250   -1.4580 h1        1 0TP      0.057200
     33 HN3         6.2790   -1.3400    0.9230 hn        1 0TP      0.310500
     34 H4         -5.3650   -1.9870    0.9120 h1        1 0TP      0.048450
     35 H4A        -5.0280   -2.1580   -0.8780 h1        1 0TP      0.048450
     36 H5         -3.7730    2.1340   -0.6160 ha        1 0TP      0.137000
     37 H6         -5.5920    1.8070    0.3250 h1        1 0TP      0.048450
     38 H6A        -5.7240    0.6050    1.6910 h1        1 0TP      0.048450
     39 H7          0.7430    2.7490    0.2760 ha        1 0TP      0.150000
     40 H13         6.3830    0.7470   -0.2140 h4        1 0TP      0.024100
     41 H15         6.1790   -3.8320    1.0840 h1        1 0TP      0.043700
     42 H15A        5.9100   -3.8020   -0.7230 h1        1 0TP      0.043700
     43 H15B        7.5050   -3.2410   -0.0220 h1        1 0TP      0.043700
     44 H17        -3.1750   -2.0630    0.4080 ha        1 0TP      0.137000
     45 H19        -1.3400    2.4620   -0.6030 ha        1 0TP      0.134500
     46 N2          3.3500    3.9120    0.4650 nh        1 0TP     -0.940500
@<TRIPOS>BOND
     1    1    3 1   
     2    1   12 1   
     3    1   26 1   
     4    1   27 1   
     5    2   16 ar  
     6    2   19 ar  
     7    3    7 1   
     8    4   15 1   
     9    4   20 1   
    10    5   22 ar  
    11    5   23 ar  
    12    5   28 1   
    13    6   18 2   
    14    7    9 1   
    15    7   31 1   
    16    7   32 1   
    17    8   18 1   
    18    8   21 1   
    19    8   33 1   
    20    9   10 1   
    21    9   34 1   
    22    9   35 1   
    23   10   12 1   
    24   10   24 1   
    25   11   24 ar  
    26   11   25 ar  
    27   11   36 1   
    28   12   37 1   
    29   12   38 1   
    30   13   14 1   
    31   13   20 2   
    32   13   39 1   
    33   14   15 ar  
    34   14   16 ar  
    35   15   17 ar  
    36   16   46 1   
    37   17   18 1   
    38   17   19 ar  
    39   19   40 1   
    40   20   22 1   
    41   21   41 1   
    42   21   42 1   
    43   21   43 1   
    44   22   25 ar  
    45   23   24 ar  
    46   23   44 1   
    47   25   45 1   
    48   29   46 1   
    49   30   46 1   
@<TRIPOS>SUBSTRUCTURE
     1 0TP         1 TEMP              0 ****  ****    0 ROOT
