@<TRIPOS>MOLECULE
0TP
   46    42     1     0     0
SMALL
bcc


@<TRIPOS>ATOM
      1 C1          1.9570   -5.6740   -3.1840 c3        1 0TP     -0.025000
      2 N1         -0.9950    5.2320    2.7270 n1        1 0TP     -0.227000
      3 O1          3.2960   -5.8820   -2.7150 os        1 0TP     -0.272000
      4 S1         -1.4530    1.3190    0.7800 ss        1 0TP      0.610000
      5 C2          0.9990   -1.2320    0.2160 c1        1 0TP     -0.110000
      6 N2          1.2140    5.2280    2.3290 n3        1 0TP     -0.338000
      7 O2         -4.6110    3.0230    0.8890 o         1 0TP     -0.370000
      8 C3          4.0990   -4.7130   -2.8100 c3        1 0TP     -0.025000
      9 N3         -4.7420    2.8180    3.2210 n3        1 0TP     -0.383000
     10 C4          3.4560   -3.5190   -2.1730 c3        1 0TP     -0.102000
     11 N4          2.1320   -3.3000   -2.6380 n3        1 0TP     -0.219000
     12 C5          1.0520   -1.1450   -2.5290 c1        1 0TP     -0.100000
     13 C6          1.3110   -4.4770   -2.5420 c3        1 0TP     -0.102000
     14 C7          0.7970    2.1840    0.8150 c1        1 0TP     -0.115000
     15 C8         -0.1910    3.2520    1.5490 c1        1 0TP     -0.185000
     16 C9         -1.5000    2.7330    1.5200 c1        1 0TP     -0.223000
     17 C10         0.0570    4.5130    2.1600 c1        1 0TP      0.194000
     18 C11        -2.5320    3.4470    2.0800 c1        1 0TP     -0.202000
     19 C12        -4.0270    3.1210    2.0190 c1        1 0TP      0.357000
     20 C13        -2.2750    4.7230    2.6970 c2        1 0TP      0.012000
     21 C14        -0.0010    1.0530    0.3770 c1        1 0TP     -0.324000
     22 C15        -6.1620    3.0830    3.3030 c3        1 0TP     -0.076000
     23 C16         0.5130   -0.1380   -0.4240 c1        1 0TP     -0.012000
     24 C17         1.5210   -2.3010   -0.5250 c1        1 0TP     -0.152000
     25 C18         1.5390   -2.2420   -1.8870 c1        1 0TP      0.007000
     26 C19         0.5340   -0.0850   -1.7980 c2        1 0TP     -0.126000
     27 H1          1.4350   -6.4530   -2.9850 h1        1 0TP      0.094500
     28 H1A         1.9720   -5.5510   -4.0940 h1        1 0TP      0.094500
     29 H2          0.9840   -1.2730    1.1540 ha        1 0TP      0.135000
     30 HN2         1.9130    5.0860    1.7840 hn        1 0TP      0.220500
     31 HN2A        1.2620    5.8670    2.9740 hn        1 0TP      0.220500
     32 H3          4.9700   -4.8840   -2.3660 h1        1 0TP      0.094500
     33 H3A         4.2630   -4.5070   -3.7970 h1        1 0TP      0.094500
     34 HN3        -4.2910    2.5470    3.9570 hn        1 0TP      0.224000
     35 H4          4.0240   -2.6930   -2.3840 h1        1 0TP      0.085000
     36 H4A         3.4320   -3.6480   -1.2100 h1        1 0TP      0.085000
     37 H5          1.0610   -1.1070   -3.4950 ha        1 0TP      0.150000
     38 H6          1.1350   -4.6840   -1.5480 h1        1 0TP      0.085000
     39 H6A         0.5080   -4.3130   -2.9580 h1        1 0TP      0.085000
     40 H7          1.7320    2.2830    0.6950 DU        1 0TP      0.151000
     41 H13        -3.0160    5.2310    3.0990 h4        1 0TP      0.162000
     42 H15        -6.5900    2.7030    2.5750 h1        1 0TP      0.083333
     43 H15A       -6.3200    4.0950    3.3020 h1        1 0TP      0.083333
     44 H15B       -6.5280    2.6860    4.1550 h1        1 0TP      0.083333
     45 H17         1.8690   -3.0760   -0.0740 ha        1 0TP      0.136000
     46 H19         0.1980    0.6720   -2.2420 ha        1 0TP      0.142000
@<TRIPOS>BOND
     1    1    3 1   
     2    1   13 1   
     3    1   27 1   
     4    1   28 1   
     5    2   20 1   
     6    3    8 1   
     7    4   16 1   
     8    4   21 1   
     9    5   23 1   
    10    5   29 1   
    11    6   17 1   
    12    6   30 1   
    13    6   31 1   
    14    7   19 1   
    15    8   10 1   
    16    8   32 1   
    17    8   33 1   
    18    9   19 1   
    19    9   22 1   
    20    9   34 1   
    21   10   11 1   
    22   10   35 1   
    23   10   36 1   
    24   11   13 1   
    25   11   25 1   
    26   12   26 1   
    27   12   37 1   
    28   13   38 1   
    29   13   39 1   
    30   14   15 1   
    31   14   21 1   
    32   15   17 1   
    33   16   18 1   
    34   18   20 1   
    35   20   41 1   
    36   22   42 1   
    37   22   43 1   
    38   22   44 1   
    39   23   26 1   
    40   24   25 1   
    41   24   45 1   
    42   26   46 1   
@<TRIPOS>SUBSTRUCTURE
     1 0TP         1 TEMP              0 ****  ****    0 ROOT
