@<TRIPOS>MOLECULE
0TR
   15    15     1     0     0
SMALL
bcc


@<TRIPOS>ATOM
      1 CA1        -0.7130   -0.7930   -0.3590 c         1 0TR      0.578500
      2 OA1        -1.6010   -1.3410   -1.0220 o         1 0TR     -0.503100
      3 CA2        -0.8190    0.6420    0.0200 cc        1 0TR      0.054900
      4 OA2        -2.1210    0.9620    0.3250 oh        1 0TR     -0.475100
      5 CA3         0.1730    1.5660    0.0390 cd        1 0TR     -0.223000
      6 CB3         1.5620    1.3490   -0.2160 cd        1 0TR     -0.073000
      7 CA5         1.7210   -1.1010    0.2120 cc        1 0TR     -0.062000
      8 CA6         0.4490   -1.5280    0.1380 cd        1 0TR     -0.237200
      9 CAE         2.2430    0.1870   -0.1380 cc        1 0TR     -0.160000
     10 HA6         0.2070   -2.5680    0.4280 ha        1 0TR      0.153000
     11 HA2        -2.1670    1.9040    0.5470 ho        1 0TR      0.419000
     12 HAE         3.3330    0.2060   -0.3270 ha        1 0TR      0.132000
     13 HA5         2.4870   -1.8220    0.5630 ha        1 0TR      0.132000
     14 HA3        -0.0990    2.6160    0.2590 ha        1 0TR      0.133000
     15 HB3         2.1270    2.2690   -0.4620 ha        1 0TR      0.130000
@<TRIPOS>BOND
     1    1    2 2   
     2    1    3 1   
     3    1    8 1   
     4    3    4 1   
     5    3    5 2   
     6    4   11 1   
     7    5    6 1   
     8    5   14 1   
     9    6    9 2   
    10    6   15 1   
    11    7    8 2   
    12    7    9 1   
    13    7   13 1   
    14    8   10 1   
    15    9   12 1   
@<TRIPOS>SUBSTRUCTURE
     1 0TR         1 TEMP              0 ****  ****    0 ROOT
