@<TRIPOS>MOLECULE
0TR
   15    12     1     0     0
SMALL
bcc


@<TRIPOS>ATOM
      1 CA1        -0.8760   -0.6790   -1.1570 c1        1 0TR      0.301000
      2 OA1        -1.5640   -1.5520   -1.6460 o         1 0TR     -0.264000
      3 CA2         0.6370   -0.6790   -1.1570 c1        1 0TR      0.030000
      4 OA2         1.3400   -0.6750   -2.3750 oh        1 0TR     -0.230000
      5 CA3         1.3930   -0.6790    0.1540 c1        1 0TR     -0.223000
      6 CB3         1.1150    0.3900    1.1880 c1        1 0TR     -0.116500
      7 CA5        -1.4930    0.6010    1.0450 c1        1 0TR     -0.062000
      8 CA6        -1.4190    0.5530   -0.4650 c2        1 0TR     -0.218000
      9 CAE        -0.2340    0.4490    1.8700 c1        1 0TR     -0.116500
     10 HA6        -1.7550    1.3010   -0.9940 ha        1 0TR      0.153000
     11 HA2         1.6120    0.1500   -2.5570 ho        1 0TR      0.218000
     12 HAE        -0.2910    0.4090    2.8440 ha        1 0TR      0.131000
     13 HA5        -2.3510    0.7520    1.4870 ha        1 0TR      0.132000
     14 HA3         2.0710   -1.3600    0.3260 ha        1 0TR      0.133000
     15 HB3         1.8160    1.0200    1.4380 ha        1 0TR      0.131000
@<TRIPOS>BOND
     1    1    2 1   
     2    1    8 1   
     3    3    4 1   
     4    3    5 1   
     5    4   11 1   
     6    5   14 1   
     7    6    9 1   
     8    6   15 1   
     9    7    8 1   
    10    7   13 1   
    11    8   10 1   
    12    9   12 1   
@<TRIPOS>SUBSTRUCTURE
     1 0TR         1 TEMP              0 ****  ****    0 ROOT
