@<TRIPOS>MOLECULE
0TR
   15    15     1     0     0
SMALL
bcc


@<TRIPOS>ATOM
      1 CA1         0.0550   -0.1440   -0.0470 c         1 0TR      0.539500
      2 OA1        -0.4270   -0.2220   -1.1990 o         1 0TR     -0.582100
      3 CA2         1.5280   -0.1310    0.0660 cc        1 0TR      0.053900
      4 OA2         2.2090   -0.2070   -1.1310 oh        1 0TR     -0.505100
      5 CA3         2.3290   -0.0560    1.1640 cd        1 0TR     -0.155000
      6 CB3         1.9580    0.0330    2.5310 cd        1 0TR     -0.062000
      7 CA5        -0.5370    0.0150    2.4200 cc        1 0TR     -0.042000
      8 CA6        -0.8220   -0.0720    1.1050 cd        1 0TR     -0.233200
      9 CAE         0.7230    0.0640    3.0800 cc        1 0TR     -0.163000
     10 HA6        -1.8930   -0.0960    0.8110 ha        1 0TR      0.152000
     11 HA2         1.5650   -0.2570   -1.8610 ho        1 0TR      0.450000
     12 HAE         0.6580    0.1360    4.1840 ha        1 0TR      0.132000
     13 HA5        -1.4070    0.0570    3.1100 ha        1 0TR      0.130000
     14 HA3         3.4210   -0.0640    0.9710 ha        1 0TR      0.152000
     15 HB3         2.8220    0.0820    3.2260 ha        1 0TR      0.132000
@<TRIPOS>BOND
     1    1    2 2   
     2    1    3 1   
     3    1    8 1   
     4    3    4 1   
     5    3    5 2   
     6    4   11 1   
     7    5    6 1   
     8    5   14 1   
     9    6    9 2   
    10    6   15 1   
    11    7    8 2   
    12    7    9 1   
    13    7   13 1   
    14    8   10 1   
    15    9   12 1   
@<TRIPOS>SUBSTRUCTURE
     1 0TR         1 TEMP              0 ****  ****    0 ROOT
