@<TRIPOS>MOLECULE
0TR
   15    15     1     0     0
SMALL
bcc


@<TRIPOS>ATOM
      1 CA1         0.0480   -0.1600   -0.0420 c         1 0TR      0.539500
      2 OA1        -0.4400   -0.2500   -1.1900 o         1 0TR     -0.582100
      3 CA2         1.5220   -0.1280    0.0610 cc        1 0TR      0.053900
      4 OA2         2.1970   -0.2010   -1.1390 oh        1 0TR     -0.505100
      5 CA3         2.3280   -0.0370    1.1540 cd        1 0TR     -0.155000
      6 CB3         1.9650    0.0530    2.5230 cd        1 0TR     -0.062000
      7 CA5        -0.5310    0.0050    2.4280 cc        1 0TR     -0.042000
      8 CA6        -0.8230   -0.0930    1.1150 cd        1 0TR     -0.233200
      9 CAE         0.7320    0.0720    3.0800 cc        1 0TR     -0.163000
     10 HA6        -1.8940   -0.1310    0.8280 ha        1 0TR      0.152000
     11 HA2         1.5490   -0.2640   -1.8650 ho        1 0TR      0.450000
     12 HAE         0.6740    0.1490    4.1840 ha        1 0TR      0.132000
     13 HA5        -1.3960    0.0400    3.1230 ha        1 0TR      0.130000
     14 HA3         3.4200   -0.0330    0.9550 ha        1 0TR      0.152000
     15 HB3         2.8320    0.1160    3.2120 ha        1 0TR      0.132000
@<TRIPOS>BOND
     1    1    2 2   
     2    1    3 1   
     3    1    8 1   
     4    3    4 1   
     5    3    5 2   
     6    4   11 1   
     7    5    6 1   
     8    5   14 1   
     9    6    9 2   
    10    6   15 1   
    11    7    8 2   
    12    7    9 1   
    13    7   13 1   
    14    8   10 1   
    15    9   12 1   
@<TRIPOS>SUBSTRUCTURE
     1 0TR         1 TEMP              0 ****  ****    0 ROOT
