@<TRIPOS>MOLECULE
0TU
   18    19     1     0     0
SMALL
bcc


@<TRIPOS>ATOM
      1 Cl          0.0110   -0.0150    0.0000 cl        1 0TU     -0.086400
      2 C1          3.9830    0.0010    0.0230 ca        1 0TU     -0.179000
      3 C2          2.6630   -0.0040    0.4290 ca        1 0TU     -0.071000
      4 C3          1.9180   -0.0120   -1.8810 ca        1 0TU     -0.065000
      5 C4          3.2530   -0.0080   -2.3160 ca        1 0TU     -0.131800
      6 C5          4.3080   -0.0020   -1.3600 ca        1 0TU      0.099600
      7 C6          1.6270   -0.0100   -0.5230 ca        1 0TU     -0.024600
      8 C7          3.5900   -0.0100   -3.7190 cc        1 0TU     -0.032200
      9 C8          4.8780   -0.0060   -4.1200 cd        1 0TU     -0.227200
     10 C9          5.9780    0.0010   -3.1440 c         1 0TU      0.691700
     11 N10         5.6290    0.0030   -1.7860 ns        1 0TU     -0.444100
     12 O11         7.1870    0.0050   -3.4450 o         1 0TU     -0.626500
     13 H2          2.4180   -0.0020    1.5030 ha        1 0TU      0.152000
     14 H3          1.1100   -0.0170   -2.6290 ha        1 0TU      0.152000
     15 H7          2.7600   -0.0150   -4.4450 ha        1 0TU      0.145000
     16 H8          5.1850   -0.0070   -5.1760 ha        1 0TU      0.167000
     17 HN10        6.3570    0.0070   -1.1050 hn        1 0TU      0.334500
     18 H1          4.7850    0.0060    0.7770 ha        1 0TU      0.145000
@<TRIPOS>BOND
     1    1    7 1   
     2    2    3 ar  
     3    2    6 ar  
     4    2   18 1   
     5    3    7 ar  
     6    3   13 1   
     7    4    5 ar  
     8    4    7 ar  
     9    4   14 1   
    10    5    6 ar  
    11    5    8 1   
    12    6   11 1   
    13    8    9 2   
    14    8   15 1   
    15    9   10 1   
    16    9   16 1   
    17   10   11 1   
    18   10   12 2   
    19   11   17 1   
@<TRIPOS>SUBSTRUCTURE
     1 0TU         1 TEMP              0 ****  ****    0 ROOT
