@<TRIPOS>MOLECULE
0TX
   48    49     1     0     0
SMALL
bcc


@<TRIPOS>ATOM
      1 CL          6.0940    1.8000    0.7600 cl        1 0TX     -0.091400
      2 N1          3.6100   -1.9530   -1.6030 nb        1 0TX     -0.694000
      3 C1          2.5150   -2.6650   -1.8020 ca        1 0TX      0.452200
      4 C2          1.2840   -2.4720   -1.1240 ca        1 0TX     -0.346300
      5 C3          1.1750   -1.4500   -0.1780 ca        1 0TX      0.218600
      6 C4          2.3550   -0.6370    0.0680 ca        1 0TX     -0.184300
      7 C5          2.3810    0.4370    0.9940 ca        1 0TX     -0.097000
      8 C6          3.5190    1.1760    1.2030 ca        1 0TX     -0.138000
      9 C7          4.6980    0.8710    0.4790 ca        1 0TX      0.029400
     10 C8          4.7210   -0.1550   -0.4360 ca        1 0TX     -0.169300
     11 C9          3.5430   -0.9370   -0.6690 ca        1 0TX      0.429600
     12 C10        -1.1390   -2.0750    0.4420 c3        1 0TX      0.204500
     13 C11        -2.4150   -1.4260    1.0060 c3        1 0TX     -0.082400
     14 C12        -2.9280   -0.3110    0.1220 c3        1 0TX     -0.082400
     15 C13        -4.2300    0.2470    0.7020 c3        1 0TX      0.174800
     16 N3         -4.8730    1.2300   -0.1590 n3        1 0TX     -0.742600
     17 C14        -6.3130    1.3080    0.0530 c3        1 0TX      0.173800
     18 C15        -7.0880    0.1420   -0.5420 c3        1 0TX     -0.093100
     19 C16        -4.2250    2.5340   -0.1080 c3        1 0TX      0.173800
     20 C17        -4.4530    3.3840   -1.3490 c3        1 0TX     -0.093100
     21 C18        -0.8860   -3.3780    1.2070 c3        1 0TX     -0.131100
     22 H11         2.5930   -3.4710   -2.5580 h4        1 0TX      0.020100
     23 H21         0.4450   -3.1360   -1.3660 ha        1 0TX      0.145000
     24 H51         1.4800    0.7110    1.5630 ha        1 0TX      0.129000
     25 H61         3.5250    2.0080    1.9240 ha        1 0TX      0.148000
     26 H81         5.6370   -0.3910   -1.0030 ha        1 0TX      0.166000
     27 HN21        0.0630   -0.6430    1.3150 hn        1 0TX      0.408800
     28 H101       -1.3380   -2.3320   -0.6430 h1        1 0TX      0.068700
     29 H112       -3.1930   -2.2300    1.0850 hc        1 0TX      0.045700
     30 H111       -2.2290   -1.0410    2.0430 hc        1 0TX      0.045700
     31 H121       -2.1590    0.5000    0.0420 hc        1 0TX      0.056700
     32 H122       -3.1080   -0.7010   -0.9140 hc        1 0TX      0.056700
     33 H132       -4.9420   -0.6150    0.8490 h1        1 0TX      0.027700
     34 H131       -4.0110    0.6740    1.7260 h1        1 0TX      0.027700
     35 H142       -6.5620    1.3810    1.1530 h1        1 0TX      0.028700
     36 H141       -6.6860    2.2540   -0.4340 h1        1 0TX      0.028700
     37 H151       -8.1810    0.3460   -0.4290 hc        1 0TX      0.038033
     38 H153       -6.8570    0.0190   -1.6270 hc        1 0TX      0.038033
     39 H152       -6.8540   -0.8160   -0.0220 hc        1 0TX      0.038033
     40 H162       -4.5590    3.1220    0.7980 h1        1 0TX      0.028700
     41 H161       -3.1140    2.3690   -0.0030 h1        1 0TX      0.028700
     42 H171       -3.8290    4.3070   -1.2670 hc        1 0TX      0.038033
     43 H172       -4.1570    2.8320   -2.2730 hc        1 0TX      0.038033
     44 H173       -5.5210    3.6880   -1.4480 hc        1 0TX      0.038033
     45 H182       -1.7430   -4.0740    1.0440 hc        1 0TX      0.045367
     46 H181        0.0480   -3.8740    0.8470 hc        1 0TX      0.045367
     47 H183       -0.7880   -3.1830    2.3010 hc        1 0TX      0.045367
     48 N2         -0.0220   -1.1470    0.4590 nh        1 0TX     -0.736600
@<TRIPOS>BOND
     1    1    9 1   
     2    2    3 ar  
     3    2   11 ar  
     4    3    4 ar  
     5    3   22 1   
     6    4    5 ar  
     7    4   23 1   
     8    5    6 ar  
     9    5   48 1   
    10    6    7 ar  
    11    6   11 ar  
    12    7    8 ar  
    13    7   24 1   
    14    8    9 ar  
    15    8   25 1   
    16    9   10 ar  
    17   10   11 ar  
    18   10   26 1   
    19   12   13 1   
    20   12   21 1   
    21   12   28 1   
    22   12   48 1   
    23   13   14 1   
    24   13   29 1   
    25   13   30 1   
    26   14   15 1   
    27   14   31 1   
    28   14   32 1   
    29   15   16 1   
    30   15   33 1   
    31   15   34 1   
    32   16   17 1   
    33   16   19 1   
    34   17   18 1   
    35   17   35 1   
    36   17   36 1   
    37   18   37 1   
    38   18   38 1   
    39   18   39 1   
    40   19   20 1   
    41   19   40 1   
    42   19   41 1   
    43   20   42 1   
    44   20   43 1   
    45   20   44 1   
    46   21   45 1   
    47   21   46 1   
    48   21   47 1   
    49   27   48 1   
@<TRIPOS>SUBSTRUCTURE
     1 0TX         1 TEMP              0 ****  ****    0 ROOT
