@<TRIPOS>MOLECULE
0TX
   48    43     1     0     0
SMALL
bcc


@<TRIPOS>ATOM
      1 CL         -0.0310    8.1820   -3.0370 cl        1 0TX     -0.013000
      2 N1         -1.3090    3.4570   -4.6130 n1        1 0TX     -0.167000
      3 C1         -1.4640    2.1050   -4.3870 c1        1 0TX     -0.014000
      4 C2         -1.2390    1.5750   -3.1100 c1        1 0TX     -0.280000
      5 C3         -0.8610    2.4110   -2.0750 c1        1 0TX      0.134000
      6 C4         -0.7040    3.7760   -2.3060 c1        1 0TX     -0.118000
      7 C5         -0.2940    4.6310   -1.2560 c1        1 0TX     -0.117000
      8 C6         -0.1140    5.9990   -1.4960 c1        1 0TX     -0.117000
      9 C7         -0.3400    6.5210   -2.7720 c1        1 0TX     -0.049000
     10 C8         -0.7480    5.6740   -3.8180 c1        1 0TX     -0.104000
     11 C9         -0.9300    4.2950   -3.5770 c1        1 0TX      0.035000
     12 N2         -0.8180    1.7940   -0.6880 n2        1 0TX     -0.292000
     13 C10        -0.2800    0.5030   -0.5080 c3        1 0TX      0.006000
     14 C11        -0.6350   -0.0120    0.9200 c3        1 0TX     -0.166000
     15 C12        -0.5740   -1.5490    0.9380 c3        1 0TX     -0.159000
     16 C13        -0.2150   -2.0350    2.3570 c3        1 0TX     -0.062000
     17 N3          0.3850   -3.3700    2.2840 n3        1 0TX     -0.270000
     18 C14         1.6280   -3.3710    2.9850 c3        1 0TX     -0.063000
     19 C15         2.7810   -3.5030    1.9860 c3        1 0TX     -0.211000
     20 C16        -0.5270   -4.3560    2.9090 c3        1 0TX     -0.063000
     21 C17        -0.2980   -5.7220    2.2830 c3        1 0TX     -0.211000
     22 C18         1.2370    0.5540   -0.6730 c3        1 0TX     -0.248000
     23 H11        -1.7420    1.4950   -5.1460 ha        1 0TX      0.157000
     24 H21        -1.3490    0.6260   -2.9510 ha        1 0TX      0.145000
     25 H51        -0.1350    4.2660   -0.3610 ha        1 0TX      0.139000
     26 H61         0.2210    6.5790   -0.7830 ha        1 0TX      0.139000
     27 H81        -0.9150    6.0410   -4.7110 ha        1 0TX      0.166000
     28 HN21       -1.2220    2.2230    0.0160 hn        1 0TX      0.202000
     29 H101       -0.6520   -0.0950   -1.1660 h1        1 0TX      0.107000
     30 H112        0.0180    0.3550    1.5760 hc        1 0TX      0.088000
     31 H111       -1.5420    0.2820    1.1590 hc        1 0TX      0.088000
     32 H121       -1.4470   -1.9130    0.6780 hc        1 0TX      0.090500
     33 H122        0.0810   -1.8440    0.3290 hc        1 0TX      0.090500
     34 H132        0.4210   -1.4140    2.7600 h1        1 0TX      0.070500
     35 H131       -0.9980   -2.0730    2.8840 h1        1 0TX      0.070500
     36 H142        1.7250   -2.5230    3.4880 h1        1 0TX      0.068500
     37 H141        1.6470   -4.1460    3.6270 h1        1 0TX      0.068500
     38 H151        3.5460   -3.9540    2.4210 hc        1 0TX      0.077333
     39 H153        3.0640   -2.5820    1.6800 hc        1 0TX      0.077333
     40 H152        2.4840   -4.0360    1.2010 hc        1 0TX      0.077333
     41 H162       -0.3450   -4.4050    3.8770 h1        1 0TX      0.068500
     42 H161       -1.4440   -4.0850    2.7680 h1        1 0TX      0.068500
     43 H171       -1.1450   -6.2370    2.2940 hc        1 0TX      0.077333
     44 H172        0.3850   -6.2050    2.7980 hc        1 0TX      0.077333
     45 H173        0.0010   -5.6140    1.3760 hc        1 0TX      0.077333
     46 H182        1.6420    0.8800    0.1470 hc        1 0TX      0.086000
     47 H181        1.4710    1.1740   -1.4340 hc        1 0TX      0.086000
     48 H183        1.5780   -0.3550   -0.8710 hc        1 0TX      0.086000
@<TRIPOS>BOND
     1    1    9 1   
     2    2    3 1   
     3    3   23 1   
     4    4    5 1   
     5    4   24 1   
     6    5    6 1   
     7    6   11 1   
     8    7    8 1   
     9    7   25 1   
    10    8   26 1   
    11    9   10 1   
    12   10   27 1   
    13   12   13 1   
    14   12   28 1   
    15   13   14 1   
    16   13   22 1   
    17   13   29 1   
    18   14   15 1   
    19   14   30 1   
    20   14   31 1   
    21   15   16 1   
    22   15   32 1   
    23   15   33 1   
    24   16   17 1   
    25   16   34 1   
    26   16   35 1   
    27   17   18 1   
    28   17   20 1   
    29   18   19 1   
    30   18   36 1   
    31   18   37 1   
    32   19   38 1   
    33   19   39 1   
    34   19   40 1   
    35   20   21 1   
    36   20   41 1   
    37   20   42 1   
    38   21   43 1   
    39   21   44 1   
    40   21   45 1   
    41   22   46 1   
    42   22   47 1   
    43   22   48 1   
@<TRIPOS>SUBSTRUCTURE
     1 0TX         1 TEMP              0 ****  ****    0 ROOT
