@<TRIPOS>MOLECULE
0TZ
   36    39     1     0     0
SMALL
bcc


@<TRIPOS>ATOM
      1 N8         -0.0520   -0.6670    0.2460 na        1 0TZ     -0.040600
      2 N9          1.2470   -0.6130   -0.0460 nc        1 0TZ     -0.519800
      3 C12         1.8460    0.1360    0.9140 cd        1 0TZ      0.300200
      4 C13         0.8680    0.6550    1.8400 cd        1 0TZ     -0.264300
      5 C11        -0.3670    0.1540    1.3720 cc        1 0TZ      0.087300
      6 N7         -1.6640    0.3700    1.8470 nh        1 0TZ     -0.565400
      7 C6         -1.9720    0.1500    3.1820 cc        1 0TZ      0.371600
      8 N6         -1.0270    0.0950    4.2080 nc        1 0TZ     -0.328600
      9 C5         -1.7490   -0.0250    5.3670 cd        1 0TZ      0.021700
     10 C10        -1.2780   -0.1270    6.7140 cd        1 0TZ     -0.123000
     11 C9         -2.1900   -0.2490    7.7310 cc        1 0TZ     -0.093000
     12 C8         -3.5790   -0.2760    7.4500 cc        1 0TZ     -0.196000
     13 C7         -4.0430   -0.1780    6.1520 cd        1 0TZ     -0.041300
     14 N5         -3.1560   -0.0490    5.1130 na        1 0TZ      0.057700
     15 C4         -3.3190    0.0530    3.7170 cd        1 0TZ     -0.341900
     16 C3         -4.5840    0.0620    3.0010 ca        1 0TZ      0.837800
     17 N3         -5.7440    0.1840    3.7240 nb        1 0TZ     -0.834000
     18 N1         -4.5330   -0.0530    1.6280 nb        1 0TZ     -0.825000
     19 C1         -5.7390   -0.0290    0.9820 ca        1 0TZ      0.725300
     20 C14        -5.7150   -0.1450   -0.5240 c3        1 0TZ     -0.143400
     21 N2         -6.9560    0.0890    1.5830 nb        1 0TZ     -0.802000
     22 C2         -6.9160    0.1810    2.9760 ca        1 0TZ      0.916900
     23 N4         -8.1220    0.2270    3.6570 nh        1 0TZ     -0.940500
     24 H1         -0.6960   -0.9780   -0.4440 hn        1 0TZ      0.308700
     25 H2          2.9240    0.2950    0.9350 h4        1 0TZ      0.041100
     26 H3          1.0420    1.2750    2.7110 ha        1 0TZ      0.182000
     27 H4         -2.4100    0.1930    1.2020 hn        1 0TZ      0.464800
     28 H5         -0.1930   -0.1050    6.8840 ha        1 0TZ      0.169000
     29 H6         -1.8550   -0.3290    8.7770 ha        1 0TZ      0.146000
     30 H7         -4.3030   -0.3780    8.2710 ha        1 0TZ      0.153000
     31 H8         -5.1210   -0.2010    5.9140 h4        1 0TZ      0.196000
     32 H9         -5.2740   -1.1320   -0.8100 hc        1 0TZ      0.065700
     33 H10        -6.7430   -0.0710   -0.9530 hc        1 0TZ      0.065700
     34 H11        -5.0840    0.6730   -0.9520 hc        1 0TZ      0.065700
     35 H12        -8.9500    0.3910    3.1350 hn        1 0TZ      0.441300
     36 H13        -8.1150    0.4800    4.6150 hn        1 0TZ      0.441300
@<TRIPOS>BOND
     1    1    2 1   
     2    1    5 1   
     3    1   24 1   
     4    2    3 2   
     5    3    4 1   
     6    3   25 1   
     7    4    5 2   
     8    4   26 1   
     9    5    6 1   
    10    6    7 1   
    11    6   27 1   
    12    7    8 1   
    13    7   15 2   
    14    8    9 2   
    15    9   10 1   
    16    9   14 1   
    17   10   11 2   
    18   10   28 1   
    19   11   12 1   
    20   11   29 1   
    21   12   13 2   
    22   12   30 1   
    23   13   14 1   
    24   13   31 1   
    25   14   15 1   
    26   15   16 1   
    27   16   17 ar  
    28   16   18 ar  
    29   17   22 ar  
    30   18   19 ar  
    31   19   20 1   
    32   19   21 ar  
    33   20   32 1   
    34   20   33 1   
    35   20   34 1   
    36   21   22 ar  
    37   22   23 1   
    38   23   35 1   
    39   23   36 1   
@<TRIPOS>SUBSTRUCTURE
     1 0TZ         1 TEMP              0 ****  ****    0 ROOT
