@<TRIPOS>MOLECULE
0TZ
   36    39     1     0     0
SMALL
bcc


@<TRIPOS>ATOM
      1 N8         -0.0520    0.6520    0.2420 na        1 0TZ     -0.040600
      2 N9          1.2470    0.5940   -0.0500 nc        1 0TZ     -0.519800
      3 C12         1.8450   -0.1520    0.9130 cd        1 0TZ      0.300200
      4 C13         0.8660   -0.6650    1.8410 cd        1 0TZ     -0.264300
      5 C11        -0.3680   -0.1640    1.3710 cc        1 0TZ      0.087300
      6 N7         -1.6650   -0.3750    1.8470 nu        1 0TZ     -0.565400
      7 C6         -1.9730   -0.1490    3.1810 cc        1 0TZ      0.371600
      8 N6         -1.0280   -0.0930    4.2070 nc        1 0TZ     -0.328600
      9 C5         -1.7500    0.0330    5.3660 cd        1 0TZ      0.021700
     10 C10        -1.2790    0.1390    6.7120 cd        1 0TZ     -0.123000
     11 C9         -2.1910    0.2660    7.7290 cc        1 0TZ     -0.093000
     12 C8         -3.5800    0.2960    7.4480 cc        1 0TZ     -0.196000
     13 C7         -4.0430    0.1940    6.1500 cd        1 0TZ     -0.041300
     14 N5         -3.1570    0.0590    5.1120 na        1 0TZ      0.057700
     15 C4         -3.3200   -0.0470    3.7160 cd        1 0TZ     -0.341900
     16 C3         -4.5850   -0.0550    3.0000 ca        1 0TZ      0.837800
     17 N3         -5.7450   -0.1730    3.7230 nb        1 0TZ     -0.834000
     18 N1         -4.5340    0.0550    1.6270 nb        1 0TZ     -0.825000
     19 C1         -5.7400    0.0330    0.9810 ca        1 0TZ      0.725300
     20 C14        -5.7150    0.1440   -0.5260 c3        1 0TZ     -0.143400
     21 N2         -6.9570   -0.0820    1.5820 nb        1 0TZ     -0.802000
     22 C2         -6.9170   -0.1690    2.9740 ca        1 0TZ      0.916900
     23 N4         -8.1240   -0.2110    3.6550 nv        1 0TZ     -0.940500
     24 H1         -0.6940    0.9610   -0.4500 hn        1 0TZ      0.308700
     25 H2          2.9230   -0.3130    0.9350 h4        1 0TZ      0.041100
     26 H3          1.0390   -1.2820    2.7150 ha        1 0TZ      0.182000
     27 H4         -2.4110   -0.1980    1.2020 hn        1 0TZ      0.464800
     28 H5         -0.1930    0.1150    6.8830 ha        1 0TZ      0.169000
     29 H6         -1.8560    0.3480    8.7740 ha        1 0TZ      0.146000
     30 H7         -4.3030    0.4020    8.2680 ha        1 0TZ      0.153000
     31 H8         -5.1220    0.2190    5.9120 h4        1 0TZ      0.196000
     32 H9         -6.7420    0.0610   -0.9560 hc        1 0TZ      0.065700
     33 H10        -5.2820    1.1340   -0.8140 hc        1 0TZ      0.065700
     34 H11        -5.0780   -0.6690   -0.9510 hc        1 0TZ      0.065700
     35 H12        -8.9510   -0.3740    3.1340 hn        1 0TZ      0.441300
     36 H13        -8.1170   -0.4600    4.6140 hn        1 0TZ      0.441300
@<TRIPOS>BOND
     1    1    2 1   
     2    1    5 1   
     3    1   24 1   
     4    2    3 2   
     5    3    4 1   
     6    3   25 1   
     7    4    5 2   
     8    4   26 1   
     9    5    6 1   
    10    6    7 1   
    11    6   27 1   
    12    7    8 1   
    13    7   15 2   
    14    8    9 2   
    15    9   10 1   
    16    9   14 1   
    17   10   11 2   
    18   10   28 1   
    19   11   12 1   
    20   11   29 1   
    21   12   13 2   
    22   12   30 1   
    23   13   14 1   
    24   13   31 1   
    25   14   15 1   
    26   15   16 1   
    27   16   17 ar  
    28   16   18 ar  
    29   17   22 ar  
    30   18   19 ar  
    31   19   20 1   
    32   19   21 ar  
    33   20   32 1   
    34   20   33 1   
    35   20   34 1   
    36   21   22 ar  
    37   22   23 1   
    38   23   35 1   
    39   23   36 1   
@<TRIPOS>SUBSTRUCTURE
     1 0TZ         1 TEMP              0 ****  ****    0 ROOT
