@<TRIPOS>MOLECULE
0TZ
   36    39     1     0     0
SMALL
bcc


@<TRIPOS>ATOM
      1 N8         -3.5860   -2.0290    0.6310 na        1 0TZ     -0.040600
      2 N9         -4.9170   -1.9890    0.5680 nc        1 0TZ     -0.519800
      3 C12        -5.2540   -0.9070   -0.1790 cd        1 0TZ      0.300200
      4 C13        -4.0730   -0.2500   -0.6850 cd        1 0TZ     -0.264300
      5 C11        -2.9970   -1.0120   -0.1800 cc        1 0TZ      0.087300
      6 N7         -1.6210   -0.8720   -0.3850 nh        1 0TZ     -0.565400
      7 C6         -0.9930    0.3440   -0.1550 cc        1 0TZ      0.371600
      8 N6         -1.6550    1.5720   -0.1000 nc        1 0TZ     -0.328600
      9 C5         -0.6690    2.5160    0.0320 cd        1 0TZ      0.021700
     10 C10        -0.7920    3.9370    0.1390 cd        1 0TZ     -0.123000
     11 C9          0.3430    4.6960    0.2730 cc        1 0TZ     -0.093000
     12 C8          1.6190    4.0790    0.3080 cc        1 0TZ     -0.196000
     13 C7          1.7470    2.7060    0.2040 cd        1 0TZ     -0.041300
     14 N5          0.6320    1.9210    0.0630 na        1 0TZ      0.057700
     15 C4          0.4440    0.5280   -0.0450 cd        1 0TZ     -0.341900
     16 C3          1.4920   -0.4790   -0.0500 ca        1 0TZ      0.837800
     17 N3          2.7960   -0.0660   -0.1600 nb        1 0TZ     -0.834000
     18 N1          1.1010   -1.7970    0.0560 nb        1 0TZ     -0.825000
     19 C1          2.1100   -2.7210    0.0360 ca        1 0TZ      0.725300
     20 C14         1.7120   -4.1750    0.1430 c3        1 0TZ     -0.143400
     21 N2          3.4380   -2.4400   -0.0700 nb        1 0TZ     -0.802000
     22 C2          3.7450   -1.0810   -0.1530 ca        1 0TZ      0.916900
     23 N4          5.0830   -0.7210   -0.1880 nh        1 0TZ     -0.940500
     24 H1         -3.1370   -2.8590    0.9410 hn        1 0TZ      0.308700
     25 H2         -6.2920   -0.6190   -0.3440 h4        1 0TZ      0.041100
     26 H3         -4.0210    0.6400   -1.3010 ha        1 0TZ      0.182000
     27 H4         -1.0590   -1.6820   -0.2070 hn        1 0TZ      0.464800
     28 H5         -1.8010    4.3710    0.1110 ha        1 0TZ      0.169000
     29 H6          0.2770    5.7910    0.3560 ha        1 0TZ      0.146000
     30 H7          2.5220    4.6940    0.4190 ha        1 0TZ      0.153000
     31 H8          2.7320    2.2090    0.2330 h4        1 0TZ      0.196000
     32 H9          0.9920   -4.4270   -0.6740 hc        1 0TZ      0.065700
     33 H10         2.6010   -4.8460    0.0620 hc        1 0TZ      0.065700
     34 H11         1.2170   -4.3490    1.1310 hc        1 0TZ      0.065700
     35 H12         5.3160    0.2110   -0.4340 hn        1 0TZ      0.441300
     36 H13         5.7570   -1.4300   -0.3480 hn        1 0TZ      0.441300
@<TRIPOS>BOND
     1    1    2 1   
     2    1    5 1   
     3    1   24 1   
     4    2    3 2   
     5    3    4 1   
     6    3   25 1   
     7    4    5 2   
     8    4   26 1   
     9    5    6 1   
    10    6    7 1   
    11    6   27 1   
    12    7    8 1   
    13    7   15 2   
    14    8    9 2   
    15    9   10 1   
    16    9   14 1   
    17   10   11 2   
    18   10   28 1   
    19   11   12 1   
    20   11   29 1   
    21   12   13 2   
    22   12   30 1   
    23   13   14 1   
    24   13   31 1   
    25   14   15 1   
    26   15   16 1   
    27   16   17 ar  
    28   16   18 ar  
    29   17   22 ar  
    30   18   19 ar  
    31   19   20 1   
    32   19   21 ar  
    33   20   32 1   
    34   20   33 1   
    35   20   34 1   
    36   21   22 ar  
    37   22   23 1   
    38   23   35 1   
    39   23   36 1   
@<TRIPOS>SUBSTRUCTURE
     1 0TZ         1 TEMP              0 ****  ****    0 ROOT
