@<TRIPOS>MOLECULE
0TZ
   38    41     1     0     0
SMALL
bcc


@<TRIPOS>ATOM
      1 N8          0.7760    0.7640    1.8350 na        1 0TZ      0.047400
      2 N9          1.9170    0.3170    1.3500 nc        1 0TZ     -0.406800
      3 C12         1.6550   -0.7880    0.5880 cd        1 0TZ      0.323200
      4 C13         0.2500   -1.0800    0.6070 cd        1 0TZ     -0.193300
      5 C11        -0.3000   -0.0590    1.4270 cc        1 0TZ     -0.149700
      6 N7         -1.6990    0.1390    1.7420 n4        1 0TZ     -0.433200
      7 C6         -2.0190    0.2370    3.1630 cc        1 0TZ      0.188600
      8 N6         -1.0700    0.4320    4.1270 nc        1 0TZ     -0.235600
      9 C5         -1.7680    0.4520    5.3290 cd        1 0TZ      0.020700
     10 C10        -1.2570    0.6150    6.6460 cd        1 0TZ     -0.072000
     11 C9         -2.1420    0.5950    7.7040 cc        1 0TZ     -0.059000
     12 C8         -3.5250    0.4150    7.4710 cc        1 0TZ     -0.106000
     13 C7         -4.0240    0.2560    6.1870 cd        1 0TZ     -0.074300
     14 N5         -3.1680    0.2720    5.1130 na        1 0TZ      0.091700
     15 C4         -3.3580    0.1410    3.7230 cd        1 0TZ     -0.302900
     16 C3         -4.6090   -0.0170    3.0140 ca        1 0TZ      0.845800
     17 N3         -5.7910   -0.1080    3.7310 nb        1 0TZ     -0.754000
     18 N1         -4.5490   -0.0630    1.6340 nb        1 0TZ     -0.796000
     19 C1         -5.7250   -0.2030    0.9620 ca        1 0TZ      0.783300
     20 C14        -5.7210   -0.2540   -0.5430 c3        1 0TZ     -0.165400
     21 N2         -6.9590   -0.3010    1.5860 nb        1 0TZ     -0.716000
     22 C2         -6.9070   -0.2480    2.9460 ca        1 0TZ      0.784900
     23 N4         -8.2190   -0.3540    3.6570 n4        1 0TZ     -0.827300
     24 H1          0.7600    1.5020    2.5090 hn        1 0TZ      0.360700
     25 H2          2.4490   -1.3300    0.0620 h4        1 0TZ      0.092100
     26 H3         -0.2620   -1.8900    0.0960 ha        1 0TZ      0.193000
     27 H4         -2.0370    1.0010    1.2800 hn        1 0TZ      0.485800
     28 H5         -0.1690    0.7480    6.7800 ha        1 0TZ      0.208000
     29 H6         -1.7770    0.7180    8.7410 ha        1 0TZ      0.197000
     30 H7         -4.2270    0.3990    8.3230 ha        1 0TZ      0.194000
     31 H8         -5.1010    0.1110    6.0020 h4        1 0TZ      0.193000
     32 H9         -4.6850   -0.1690   -0.9530 hc        1 0TZ      0.104367
     33 H10        -6.1720   -1.2220   -0.8860 hc        1 0TZ      0.104367
     34 H11        -6.3430    0.5870   -0.9480 hc        1 0TZ      0.104367
     35 H12        -8.3780    0.5010    4.2080 hn        1 0TZ      0.493800
     36 H13        -8.2010   -1.1700    4.2850 hn        1 0TZ      0.493800
     37 H72        -2.2040   -0.6770    1.3520 hn        1 0TZ      0.485800
     38 H43        -8.9840   -0.4670    2.9710 hn        1 0TZ      0.493800
@<TRIPOS>BOND
     1    1    2 1   
     2    1    5 1   
     3    1   24 1   
     4    2    3 2   
     5    3    4 1   
     6    3   25 1   
     7    4    5 2   
     8    4   26 1   
     9    5    6 1   
    10    6    7 1   
    11    6   27 1   
    12    6   37 1   
    13    7    8 1   
    14    7   15 2   
    15    8    9 2   
    16    9   10 1   
    17    9   14 1   
    18   10   11 2   
    19   10   28 1   
    20   11   12 1   
    21   11   29 1   
    22   12   13 2   
    23   12   30 1   
    24   13   14 1   
    25   13   31 1   
    26   14   15 1   
    27   15   16 1   
    28   16   17 ar  
    29   16   18 ar  
    30   17   22 ar  
    31   18   19 ar  
    32   19   20 1   
    33   19   21 ar  
    34   20   32 1   
    35   20   33 1   
    36   20   34 1   
    37   21   22 ar  
    38   22   23 1   
    39   23   35 1   
    40   23   36 1   
    41   23   38 1   
@<TRIPOS>SUBSTRUCTURE
     1 0TZ         1 TEMP              0 ****  ****    0 ROOT
