@<TRIPOS>MOLECULE
0TZ
   36    27     1     0     0
SMALL
bcc


@<TRIPOS>ATOM
      1 N8          4.0190    0.1670   -2.1700 n2        1 0TZ     -0.120500
      2 N9          4.7410   -0.8650   -2.7140 n2        1 0TZ     -0.120500
      3 C12         3.9270   -1.9360   -2.8190 c1        1 0TZ     -0.050000
      4 C13         2.6990   -1.5790   -2.3430 c1        1 0TZ     -0.276000
      5 C11         2.7640   -0.2750   -1.9440 c1        1 0TZ     -0.050000
      6 N7          1.6820    0.5030   -1.4560 n2        1 0TZ     -0.209000
      7 C6          1.2110    0.3120   -0.1310 c2        1 0TZ      0.160000
      8 N6          2.2030    0.3910    0.7730 n2        1 0TZ     -0.233000
      9 C5          1.6370    0.4470    2.0230 c1        1 0TZ      0.058000
     10 C10         2.1990    0.5360    3.3060 c1        1 0TZ     -0.129000
     11 C9          1.3870    0.5770    4.4080 c1        1 0TZ     -0.143000
     12 C8          0.0230    0.5300    4.2570 c1        1 0TZ     -0.143000
     13 C7         -0.5320    0.4420    2.9860 c1        1 0TZ     -0.014000
     14 N5          0.2870    0.4010    1.8750 n1        1 0TZ     -0.016000
     15 C4          0.0140    0.3180    0.5500 c1        1 0TZ     -0.207000
     16 C3         -1.3640    0.2950   -0.0750 c1        1 0TZ      0.202000
     17 N3         -1.9920    1.4470   -0.3550 n2        1 0TZ     -0.314000
     18 N1         -1.9360   -0.8750   -0.3950 n1        1 0TZ     -0.299000
     19 C1         -3.1360   -0.8930   -0.9940 c1        1 0TZ      0.107000
     20 C14        -3.7570   -2.2100   -1.4020 c3        1 0TZ     -0.167000
     21 N2         -3.7640    0.2590   -1.2740 n1        1 0TZ     -0.277000
     22 C2         -3.1920    1.4290   -0.9540 c1        1 0TZ      0.203000
     23 N4         -3.8670    2.6460   -1.2280 n2        1 0TZ     -0.346000
     24 H1          4.3320    1.0040   -1.9930 DU        1 0TZ      0.211333
     25 H2          4.1730   -2.8120   -3.1720 DU        1 0TZ      0.211333
     26 H3          1.9110   -2.1550   -2.2970 DU        1 0TZ      0.211333
     27 H4          1.2870    1.1230   -1.9950 hn        1 0TZ      0.285000
     28 H5          3.1680    0.5690    3.4130 ha        1 0TZ      0.168000
     29 H6          1.7780    0.6390    5.3000 ha        1 0TZ      0.150500
     30 H7         -0.5560    0.5590    5.0420 ha        1 0TZ      0.150500
     31 H8         -1.5020    0.4090    2.8790 ha        1 0TZ      0.199000
     32 H9         -4.0880   -2.6760   -0.6060 hc        1 0TZ      0.106000
     33 H10        -3.0840   -2.7640   -1.8490 hc        1 0TZ      0.106000
     34 H11        -4.5030   -2.0440   -2.0160 hc        1 0TZ      0.106000
     35 H12        -4.5610    2.6600   -1.8220 hn        1 0TZ      0.240000
     36 H13        -3.6080    3.4170   -0.8090 hn        1 0TZ      0.240000
@<TRIPOS>BOND
     1    1    2 1   
     2    1    5 1   
     3    2    3 1   
     4    3    4 1   
     5    4    5 1   
     6    6    7 1   
     7    6   27 1   
     8    7    8 1   
     9    7   15 1   
    10    8    9 1   
    11    9   10 1   
    12   10   28 1   
    13   11   12 1   
    14   11   29 1   
    15   12   30 1   
    16   13   14 1   
    17   13   31 1   
    18   16   17 1   
    19   16   18 1   
    20   17   22 1   
    21   19   20 1   
    22   19   21 1   
    23   20   32 1   
    24   20   33 1   
    25   20   34 1   
    26   23   35 1   
    27   23   36 1   
@<TRIPOS>SUBSTRUCTURE
     1 0TZ         1 TEMP              0 ****  ****    0 ROOT
