@<TRIPOS>MOLECULE
0U
   32    33     1     0     0
SMALL
bcc


@<TRIPOS>ATOM
      1 OP3         2.5030    2.2860   -1.5890 o         1 0U      -0.924167
      2 P           2.2790    0.9050   -2.1590 p5        1 0U       1.340900
      3 OP1         0.7960    0.6470   -2.3540 o         1 0U      -0.924167
      4 OP2         3.2320    0.3400   -3.1580 o         1 0U      -0.924167
      5 O5'         2.5670    0.0180   -0.6940 os        1 0U      -0.567200
      6 C5'         1.4910   -0.4990   -0.0310 c3        1 0U       0.226400
      7 C4'         0.9330    0.4510    1.0590 c3        1 0U       0.063100
      8 O4'        -0.2600   -0.1440    1.6240 os        1 0U      -0.437600
      9 C3'         0.5520    1.8510    0.5360 c3        1 0U       0.072100
     10 O3'         1.4290    2.8370    1.0280 oh        1 0U      -0.665800
     11 C2'        -0.8830    2.1050    1.0240 c3        1 0U       0.109100
     12 O2'        -0.9920    2.9210    2.1730 oh        1 0U      -0.619800
     13 C1'        -1.4000    0.6750    1.3880 c3        1 0U       0.271500
     14 N1         -2.2700    0.0990    0.3510 n         1 0U      -0.368000
     15 C2         -3.4890   -0.4840    0.7640 c         1 0U       0.797500
     16 O2         -3.8940   -0.4570    1.9550 o         1 0U      -0.702500
     17 N3         -4.3110   -1.0920   -0.2010 n         1 0U      -0.599500
     18 C4         -3.9530   -1.1830   -1.5610 c         1 0U       0.716700
     19 O4         -4.7600   -1.7470   -2.3320 o         1 0U      -0.693500
     20 C5         -2.6720   -0.5980   -1.9160 cc        1 0U      -0.371200
     21 C6         -1.8750   -0.0050   -0.9770 cd        1 0U       0.074600
     22 H5'         0.6580   -0.7670   -0.7390 h1        1 0U      -0.001300
     23 H5''        1.8130   -1.4380    0.5110 h1        1 0U      -0.001300
     24 H4'         1.6570    0.5340    1.9120 h1        1 0U       0.048700
     25 H3'         0.5880    1.8430   -0.6060 h1        1 0U       0.167700
     26 HO3'        2.0910    2.9620    0.3090 ho        1 0U       0.495000
     27 H2'        -1.5080    2.6000    0.2360 h1        1 0U       0.075700
     28 HO2'       -0.1060    3.0090    2.5490 ho        1 0U       0.423000
     29 H1'        -1.9800    0.6850    2.3590 h2        1 0U       0.103700
     30 H3         -5.1620   -1.4920    0.1190 hn        1 0U       0.320500
     31 H5         -2.3470   -0.6630   -2.9620 ha        1 0U       0.188000
     32 H6         -0.8600    0.4200   -1.2760 h4        1 0U       0.304000
@<TRIPOS>BOND
     1    1    2 1   
     2    2    3 1   
     3    2    4 1   
     4    2    5 1   
     5    5    6 1   
     6    6    7 1   
     7    6   22 1   
     8    6   23 1   
     9    7    8 1   
    10    7    9 1   
    11    7   24 1   
    12    8   13 1   
    13    9   10 1   
    14    9   11 1   
    15    9   25 1   
    16   10   26 1   
    17   11   12 1   
    18   11   13 1   
    19   11   27 1   
    20   12   28 1   
    21   13   14 1   
    22   13   29 1   
    23   14   15 1   
    24   14   21 1   
    25   15   16 2   
    26   15   17 1   
    27   17   18 1   
    28   17   30 1   
    29   18   19 2   
    30   18   20 1   
    31   20   21 2   
    32   20   31 1   
    33   21   32 1   
@<TRIPOS>SUBSTRUCTURE
     1 0U          1 TEMP              0 ****  ****    0 ROOT
