@<TRIPOS>MOLECULE
0U
   32    33     1     0     0
SMALL
bcc


@<TRIPOS>ATOM
      1 OP3        -4.9550    2.5010   -0.0550 o         1 0U      -0.921833
      2 P          -3.5610    2.2960    0.4500 p5        1 0U       1.325900
      3 OP1        -3.5850    2.1690    1.9610 o         1 0U      -0.921833
      4 OP2        -2.7120    3.4710    0.0600 o         1 0U      -0.921833
      5 O5'        -2.9470    0.9440   -0.1990 os        1 0U      -0.578200
      6 C5'        -1.5990    0.5340    0.1780 c3        1 0U       0.203400
      7 C4'        -1.5170   -1.0230    0.1980 c3        1 0U       0.062100
      8 O4'        -0.7140   -1.4230    1.1420 os        1 0U      -0.437600
      9 C3'        -0.8960   -1.5350   -1.0950 c3        1 0U       0.089100
     10 O3'        -1.6090   -2.5670   -1.5770 oh        1 0U      -0.670800
     11 C2'         0.5490   -2.0120   -0.7090 c3        1 0U       0.108100
     12 O2'         0.6220   -3.5200   -0.7100 oh        1 0U      -0.617800
     13 C1'         0.7430   -1.5620    0.4620 c3        1 0U       0.271500
     14 N1          1.3880   -0.2820    0.4020 n         1 0U      -0.368000
     15 C2          1.6000    0.5010    1.6530 c         1 0U       0.799500
     16 O2          1.0430    0.1630    2.6880 o         1 0U      -0.694500
     17 N3          2.4970    1.6460    1.6510 n         1 0U      -0.599500
     18 C4          3.0680    2.0980    0.4260 c         1 0U       0.718700
     19 O4          3.8390    3.0490    0.4220 o         1 0U      -0.685500
     20 C5          2.7380    1.4170   -0.8280 cc        1 0U      -0.370200
     21 C6          1.9570    0.1560   -0.7990 cd        1 0U       0.083600
     22 H5'        -0.9510    0.8890   -0.4780 h1        1 0U       0.018200
     23 H5''       -1.3900    0.8790    1.0550 h1        1 0U       0.018200
     24 H4'        -2.3960   -1.4040    0.3220 h1        1 0U       0.041700
     25 H3'        -0.8500   -0.8010   -1.7700 h1        1 0U       0.165700
     26 HO3'       -1.9300   -2.3550   -2.4170 ho        1 0U       0.497000
     27 H2'         1.2110   -1.6340   -1.3330 h1        1 0U       0.072700
     28 HO2'        1.3260   -3.7960   -1.2500 ho        1 0U       0.423000
     29 H1'         1.3070   -2.2070    0.9880 h2        1 0U       0.101700
     30 H3          2.7950    2.0050    2.4630 hn        1 0U       0.323500
     31 H5          3.1400    1.7310   -1.6820 ha        1 0U       0.185000
     32 H6          1.7900   -0.3300   -1.6210 h4        1 0U       0.276000
@<TRIPOS>BOND
     1    1    2 1   
     2    2    3 1   
     3    2    4 1   
     4    2    5 1   
     5    5    6 1   
     6    6    7 1   
     7    6   22 1   
     8    6   23 1   
     9    7    8 1   
    10    7    9 1   
    11    7   24 1   
    12    8   13 1   
    13    9   10 1   
    14    9   11 1   
    15    9   25 1   
    16   10   26 1   
    17   11   12 1   
    18   11   13 1   
    19   11   27 1   
    20   12   28 1   
    21   13   14 1   
    22   13   29 1   
    23   14   15 1   
    24   14   21 1   
    25   15   16 2   
    26   15   17 1   
    27   17   18 1   
    28   17   30 1   
    29   18   19 2   
    30   18   20 1   
    31   20   21 2   
    32   20   31 1   
    33   21   32 1   
@<TRIPOS>SUBSTRUCTURE
     1 0U          1 TEMP              0 ****  ****    0 ROOT
