@<TRIPOS>MOLECULE
0U0
   44    48     1     0     0
SMALL
bcc


@<TRIPOS>ATOM
      1 C15         0.0030    0.3770    0.0680 ca        1 0U0      0.230900
      2 N10         1.3220    0.2880   -0.1590 nb        1 0U0     -0.605000
      3 C16         2.0570   -0.3670    0.7610 ca        1 0U0      0.238900
      4 C17         1.4580   -0.9450    1.9090 ca        1 0U0      0.315900
      5 N11         0.1410   -0.8770    2.1600 nb        1 0U0     -0.633000
      6 C14        -0.6170   -0.1990    1.2370 ca        1 0U0      0.548900
      7 N7         -2.0080   -0.1080    1.3690 nh        1 0U0     -0.852600
      8 C9         -2.7140   -0.0580    2.5810 ca        1 0U0      0.694200
      9 C8         -4.1330   -0.2400    2.5270 ca        1 0U0     -0.395600
     10 N5         -2.0710    0.1670    3.7640 nb        1 0U0     -0.721000
     11 C10        -2.8490    0.1690    4.8900 ca        1 0U0      0.687300
     12 C18        -2.1300    0.3780    6.2030 c3        1 0U0     -0.135400
     13 N6         -4.2030    0.0060    4.9340 nb        1 0U0     -0.743000
     14 C7         -4.8370   -0.1870    3.7430 ca        1 0U0      0.576100
     15 C5         -6.2810   -0.3600    3.7680 cc        1 0U0     -0.269900
     16 N2         -7.1750    0.1360    2.7960 na        1 0U0      0.189200
     17 N1         -6.9330    0.8540    1.7110 nc        1 0U0     -0.459800
     18 C2         -7.9850    1.2220    0.9830 cd        1 0U0      0.345200
     19 C1         -9.3500    0.8970    1.2960 cd        1 0U0     -0.230300
     20 C4         -9.6130    0.1610    2.4190 cc        1 0U0     -0.058000
     21 C3         -8.5010   -0.2480    3.2320 cc        1 0U0     -0.038300
     22 N3         -8.4600   -0.9490    4.3960 nd        1 0U0     -0.295600
     23 C6         -7.1040   -1.0260    4.7470 cd        1 0U0      0.326600
     24 N4         -6.5900   -1.7480    5.8250 nh        1 0U0     -0.647700
     25 C11        -7.4740   -2.2370    6.8060 cc        1 0U0      0.502200
     26 C13        -8.6340   -3.0850    6.5620 cc        1 0U0     -0.260300
     27 C12        -9.1210   -3.3920    7.8380 cd        1 0U0     -0.150300
     28 N9         -8.2800   -2.7540    8.7520 na        1 0U0     -0.016600
     29 N8         -7.3070   -2.0600    8.1700 nd        1 0U0     -0.549800
     30 H1         -0.5870    0.9140   -0.6930 h4        1 0U0      0.029100
     31 H2          3.1420   -0.4310    0.5800 h4        1 0U0      0.035100
     32 H3          2.0590   -1.4900    2.6570 h4        1 0U0      0.035100
     33 H4         -2.5080    0.1890    0.5610 hn        1 0U0      0.451800
     34 H5         -4.6440   -0.4330    1.5770 ha        1 0U0      0.162000
     35 H6         -1.5000   -0.5200    6.4180 hc        1 0U0      0.064033
     36 H7         -2.8530    0.5240    7.0410 hc        1 0U0      0.064033
     37 H8         -1.4670    1.2760    6.1350 hc        1 0U0      0.064033
     38 H9         -7.7450    1.8190    0.0850 h4        1 0U0      0.043100
     39 H10       -10.1480    1.2480    0.6280 ha        1 0U0      0.157000
     40 H11       -10.6250   -0.1290    2.7340 ha        1 0U0      0.171000
     41 H12        -5.7400   -1.3620    6.1940 hn        1 0U0      0.453800
     42 H13        -9.0260   -3.3870    5.5980 ha        1 0U0      0.180000
     43 H14        -9.9710   -3.9950    8.1530 h4        1 0U0      0.175000
     44 H15        -8.3360   -2.7840    9.7420 hn        1 0U0      0.321700
@<TRIPOS>BOND
     1    1    2 ar  
     2    1    6 ar  
     3    1   30 1   
     4    2    3 ar  
     5    3    4 ar  
     6    3   31 1   
     7    4    5 ar  
     8    4   32 1   
     9    5    6 ar  
    10    6    7 1   
    11    7    8 1   
    12    7   33 1   
    13    8    9 ar  
    14    8   10 ar  
    15    9   14 ar  
    16    9   34 1   
    17   10   11 ar  
    18   11   12 1   
    19   11   13 ar  
    20   12   35 1   
    21   12   36 1   
    22   12   37 1   
    23   13   14 ar  
    24   14   15 1   
    25   15   16 1   
    26   15   23 2   
    27   16   17 1   
    28   16   21 1   
    29   17   18 2   
    30   18   19 1   
    31   18   38 1   
    32   19   20 2   
    33   19   39 1   
    34   20   21 1   
    35   20   40 1   
    36   21   22 2   
    37   22   23 1   
    38   23   24 1   
    39   24   25 1   
    40   24   41 1   
    41   25   26 1   
    42   25   29 2   
    43   26   27 2   
    44   26   42 1   
    45   27   28 1   
    46   27   43 1   
    47   28   29 1   
    48   28   44 1   
@<TRIPOS>SUBSTRUCTURE
     1 0U0         1 TEMP              0 ****  ****    0 ROOT
