@<TRIPOS>MOLECULE
0U0
   44    33     1     0     0
SMALL
bcc


@<TRIPOS>ATOM
      1 C15         5.2440    1.8100    0.6860 c1        1 0U0     -0.085000
      2 N10         6.1920    1.5520    1.6000 n1        1 0U0     -0.080333
      3 C16         5.8500    1.0670    2.8030 c1        1 0U0     -0.117667
      4 C17         4.5170    0.8320    3.1010 c1        1 0U0     -0.117667
      5 N11         3.5690    1.0900    2.1880 n1        1 0U0     -0.080333
      6 C14         3.9120    1.5750    0.9850 c1        1 0U0      0.048000
      7 N7          2.9090    1.8730    0.0290 n3        1 0U0     -0.217000
      8 C9          2.1600    0.8250   -0.5620 c1        1 0U0      0.134000
      9 C8          0.7970    0.8860   -0.5790 c1        1 0U0     -0.236000
     10 N5          2.7920   -0.2030   -1.1480 n1        1 0U0     -0.221000
     11 C10         2.0740   -1.1860   -1.7600 c1        1 0U0      0.057000
     12 C18         2.7890   -2.3180   -2.4620 c3        1 0U0     -0.158000
     13 N6          0.7130   -1.1260   -1.7770 n1        1 0U0     -0.177000
     14 C7          0.0790   -0.0990   -1.1920 c1        1 0U0      0.117000
     15 C5         -1.4310   -0.0610   -1.1640 c1        1 0U0     -0.021000
     16 N2         -2.2590    0.5270   -2.0620 n2        1 0U0     -0.038000
     17 N1         -2.0100    1.2240   -3.2390 n1        1 0U0     -0.080333
     18 C2         -3.0440    1.7210   -3.9670 c1        1 0U0     -0.117667
     19 C1         -4.3440    1.5340   -3.5390 c1        1 0U0     -0.109500
     20 C4         -4.5890    0.8500   -2.3850 c1        1 0U0     -0.109500
     21 C3         -3.5310    0.3420   -1.6410 c1        1 0U0     -0.032000
     22 N3         -3.4910   -0.3700   -0.4660 n1        1 0U0     -0.136000
     23 C6         -2.2050   -0.6170   -0.1740 c1        1 0U0      0.004000
     24 N4         -1.9510   -1.5110    0.8960 n2        1 0U0     -0.148000
     25 C11        -2.7330   -1.4440    2.0770 c2        1 0U0     -0.034000
     26 C13        -3.2590   -2.5070    2.7510 c1        1 0U0     -0.250000
     27 C12        -3.8810   -2.0310    3.8690 c1        1 0U0     -0.106000
     28 N9         -3.7400   -0.6890    3.8840 n2        1 0U0     -0.167000
     29 N8         -3.0260   -0.3240    2.7710 n2        1 0U0     -0.101000
     30 H1          5.4940    2.1630   -0.1900 ha        1 0U0      0.189000
     31 H2          6.5390    0.8790    3.4670 ha        1 0U0      0.174000
     32 H3          4.2670    0.4790    3.9770 ha        1 0U0      0.174000
     33 H4          2.7630    2.7370   -0.2250 hn        1 0U0      0.232000
     34 H5          0.3370    1.6330   -0.1530 ha        1 0U0      0.178000
     35 H6          3.5690   -2.5900   -1.9340 hc        1 0U0      0.102333
     36 H7          3.0830   -2.0190   -3.3480 hc        1 0U0      0.102333
     37 H8          2.1800   -3.0790   -2.5600 hc        1 0U0      0.102333
     38 H9         -2.8680    2.2110   -4.7930 ha        1 0U0      0.174000
     39 H10        -5.0860    1.8910   -4.0620 ha        1 0U0      0.162500
     40 H11        -5.5080    0.7170   -2.0820 ha        1 0U0      0.162500
     41 H12        -1.2660   -2.1100    0.8370 hn        1 0U0      0.203000
     42 H13        -3.2020   -3.4440    2.4810 DU        1 0U0      0.206667
     43 H14        -4.3460   -2.5660    4.5390 DU        1 0U0      0.206667
     44 H15        -4.0620   -0.1240    4.5230 DU        1 0U0      0.206667
@<TRIPOS>BOND
     1    1    6 1   
     2    1   30 1   
     3    2    3 1   
     4    3   31 1   
     5    4    5 1   
     6    4   32 1   
     7    6    7 1   
     8    7    8 1   
     9    7   33 1   
    10    8   10 1   
    11    9   14 1   
    12    9   34 1   
    13   11   12 1   
    14   11   13 1   
    15   12   35 1   
    16   12   36 1   
    17   12   37 1   
    18   15   16 1   
    19   15   23 1   
    20   16   21 1   
    21   17   18 1   
    22   18   38 1   
    23   19   20 1   
    24   19   39 1   
    25   20   40 1   
    26   22   23 1   
    27   24   25 1   
    28   24   41 1   
    29   25   26 1   
    30   25   29 1   
    31   26   27 1   
    32   27   28 1   
    33   28   29 1   
@<TRIPOS>SUBSTRUCTURE
     1 0U0         1 TEMP              0 ****  ****    0 ROOT
