@<TRIPOS>MOLECULE
0U0
   46    50     1     0     0
SMALL
bcc


@<TRIPOS>ATOM
      1 C15         0.4740    0.3620    1.7240 ca        1 0U0      0.369900
      2 N10         1.3570   -0.6050    1.3810 nb        1 0U0     -0.585000
      3 C16         0.9120   -1.6070    0.6110 ca        1 0U0      0.365900
      4 C17        -0.4520   -1.6680    0.1680 ca        1 0U0      0.323900
      5 N11        -1.3430   -0.7300    0.4970 nb        1 0U0     -0.620000
      6 C14        -0.8710    0.2990    1.2730 ca        1 0U0      0.299900
      7 N7         -1.8260    1.3710    1.6260 n4        1 0U0     -0.723400
      8 C9         -2.6700    0.9870    2.7880 ca        1 0U0      0.535200
      9 C8         -3.9420    0.4230    2.5650 ca        1 0U0     -0.305600
     10 N5         -2.1480    1.2140    4.0220 nb        1 0U0     -0.688000
     11 C10        -2.9340    0.8570    5.0850 ca        1 0U0      0.736300
     12 C18        -2.3810    1.0880    6.4700 c3        1 0U0     -0.154400
     13 N6         -4.1890    0.3180    4.9760 nb        1 0U0     -0.755000
     14 C7         -4.6990    0.1180    3.7330 ca        1 0U0      0.579100
     15 C5         -6.0470   -0.4220    3.6560 cc        1 0U0     -0.210900
     16 N2         -6.8960   -0.4300    2.5340 na        1 0U0      0.210200
     17 N1         -6.6850    0.0420    1.3060 nc        1 0U0     -0.502800
     18 C2         -7.6850   -0.0740    0.4360 cd        1 0U0      0.424200
     19 C1         -8.9660   -0.6690    0.7290 cd        1 0U0     -0.196300
     20 C4         -9.1980   -1.1520    1.9870 cc        1 0U0     -0.028000
     21 C3         -8.1370   -1.0340    2.9550 cc        1 0U0     -0.018300
     22 N3         -8.0930   -1.4000    4.2710 nd        1 0U0     -0.192600
     23 C6         -6.8320   -1.0240    4.7040 cd        1 0U0      0.142600
     24 N4         -6.3740   -1.2210    6.0740 n4        1 0U0     -0.529500
     25 C11        -7.2550   -2.0420    6.8830 cc        1 0U0      0.307200
     26 C13        -8.0480   -1.5750    8.0030 cc        1 0U0     -0.238300
     27 C12        -8.7190   -2.7280    8.4370 cd        1 0U0     -0.093300
     28 N9         -8.3200   -3.7710    7.5910 na        1 0U0      0.043400
     29 N8         -7.4670   -3.3950    6.6630 nd        1 0U0     -0.435800
     30 H1          0.8690    1.1770    2.3620 h4        1 0U0      0.072100
     31 H2          1.6430   -2.3920    0.3280 h4        1 0U0      0.088100
     32 H3         -0.8160   -2.5000   -0.4680 h4        1 0U0      0.081100
     33 H4         -1.2810    2.2200    1.8500 hn        1 0U0      0.486300
     34 H5         -4.3130    0.2110    1.5520 ha        1 0U0      0.209000
     35 H6         -1.3370    1.4890    6.4310 hc        1 0U0      0.093367
     36 H7         -3.0290    1.8260    7.0090 hc        1 0U0      0.093367
     37 H8         -2.3730    0.1240    7.0380 hc        1 0U0      0.093367
     38 H9         -7.4740    0.3290   -0.5770 h4        1 0U0      0.078100
     39 H10        -9.7260   -0.7180   -0.0680 ha        1 0U0      0.200000
     40 H11       -10.1470   -1.6210    2.3000 ha        1 0U0      0.208000
     41 H12        -6.3030   -0.2950    6.5270 hn        1 0U0      0.482300
     42 H13        -8.1100   -0.5710    8.4110 ha        1 0U0      0.197000
     43 H14        -9.4280   -2.8780    9.2580 h4        1 0U0      0.224000
     44 H15        -8.6170   -4.7280    7.6320 hn        1 0U0      0.365700
     45 H72        -2.4490    1.5670    0.8270 hn        1 0U0      0.486300
     46 H42        -5.4400   -1.6620    6.0420 hn        1 0U0      0.482300
@<TRIPOS>BOND
     1    1    2 ar  
     2    1    6 ar  
     3    1   30 1   
     4    2    3 ar  
     5    3    4 ar  
     6    3   31 1   
     7    4    5 ar  
     8    4   32 1   
     9    5    6 ar  
    10    6    7 1   
    11    7    8 1   
    12    7   33 1   
    13    7   45 1   
    14    8    9 ar  
    15    8   10 ar  
    16    9   14 ar  
    17    9   34 1   
    18   10   11 ar  
    19   11   12 1   
    20   11   13 ar  
    21   12   35 1   
    22   12   36 1   
    23   12   37 1   
    24   13   14 ar  
    25   14   15 1   
    26   15   16 1   
    27   15   23 2   
    28   16   17 1   
    29   16   21 1   
    30   17   18 2   
    31   18   19 1   
    32   18   38 1   
    33   19   20 2   
    34   19   39 1   
    35   20   21 1   
    36   20   40 1   
    37   21   22 2   
    38   22   23 1   
    39   23   24 1   
    40   24   25 1   
    41   24   41 1   
    42   24   46 1   
    43   25   26 1   
    44   25   29 2   
    45   26   27 2   
    46   26   42 1   
    47   27   28 1   
    48   27   43 1   
    49   28   29 1   
    50   28   44 1   
@<TRIPOS>SUBSTRUCTURE
     1 0U0         1 TEMP              0 ****  ****    0 ROOT
