@<TRIPOS>MOLECULE
0U0
   44    48     1     0     0
SMALL
bcc


@<TRIPOS>ATOM
      1 C15         0.0020    0.3710    0.0650 ca        1 0U0      0.230900
      2 N10         1.3220    0.2870   -0.1600 nb        1 0U0     -0.605000
      3 C16         2.0600   -0.3530    0.7680 ca        1 0U0      0.238900
      4 C17         1.4620   -0.9230    1.9210 ca        1 0U0      0.315900
      5 N11         0.1440   -0.8600    2.1700 nb        1 0U0     -0.633000
      6 C14        -0.6160   -0.1970    1.2400 ca        1 0U0      0.548900
      7 N7         -2.0080   -0.1120    1.3690 nu        1 0U0     -0.852600
      8 C9         -2.7160   -0.0550    2.5790 ca        1 0U0      0.694200
      9 C8         -4.1340   -0.2470    2.5250 ca        1 0U0     -0.395600
     10 N5         -2.0750    0.1850    3.7610 nb        1 0U0     -0.721000
     11 C10        -2.8560    0.1920    4.8860 ca        1 0U0      0.687300
     12 C18        -2.1390    0.4200    6.1970 c3        1 0U0     -0.135400
     13 N6         -4.2080    0.0210    4.9300 nb        1 0U0     -0.743000
     14 C7         -4.8400   -0.1870    3.7400 ca        1 0U0      0.576100
     15 C5         -6.2820   -0.3690    3.7640 cc        1 0U0     -0.269900
     16 N2         -7.1780    0.1130    2.7870 na        1 0U0      0.189200
     17 N1         -6.9390    0.8230    1.6960 nc        1 0U0     -0.459800
     18 C2         -7.9930    1.1780    0.9630 cd        1 0U0      0.345200
     19 C1         -9.3560    0.8460    1.2780 cd        1 0U0     -0.230300
     20 C4         -9.6150    0.1180    2.4070 cc        1 0U0     -0.058000
     21 C3         -8.5030   -0.2760    3.2250 cc        1 0U0     -0.038300
     22 N3         -8.4590   -0.9660    4.3950 nd        1 0U0     -0.295600
     23 C6         -7.1020   -1.0310    4.7480 cd        1 0U0      0.326600
     24 N4         -6.5850   -1.7400    5.8330 nu        1 0U0     -0.647700
     25 C11        -7.4670   -2.2260    6.8180 cc        1 0U0      0.502200
     26 C13        -8.6220   -3.0840    6.5800 cc        1 0U0     -0.260300
     27 C12        -9.1080   -3.3830    7.8570 cd        1 0U0     -0.150300
     28 N9         -8.2730   -2.7320    8.7670 na        1 0U0     -0.016600
     29 N8         -7.3040   -2.0370    8.1800 nd        1 0U0     -0.549800
     30 H1         -0.5900    0.8970   -0.7020 h4        1 0U0      0.029100
     31 H2          3.1450   -0.4130    0.5890 h4        1 0U0      0.035100
     32 H3          2.0660   -1.4570    2.6760 h4        1 0U0      0.035100
     33 H4         -2.5090    0.1720    0.5580 hn        1 0U0      0.451800
     34 H5         -4.6420   -0.4520    1.5770 ha        1 0U0      0.162000
     35 H6         -1.5030    1.3370    6.1280 hc        1 0U0      0.064033
     36 H7         -1.4830   -0.4600    6.4110 hc        1 0U0      0.064033
     37 H8         -2.8640    0.5450    7.0380 hc        1 0U0      0.064033
     38 H9         -7.7550    1.7680    0.0600 h4        1 0U0      0.043100
     39 H10       -10.1550    1.1860    0.6050 ha        1 0U0      0.157000
     40 H11       -10.6270   -0.1750    2.7220 ha        1 0U0      0.171000
     41 H12        -5.7380   -1.3460    6.2000 hn        1 0U0      0.453800
     42 H13        -9.0090   -3.3970    5.6170 ha        1 0U0      0.180000
     43 H14        -9.9540   -3.9890    8.1760 h4        1 0U0      0.175000
     44 H15        -8.3300   -2.7540    9.7570 hn        1 0U0      0.321700
@<TRIPOS>BOND
     1    1    2 ar  
     2    1    6 ar  
     3    1   30 1   
     4    2    3 ar  
     5    3    4 ar  
     6    3   31 1   
     7    4    5 ar  
     8    4   32 1   
     9    5    6 ar  
    10    6    7 1   
    11    7    8 1   
    12    7   33 1   
    13    8    9 ar  
    14    8   10 ar  
    15    9   14 ar  
    16    9   34 1   
    17   10   11 ar  
    18   11   12 1   
    19   11   13 ar  
    20   12   35 1   
    21   12   36 1   
    22   12   37 1   
    23   13   14 ar  
    24   14   15 1   
    25   15   16 1   
    26   15   23 2   
    27   16   17 1   
    28   16   21 1   
    29   17   18 2   
    30   18   19 1   
    31   18   38 1   
    32   19   20 2   
    33   19   39 1   
    34   20   21 1   
    35   20   40 1   
    36   21   22 2   
    37   22   23 1   
    38   23   24 1   
    39   24   25 1   
    40   24   41 1   
    41   25   26 1   
    42   25   29 2   
    43   26   27 2   
    44   26   42 1   
    45   27   28 1   
    46   27   43 1   
    47   28   29 1   
    48   28   44 1   
@<TRIPOS>SUBSTRUCTURE
     1 0U0         1 TEMP              0 ****  ****    0 ROOT
