@<TRIPOS>MOLECULE
0U0
   44    48     1     0     0
SMALL
bcc


@<TRIPOS>ATOM
      1 C15         5.9620    0.9790   -0.3880 ca        1 0U0      0.230900
      2 N10         7.2110    0.5090   -0.5220 nb        1 0U0     -0.605000
      3 C16         7.3460   -0.8130   -0.7470 ca        1 0U0      0.238900
      4 C17         6.2150   -1.6620   -0.8490 ca        1 0U0      0.315900
      5 N11         4.9530   -1.2200   -0.7240 nb        1 0U0     -0.633000
      6 C14         4.8030    0.1220   -0.4800 ca        1 0U0      0.548900
      7 N7          3.5330    0.7030   -0.3820 nh        1 0U0     -0.852600
      8 C9          2.3810    0.0750    0.1140 ca        1 0U0      0.694200
      9 C8          1.1250    0.7220   -0.1140 ca        1 0U0     -0.395600
     10 N5          2.4590   -1.1040    0.7990 nb        1 0U0     -0.721000
     11 C10         1.2730   -1.6460    1.2160 ca        1 0U0      0.687300
     12 C18         1.3590   -2.9700    1.9410 c3        1 0U0     -0.135400
     13 N6          0.0350   -1.1020    1.0450 nb        1 0U0     -0.743000
     14 C7         -0.0270    0.0900    0.3870 ca        1 0U0      0.576100
     15 C5         -1.3390    0.6890    0.1970 cc        1 0U0     -0.269900
     16 N2         -1.6160    2.0700    0.2520 na        1 0U0      0.189200
     17 N1         -0.8070    3.0880    0.4990 nc        1 0U0     -0.459800
     18 C2         -1.3520    4.3020    0.5260 cd        1 0U0      0.345200
     19 C1         -2.7470    4.5760    0.3090 cd        1 0U0     -0.230300
     20 C4         -3.5950    3.5320    0.0600 cc        1 0U0     -0.058000
     21 C3         -3.0410    2.2070    0.0300 cc        1 0U0     -0.038300
     22 N3         -3.6340    0.9990   -0.1630 nd        1 0U0     -0.295600
     23 C6         -2.6060    0.0490   -0.0590 cd        1 0U0      0.326600
     24 N4         -2.7470   -1.3200   -0.2920 nh        1 0U0     -0.647700
     25 C11        -4.0390   -1.8700   -0.3860 cc        1 0U0      0.502200
     26 C13        -5.0900   -1.4270   -1.2950 cc        1 0U0     -0.260300
     27 C12        -6.1340   -2.3370   -1.0970 cd        1 0U0     -0.150300
     28 N9         -5.6970   -3.2450   -0.1310 na        1 0U0     -0.016600
     29 N8         -4.4700   -2.9870    0.3100 nd        1 0U0     -0.549800
     30 H1          5.8650    2.0620   -0.2060 h4        1 0U0      0.029100
     31 H2          8.3720   -1.2000   -0.8470 h4        1 0U0      0.035100
     32 H3          6.3260   -2.7440   -1.0420 h4        1 0U0      0.035100
     33 H4          3.4980    1.6960   -0.4390 hn        1 0U0      0.451800
     34 H5          1.0650    1.6610   -0.6750 ha        1 0U0      0.162000
     35 H6          2.0930   -2.8950    2.7810 hc        1 0U0      0.064033
     36 H7          0.3660   -3.2710    2.3530 hc        1 0U0      0.064033
     37 H8          1.7090   -3.7550    1.2250 hc        1 0U0      0.064033
     38 H9         -0.6460    5.1250    0.7340 h4        1 0U0      0.043100
     39 H10        -3.0980    5.6160    0.3510 ha        1 0U0      0.157000
     40 H11        -4.6730    3.6520   -0.1130 ha        1 0U0      0.171000
     41 H12        -2.0990   -1.8810    0.2310 hn        1 0U0      0.453800
     42 H13        -5.0560   -0.5710   -1.9580 ha        1 0U0      0.180000
     43 H14        -7.1200   -2.4050   -1.5540 h4        1 0U0      0.175000
     44 H15        -6.1900   -4.0290    0.2240 hn        1 0U0      0.321700
@<TRIPOS>BOND
     1    1    2 ar  
     2    1    6 ar  
     3    1   30 1   
     4    2    3 ar  
     5    3    4 ar  
     6    3   31 1   
     7    4    5 ar  
     8    4   32 1   
     9    5    6 ar  
    10    6    7 1   
    11    7    8 1   
    12    7   33 1   
    13    8    9 ar  
    14    8   10 ar  
    15    9   14 ar  
    16    9   34 1   
    17   10   11 ar  
    18   11   12 1   
    19   11   13 ar  
    20   12   35 1   
    21   12   36 1   
    22   12   37 1   
    23   13   14 ar  
    24   14   15 1   
    25   15   16 1   
    26   15   23 2   
    27   16   17 1   
    28   16   21 1   
    29   17   18 2   
    30   18   19 1   
    31   18   38 1   
    32   19   20 2   
    33   19   39 1   
    34   20   21 1   
    35   20   40 1   
    36   21   22 2   
    37   22   23 1   
    38   23   24 1   
    39   24   25 1   
    40   24   41 1   
    41   25   26 1   
    42   25   29 2   
    43   26   27 2   
    44   26   42 1   
    45   27   28 1   
    46   27   43 1   
    47   28   29 1   
    48   28   44 1   
@<TRIPOS>SUBSTRUCTURE
     1 0U0         1 TEMP              0 ****  ****    0 ROOT
