@<TRIPOS>MOLECULE
0U3
   72    65     1     0     0
SMALL
bcc


@<TRIPOS>ATOM
      1 C1          1.3820   -2.0260   -3.4780 c1        1 0U3     -0.139000
      2 C2          0.7030   -2.1980   -4.6880 c1        1 0U3      0.038000
      3 C3         -0.6870   -2.0750   -4.7280 c1        1 0U3     -0.052000
      4 C4         -1.3960   -1.7820   -3.5570 c1        1 0U3     -0.112500
      5 C5         -0.7180   -1.6100   -2.3490 c1        1 0U3     -0.079000
      6 C6          0.6570   -1.7300   -2.3020 c1        1 0U3     -0.139000
      7 C7         -1.5280   -1.4480   -1.0290 c3        1 0U3      0.041000
      8 C8         -1.0080   -0.2160   -0.2440 c1        1 0U3     -0.079000
      9 C9         -1.3510   -2.7620   -0.1380 c3        1 0U3     -0.149000
     10 C10        -3.1150   -1.2380   -1.3850 c3        1 0U3     -0.149000
     11 C11        -3.8890   -0.9970   -0.1070 c3        1 0U3     -0.214500
     12 C12        -2.3810   -2.7510    1.0190 c3        1 0U3     -0.214500
     13 C13         0.1720   -0.4900    0.5030 c1        1 0U3     -0.112500
     14 C14         0.3660    0.1030    1.7590 c1        1 0U3     -0.097000
     15 C15        -0.5960    0.9630    2.2800 c1        1 0U3      0.076000
     16 C16         1.7080   -0.1090    2.5130 c2        1 0U3     -0.166000
     17 C17        -1.7740    1.2390    1.5390 c2        1 0U3     -0.196000
     18 C18        -1.9670    0.6390    0.2710 c1        1 0U3     -0.095000
     19 O19         1.4130   -2.5390   -5.8530 os        1 0U3     -0.197000
     20 O22         5.1330   -4.6540   -5.3240 oh        1 0U3     -0.250000
     21 C20         2.7530   -2.9880   -5.6080 c3        1 0U3     -0.034000
     22 C21         3.0800   -4.1390   -6.5410 c1        1 0U3      0.233000
     23 N23         4.1250   -5.0480   -6.2040 n2        1 0U3     -0.218000
     24 O24         2.5580   -4.2010   -7.6270 o         1 0U3     -0.302000
     25 C25         0.7430    4.8250    4.8070 c3        1 0U3     -0.047000
     26 C26        -0.4530    5.5770    5.4840 c3        1 0U3     -0.206333
     27 C27         2.0500    5.1860    5.5400 c3        1 0U3     -0.206333
     28 C28         0.8610    5.2540    3.3300 c3        1 0U3     -0.206333
     29 C29        -0.4780    2.9130    3.8030 c3        1 0U3     -0.061000
     30 O30        -0.4710    1.4420    3.6680 o         1 0U3     -0.229000
     31 C31         0.5070    3.3240    4.8830 c3        1 0U3      0.039000
     32 O32         1.7160    2.6480    4.6890 oh        1 0U3     -0.328000
     33 C33        -1.4410   -2.2240   -6.0620 c3        1 0U3     -0.185000
     34 H1          2.3900   -2.1140   -3.4430 ha        1 0U3      0.138500
     35 H2         -2.4110   -1.6920   -3.5850 ha        1 0U3      0.139000
     36 H3          1.1370   -1.6080   -1.4380 ha        1 0U3      0.138500
     37 H4         -1.4990   -3.5720   -0.7080 hc        1 0U3      0.083000
     38 H5         -0.4330   -2.7870    0.2390 hc        1 0U3      0.083000
     39 H6         -3.2210   -0.4550   -1.9890 hc        1 0U3      0.083000
     40 H7         -3.4540   -2.0270   -1.8230 hc        1 0U3      0.083000
     41 H8         -4.5760   -1.7120    0.0040 hc        1 0U3      0.076333
     42 H9         -4.3230   -0.1390   -0.1500 hc        1 0U3      0.076333
     43 H10        -3.2910   -1.0120    0.6320 hc        1 0U3      0.076333
     44 H11        -3.3030   -2.6820    0.6430 hc        1 0U3      0.076333
     45 H12        -2.2000   -1.9490    1.6300 hc        1 0U3      0.076333
     46 H13        -2.2990   -3.5860    1.5390 hc        1 0U3      0.076333
     47 H14         0.8800   -1.1210    0.1260 ha        1 0U3      0.139000
     48 H15         1.6020   -0.8000    3.1620 ha        1 0U3      0.084000
     49 H16         1.9760    0.7490    2.9750 ha        1 0U3      0.084000
     50 H17         2.3940   -0.3630    1.8810 ha        1 0U3      0.084000
     51 H18        -2.4580    1.8480    1.9060 ha        1 0U3      0.138000
     52 H19        -2.8050    0.8340   -0.2580 ha        1 0U3      0.140000
     53 H20         5.7270   -5.3160   -5.2340 ho        1 0U3      0.223000
     54 H21         3.3760   -2.2530   -5.7660 h1        1 0U3      0.123500
     55 H22         2.8330   -3.2940   -4.6630 h1        1 0U3      0.123500
     56 H23         4.1880   -5.8620   -6.6420 hn        1 0U3      0.213000
     57 H24        -0.6840    5.1240    6.3620 hc        1 0U3      0.078556
     58 H25        -1.2780    5.5570    4.8550 hc        1 0U3      0.078556
     59 H26        -0.1940    6.5130    5.6580 hc        1 0U3      0.078556
     60 H27         2.7980    4.9170    5.0110 hc        1 0U3      0.078556
     61 H28         2.0850    6.1750    5.6850 hc        1 0U3      0.078556
     62 H29         2.0780    4.7430    6.3770 hc        1 0U3      0.078556
     63 H30         1.5070    4.6220    2.8420 hc        1 0U3      0.078556
     64 H31         1.2110    6.1890    3.2830 hc        1 0U3      0.078556
     65 H32        -0.0280    5.2110    2.9010 hc        1 0U3      0.078556
     66 H33        -0.2200    3.3180    2.9600 h1        1 0U3      0.093500
     67 H34        -1.3540    3.2060    4.0420 h1        1 0U3      0.093500
     68 H35         0.1290    3.0870    5.7890 h1        1 0U3      0.086000
     69 H36         1.8690    2.1030    5.3820 ho        1 0U3      0.214000
     70 H37        -1.3320   -1.3700   -6.6130 hc        1 0U3      0.094667
     71 H38        -2.4130   -2.3810   -5.8780 hc        1 0U3      0.094667
     72 H39        -1.0750   -2.9870   -6.5620 hc        1 0U3      0.094667
@<TRIPOS>BOND
     1    1    6 1   
     2    1   34 1   
     3    2    3 1   
     4    2   19 1   
     5    3   33 1   
     6    4    5 1   
     7    4   35 1   
     8    5    7 1   
     9    6   36 1   
    10    7    8 1   
    11    7    9 1   
    12    7   10 1   
    13    8   13 1   
    14    9   12 1   
    15    9   37 1   
    16    9   38 1   
    17   10   11 1   
    18   10   39 1   
    19   10   40 1   
    20   11   41 1   
    21   11   42 1   
    22   11   43 1   
    23   12   44 1   
    24   12   45 1   
    25   12   46 1   
    26   13   47 1   
    27   14   15 1   
    28   15   17 1   
    29   16   48 1   
    30   16   49 1   
    31   16   50 1   
    32   17   18 1   
    33   17   51 1   
    34   18   52 1   
    35   19   21 1   
    36   20   23 1   
    37   20   53 1   
    38   21   22 1   
    39   21   54 1   
    40   21   55 1   
    41   22   24 1   
    42   23   56 1   
    43   25   26 1   
    44   25   27 1   
    45   25   28 1   
    46   25   31 1   
    47   26   57 1   
    48   26   58 1   
    49   26   59 1   
    50   27   60 1   
    51   27   61 1   
    52   27   62 1   
    53   28   63 1   
    54   28   64 1   
    55   28   65 1   
    56   29   30 1   
    57   29   31 1   
    58   29   66 1   
    59   29   67 1   
    60   31   32 1   
    61   31   68 1   
    62   32   69 1   
    63   33   70 1   
    64   33   71 1   
    65   33   72 1   
@<TRIPOS>SUBSTRUCTURE
     1 0U3         1 TEMP              0 ****  ****    0 ROOT
