@<TRIPOS>MOLECULE
0U3
   72    73     1     0     0
SMALL
bcc


@<TRIPOS>ATOM
      1 C1         -2.9650   -0.7820    0.3830 ca        1 0U3     -0.189000
      2 C2         -4.1400   -0.2230   -0.1290 ca        1 0U3      0.108100
      3 C3         -4.1960    1.1400   -0.4840 ca        1 0U3     -0.093300
      4 C4         -3.0460    1.9170   -0.3210 ca        1 0U3     -0.104000
      5 C5         -1.8550    1.3740    0.1760 ca        1 0U3     -0.083300
      6 C6         -1.8370    0.0190    0.5360 ca        1 0U3     -0.099000
      7 C7         -0.6340    2.2350    0.4020 c3        1 0U3      0.053600
      8 C8          0.6490    1.4660    0.1940 ca        1 0U3     -0.099300
      9 C9         -0.5860    3.4530   -0.5440 c3        1 0U3     -0.069900
     10 C10        -0.7530    2.8090    1.8300 c3        1 0U3     -0.069900
     11 C11        -0.6920    1.7810    2.9280 c3        1 0U3     -0.098600
     12 C12        -0.6040    3.1110   -2.0100 c3        1 0U3     -0.098600
     13 C13         0.7260    0.4860   -0.8100 ca        1 0U3     -0.102000
     14 C14         1.9030   -0.2110   -1.0690 ca        1 0U3     -0.097300
     15 C15         3.0490    0.0900   -0.2960 ca        1 0U3      0.122100
     16 C16         1.9690   -1.2470   -2.1230 c3        1 0U3     -0.044800
     17 C17         2.9960    1.0730    0.6940 ca        1 0U3     -0.205000
     18 C18         1.8020    1.7560    0.9270 ca        1 0U3     -0.100000
     19 O19        -5.2980   -0.9500   -0.3620 os        1 0U3     -0.341900
     20 O22        -9.0930   -1.9560    0.0680 oh        1 0U3     -0.434100
     21 C20        -5.4160   -2.1640    0.3830 c3        1 0U3      0.051400
     22 C21        -6.8750   -2.6000    0.3460 c         1 0U3      0.592100
     23 N23        -7.8750   -1.5940    0.4770 n         1 0U3     -0.342400
     24 O24        -7.1670   -3.8060    0.3660 o         1 0U3     -0.557100
     25 C25         7.6530   -1.3600    0.4540 c3        1 0U3     -0.086000
     26 C26         7.2040   -2.2150    1.6300 c3        1 0U3     -0.088767
     27 C27         8.1800   -0.0290    0.9630 c3        1 0U3     -0.088767
     28 C28         8.7690   -2.0920   -0.2820 c3        1 0U3     -0.088767
     29 C29         5.3760   -0.2730    0.0710 c3        1 0U3      0.097400
     30 O30         4.1710   -0.6580   -0.5990 os        1 0U3     -0.319900
     31 C31         6.4790   -1.1570   -0.5270 c3        1 0U3      0.142100
     32 O32         6.9140   -0.6300   -1.7670 oh        1 0U3     -0.582800
     33 C33        -5.4390    1.7270   -1.0310 c3        1 0U3     -0.042800
     34 H1         -2.9200   -1.8450    0.6590 ha        1 0U3      0.139000
     35 H2         -3.0990    2.9830   -0.5920 ha        1 0U3      0.140000
     36 H3         -0.9160   -0.4230    0.9500 ha        1 0U3      0.148000
     37 H4         -1.4430    4.1360   -0.3040 hc        1 0U3      0.041450
     38 H5          0.3560    4.0210   -0.3130 hc        1 0U3      0.041450
     39 H6          0.0530    3.5740    1.9830 hc        1 0U3      0.041450
     40 H7         -1.7340    3.3540    1.8940 hc        1 0U3      0.041450
     41 H8         -1.5520    1.0710    2.8530 hc        1 0U3      0.038867
     42 H9          0.2540    1.1890    2.8730 hc        1 0U3      0.038867
     43 H10        -0.7380    2.2850    3.9240 hc        1 0U3      0.038867
     44 H11        -1.5050    2.5040   -2.2710 hc        1 0U3      0.038867
     45 H12        -0.6200    4.0480   -2.6180 hc        1 0U3      0.038867
     46 H13         0.3050    2.5240   -2.2910 hc        1 0U3      0.038867
     47 H14        -0.1680    0.2670   -1.4190 ha        1 0U3      0.144000
     48 H15         2.8430   -1.0550   -2.7960 hc        1 0U3      0.048367
     49 H16         2.1130   -2.2550   -1.6580 hc        1 0U3      0.048367
     50 H17         1.0360   -1.2650   -2.7360 hc        1 0U3      0.048367
     51 H18         3.8820    1.3220    1.2940 ha        1 0U3      0.134000
     52 H19         1.7900    2.5340    1.7060 ha        1 0U3      0.134000
     53 H20        -9.4310   -2.5730    0.7480 ho        1 0U3      0.434000
     54 H21        -4.7870   -2.9580   -0.1010 h1        1 0U3      0.078200
     55 H22        -5.1040   -2.0150    1.4510 h1        1 0U3      0.078200
     56 H23        -7.6240   -0.7370   -0.0100 hn        1 0U3      0.314500
     57 H24         6.7020   -3.1440    1.2660 hc        1 0U3      0.038811
     58 H25         8.0890   -2.5070    2.2450 hc        1 0U3      0.038811
     59 H26         6.4930   -1.6580    2.2860 hc        1 0U3      0.038811
     60 H27         7.3870    0.5270    1.5180 hc        1 0U3      0.038811
     61 H28         9.0400   -0.1990    1.6550 hc        1 0U3      0.038811
     62 H29         8.5340    0.6040    0.1130 hc        1 0U3      0.038811
     63 H30         9.0910   -1.5060   -1.1770 hc        1 0U3      0.038811
     64 H31         9.6470   -2.2350    0.3920 hc        1 0U3      0.038811
     65 H32         8.4110   -3.0920   -0.6250 hc        1 0U3      0.038811
     66 H33         5.5890    0.8120   -0.1190 h1        1 0U3      0.045200
     67 H34         5.2600   -0.4530    1.1710 h1        1 0U3      0.045200
     68 H35         6.0450   -2.1620   -0.8040 h1        1 0U3      0.097700
     69 H36         7.3110    0.2330   -1.5950 ho        1 0U3      0.395000
     70 H37        -6.3320    1.3180   -0.4940 hc        1 0U3      0.046033
     71 H38        -5.4390    2.8400   -0.9340 hc        1 0U3      0.046033
     72 H39        -5.5400    1.4640   -2.1150 hc        1 0U3      0.046033
@<TRIPOS>BOND
     1    1    2 ar  
     2    1    6 ar  
     3    1   34 1   
     4    2    3 ar  
     5    2   19 1   
     6    3    4 ar  
     7    3   33 1   
     8    4    5 ar  
     9    4   35 1   
    10    5    6 ar  
    11    5    7 1   
    12    6   36 1   
    13    7    8 1   
    14    7    9 1   
    15    7   10 1   
    16    8   13 ar  
    17    8   18 ar  
    18    9   12 1   
    19    9   37 1   
    20    9   38 1   
    21   10   11 1   
    22   10   39 1   
    23   10   40 1   
    24   11   41 1   
    25   11   42 1   
    26   11   43 1   
    27   12   44 1   
    28   12   45 1   
    29   12   46 1   
    30   13   14 ar  
    31   13   47 1   
    32   14   15 ar  
    33   14   16 1   
    34   15   17 ar  
    35   15   30 1   
    36   16   48 1   
    37   16   49 1   
    38   16   50 1   
    39   17   18 ar  
    40   17   51 1   
    41   18   52 1   
    42   19   21 1   
    43   20   23 1   
    44   20   53 1   
    45   21   22 1   
    46   21   54 1   
    47   21   55 1   
    48   22   23 1   
    49   22   24 2   
    50   23   56 1   
    51   25   26 1   
    52   25   27 1   
    53   25   28 1   
    54   25   31 1   
    55   26   57 1   
    56   26   58 1   
    57   26   59 1   
    58   27   60 1   
    59   27   61 1   
    60   27   62 1   
    61   28   63 1   
    62   28   64 1   
    63   28   65 1   
    64   29   30 1   
    65   29   31 1   
    66   29   66 1   
    67   29   67 1   
    68   31   32 1   
    69   31   68 1   
    70   32   69 1   
    71   33   70 1   
    72   33   71 1   
    73   33   72 1   
@<TRIPOS>SUBSTRUCTURE
     1 0U3         1 TEMP              0 ****  ****    0 ROOT
