@<TRIPOS>MOLECULE
0U3
   73    74     1     0     0
SMALL
bcc


@<TRIPOS>ATOM
      1 C1          0.0900    1.4160   -0.4930 ca        1 0U3     -0.144000
      2 C2          1.3630    0.8630   -0.6700 ca        1 0U3     -0.003900
      3 C3          2.0190    0.1940    0.3770 ca        1 0U3     -0.123300
      4 C4          1.3390    0.0450    1.5940 ca        1 0U3     -0.112000
      5 C5          0.0460    0.5450    1.7790 ca        1 0U3     -0.023300
      6 C6         -0.5600    1.2510    0.7250 ca        1 0U3     -0.092000
      7 C7         -0.6600    0.4250    3.1110 c3        1 0U3      0.043600
      8 C8         -2.1560    0.3160    2.9440 ca        1 0U3     -0.119300
      9 C9         -0.1960   -0.8070    3.9150 c3        1 0U3     -0.074900
     10 C10        -0.2420    1.6600    3.9390 c3        1 0U3     -0.074900
     11 C11        -0.7030    2.9790    3.3800 c3        1 0U3     -0.099100
     12 C12        -0.3750   -2.1250    3.2120 c3        1 0U3     -0.099100
     13 C13        -2.6950   -0.4050    1.8660 ca        1 0U3     -0.113000
     14 C14        -4.0670   -0.5720    1.7030 ca        1 0U3     -0.102300
     15 C15        -4.9340   -0.0020    2.6660 ca        1 0U3      0.142100
     16 C16        -4.6240   -1.3260    0.5590 c3        1 0U3     -0.042800
     17 C17        -4.4150    0.7030    3.7550 ca        1 0U3     -0.194000
     18 C18        -3.0350    0.8520    3.8890 ca        1 0U3     -0.086000
     19 O19         2.0920    1.0630   -1.8520 os        1 0U3     -0.311900
     20 O22         1.9930   -2.9440   -2.5930 oh        1 0U3     -0.344300
     21 C20         1.4180    0.7150   -3.0360 c3        1 0U3      0.069400
     22 C21         1.4290   -0.7770   -3.3360 c         1 0U3      0.518100
     23 N23         2.0420   -1.6500   -2.2120 n4        1 0U3     -0.473300
     24 O24         1.0230   -1.3450   -4.3250 o         1 0U3     -0.343100
     25 C25        -9.6750    0.1730    3.9840 c3        1 0U3     -0.046000
     26 C26        -9.7370    1.6920    4.0480 c3        1 0U3     -0.089767
     27 C27        -9.4400   -0.3960    5.3740 c3        1 0U3     -0.089767
     28 C28       -10.9970   -0.3570    3.4410 c3        1 0U3     -0.089767
     29 C29        -7.1710    0.2190    3.4760 c3        1 0U3      0.086400
     30 O30        -6.2780   -0.1920    2.4280 os        1 0U3     -0.340900
     31 C31        -8.5550   -0.2610    3.0180 c3        1 0U3      0.150100
     32 O32        -8.5690   -1.6800    2.9500 oh        1 0U3     -0.591800
     33 C33         3.4210   -0.2740    0.2650 c3        1 0U3     -0.073800
     34 H1         -0.3850    2.0000   -1.2960 ha        1 0U3      0.153000
     35 H2          1.8620   -0.4620    2.4220 ha        1 0U3      0.160000
     36 H3         -1.5600    1.6950    0.8730 ha        1 0U3      0.176000
     37 H4         -0.7890   -0.8230    4.8700 hc        1 0U3      0.051950
     38 H5          0.8790   -0.6730    4.2050 hc        1 0U3      0.051950
     39 H6         -0.6290    1.5360    4.9850 hc        1 0U3      0.051950
     40 H7          0.8800    1.6610    4.0060 hc        1 0U3      0.051950
     41 H8         -0.2290    3.1820    2.3880 hc        1 0U3      0.039533
     42 H9         -0.4200    3.8050    4.0780 hc        1 0U3      0.039533
     43 H10        -1.8120    2.9950    3.2450 hc        1 0U3      0.039533
     44 H11        -1.4560   -2.3200    3.0020 hc        1 0U3      0.039533
     45 H12         0.0120   -2.9530    3.8540 hc        1 0U3      0.039533
     46 H13         0.1770   -2.1440    2.2410 hc        1 0U3      0.039533
     47 H14        -2.0160   -0.8660    1.1300 ha        1 0U3      0.119000
     48 H15        -5.1660   -0.6300   -0.1300 hc        1 0U3      0.047033
     49 H16        -5.3630   -2.0850    0.9240 hc        1 0U3      0.047033
     50 H17        -3.8230   -1.8510   -0.0150 hc        1 0U3      0.047033
     51 H18        -5.0800    1.1420    4.5130 ha        1 0U3      0.149000
     52 H19        -2.6530    1.4030    4.7630 ha        1 0U3      0.142000
     53 H20         2.3690   -3.5040   -1.8760 ho        1 0U3      0.465000
     54 H21         0.3400    1.0400   -3.0460 h1        1 0U3      0.138700
     55 H22         1.9960    1.2310   -3.8600 h1        1 0U3      0.138700
     56 H23         3.0190   -1.3340   -2.0570 hn        1 0U3      0.472800
     57 H24        -9.7690    2.1270    3.0210 hc        1 0U3      0.041144
     58 H25       -10.6590    2.0060    4.5950 hc        1 0U3      0.041144
     59 H26        -8.8540    2.1070    4.5880 hc        1 0U3      0.041144
     60 H27       -10.3250   -0.1920    6.0240 hc        1 0U3      0.041144
     61 H28        -8.5420    0.0690    5.8460 hc        1 0U3      0.041144
     62 H29        -9.2840   -1.5000    5.3110 hc        1 0U3      0.041144
     63 H30       -10.9520   -1.4690    3.3500 hc        1 0U3      0.041144
     64 H31       -11.8320   -0.0830    4.1280 hc        1 0U3      0.041144
     65 H32       -11.2030    0.0780    2.4340 hc        1 0U3      0.041144
     66 H33        -6.8760   -0.2720    4.4380 h1        1 0U3      0.058700
     67 H34        -7.1410    1.3340    3.5710 h1        1 0U3      0.058700
     68 H35        -8.7650    0.1630    1.9940 h1        1 0U3      0.047700
     69 H36        -7.8820   -1.9300    2.3190 ho        1 0U3      0.409000
     70 H37         3.9040    0.0830   -0.6790 hc        1 0U3      0.055367
     71 H38         4.0240    0.1320    1.1190 hc        1 0U3      0.055367
     72 H39         3.4770   -1.3900    0.3180 hc        1 0U3      0.055367
     73 H232        1.5050   -1.4850   -1.3360 hn        1 0U3      0.472800
@<TRIPOS>BOND
     1    1    2 ar  
     2    1    6 ar  
     3    1   34 1   
     4    2    3 ar  
     5    2   19 1   
     6    3    4 ar  
     7    3   33 1   
     8    4    5 ar  
     9    4   35 1   
    10    5    6 ar  
    11    5    7 1   
    12    6   36 1   
    13    7    8 1   
    14    7    9 1   
    15    7   10 1   
    16    8   13 ar  
    17    8   18 ar  
    18    9   12 1   
    19    9   37 1   
    20    9   38 1   
    21   10   11 1   
    22   10   39 1   
    23   10   40 1   
    24   11   41 1   
    25   11   42 1   
    26   11   43 1   
    27   12   44 1   
    28   12   45 1   
    29   12   46 1   
    30   13   14 ar  
    31   13   47 1   
    32   14   15 ar  
    33   14   16 1   
    34   15   17 ar  
    35   15   30 1   
    36   16   48 1   
    37   16   49 1   
    38   16   50 1   
    39   17   18 ar  
    40   17   51 1   
    41   18   52 1   
    42   19   21 1   
    43   20   23 1   
    44   20   53 1   
    45   21   22 1   
    46   21   54 1   
    47   21   55 1   
    48   22   23 1   
    49   22   24 2   
    50   23   56 1   
    51   23   73 1   
    52   25   26 1   
    53   25   27 1   
    54   25   28 1   
    55   25   31 1   
    56   26   57 1   
    57   26   58 1   
    58   26   59 1   
    59   27   60 1   
    60   27   61 1   
    61   27   62 1   
    62   28   63 1   
    63   28   64 1   
    64   28   65 1   
    65   29   30 1   
    66   29   31 1   
    67   29   66 1   
    68   29   67 1   
    69   31   32 1   
    70   31   68 1   
    71   32   69 1   
    72   33   70 1   
    73   33   71 1   
    74   33   72 1   
@<TRIPOS>SUBSTRUCTURE
     1 0U3         1 TEMP              0 ****  ****    0 ROOT
