@<TRIPOS>MOLECULE
0U3
   73    74     1     0     0
SMALL
bcc


@<TRIPOS>ATOM
      1 C1          0.2310    1.1310   -0.1880 ca        1 0U3     -0.150000
      2 C2          1.4970    0.5340   -0.2510 ca        1 0U3      0.010100
      3 C3          2.0610   -0.1110    0.8580 ca        1 0U3     -0.048300
      4 C4          1.3070   -0.1630    2.0400 ca        1 0U3     -0.120000
      5 C5          0.0290    0.3980    2.1220 ca        1 0U3     -0.025300
      6 C6         -0.4930    1.0580    0.9950 ca        1 0U3     -0.109000
      7 C7         -0.7550    0.3840    3.4140 c3        1 0U3      0.043600
      8 C8         -2.2420    0.3080    3.1670 ca        1 0U3     -0.110300
      9 C9         -0.3810   -0.8080    4.3200 c3        1 0U3     -0.072900
     10 C10        -0.3450    1.6550    4.1900 c3        1 0U3     -0.072900
     11 C11        -0.7260    2.9500    3.5250 c3        1 0U3     -0.100100
     12 C12        -0.5720   -2.1630    3.6930 c3        1 0U3     -0.100100
     13 C13        -2.7390   -0.4690    2.1080 ca        1 0U3     -0.109000
     14 C14        -4.1050   -0.6060    1.8740 ca        1 0U3     -0.105300
     15 C15        -5.0070    0.0550    2.7400 ca        1 0U3      0.136100
     16 C16        -4.6170   -1.4220    0.7510 c3        1 0U3     -0.040800
     17 C17        -4.5310    0.8170    3.8100 ca        1 0U3     -0.194000
     18 C18        -3.1570    0.9340    4.0190 ca        1 0U3     -0.089000
     19 O19         2.2940    0.6920   -1.3960 os        1 0U3     -0.282900
     20 O22         2.7390   -0.6830   -5.2080 oh        1 0U3     -0.355300
     21 C20         1.7200    0.2440   -2.5950 c3        1 0U3      0.093400
     22 C21         2.2260   -1.1620   -2.8850 c         1 0U3      0.507100
     23 N23         2.1480   -1.5810   -4.3900 n4        1 0U3     -0.487300
     24 O24         2.6940   -2.0280   -2.1820 o         1 0U3     -0.359100
     25 C25        -9.8020    0.3440    3.8150 c3        1 0U3     -0.046000
     26 C26        -9.8490    1.8640    3.8390 c3        1 0U3     -0.089433
     27 C27        -9.6400   -0.1930    5.2280 c3        1 0U3     -0.089433
     28 C28       -11.1040   -0.1840    3.2230 c3        1 0U3     -0.089433
     29 C29        -7.2780    0.3580    3.4170 c3        1 0U3      0.087400
     30 O30        -6.3410   -0.1040    2.4300 os        1 0U3     -0.343900
     31 C31        -8.6440   -0.1260    2.9130 c3        1 0U3      0.150100
     32 O32        -8.6690   -1.5460    2.8830 oh        1 0U3     -0.593800
     33 C33         3.4240   -0.6860    0.8190 c3        1 0U3     -0.055800
     34 H1         -0.1740    1.6730   -1.0540 ha        1 0U3      0.137000
     35 H2          1.7550   -0.6590    2.9170 ha        1 0U3      0.157000
     36 H3         -1.4850    1.5360    1.0570 ha        1 0U3      0.165000
     37 H4          0.6830   -0.6930    4.6570 hc        1 0U3      0.049700
     38 H5         -1.0220   -0.7410    5.2410 hc        1 0U3      0.049700
     39 H6          0.7700    1.6260    4.3240 hc        1 0U3      0.049700
     40 H7         -0.7960    1.6090    5.2170 hc        1 0U3      0.049700
     41 H8         -0.4550    3.8090    4.1870 hc        1 0U3      0.040200
     42 H9         -0.1870    3.0740    2.5540 hc        1 0U3      0.040200
     43 H10        -1.8240    2.9920    3.3230 hc        1 0U3      0.040200
     44 H11         0.0150   -2.2570    2.7470 hc        1 0U3      0.040200
     45 H12        -0.2330   -2.9580    4.4000 hc        1 0U3      0.040200
     46 H13        -1.6500   -2.3410    3.4540 hc        1 0U3      0.040200
     47 H14        -2.0320   -0.9980    1.4490 ha        1 0U3      0.128000
     48 H15        -5.4330   -2.1000    1.1110 hc        1 0U3      0.044700
     49 H16        -3.8080   -2.0420    0.2960 hc        1 0U3      0.044700
     50 H17        -5.0500   -0.7570   -0.0380 hc        1 0U3      0.044700
     51 H18        -5.2250    1.3250    4.4950 ha        1 0U3      0.146000
     52 H19        -2.8090    1.5300    4.8770 ha        1 0U3      0.141000
     53 H20         3.7030   -0.6610   -5.0080 ho        1 0U3      0.475000
     54 H21         2.0950    0.9480   -3.3940 h1        1 0U3      0.119200
     55 H22         0.5960    0.2110   -2.5740 h1        1 0U3      0.119200
     56 H23         1.1530   -1.6000   -4.6870 hn        1 0U3      0.472800
     57 H24        -9.8280    2.2750    2.8010 hc        1 0U3      0.040811
     58 H25       -10.7900    2.2030    4.3350 hc        1 0U3      0.040811
     59 H26        -8.9850    2.2830    4.4090 hc        1 0U3      0.040811
     60 H27       -10.5520    0.0360    5.8300 hc        1 0U3      0.040811
     61 H28        -8.7600    0.2740    5.7310 hc        1 0U3      0.040811
     62 H29        -9.4940   -1.3000    5.1990 hc        1 0U3      0.040811
     63 H30       -11.2590    0.2280    2.1980 hc        1 0U3      0.040811
     64 H31       -11.9670    0.1160    3.8640 hc        1 0U3      0.040811
     65 H32       -11.0680   -1.2990    3.1610 hc        1 0U3      0.040811
     66 H33        -7.2390    1.4750    3.4680 h1        1 0U3      0.057200
     67 H34        -7.0350   -0.0950    4.4120 h1        1 0U3      0.057200
     68 H35        -8.8050    0.2690    1.8690 h1        1 0U3      0.046700
     69 H36        -7.9360   -1.8210    2.3170 ho        1 0U3      0.410000
     70 H37         4.1740    0.1010    1.0890 hc        1 0U3      0.054367
     71 H38         3.6670   -1.0620   -0.2060 hc        1 0U3      0.054367
     72 H39         3.5250   -1.5320    1.5430 hc        1 0U3      0.054367
     73 H232        2.5470   -2.5300   -4.5260 hn        1 0U3      0.472800
@<TRIPOS>BOND
     1    1    2 ar  
     2    1    6 ar  
     3    1   34 1   
     4    2    3 ar  
     5    2   19 1   
     6    3    4 ar  
     7    3   33 1   
     8    4    5 ar  
     9    4   35 1   
    10    5    6 ar  
    11    5    7 1   
    12    6   36 1   
    13    7    8 1   
    14    7    9 1   
    15    7   10 1   
    16    8   13 ar  
    17    8   18 ar  
    18    9   12 1   
    19    9   37 1   
    20    9   38 1   
    21   10   11 1   
    22   10   39 1   
    23   10   40 1   
    24   11   41 1   
    25   11   42 1   
    26   11   43 1   
    27   12   44 1   
    28   12   45 1   
    29   12   46 1   
    30   13   14 ar  
    31   13   47 1   
    32   14   15 ar  
    33   14   16 1   
    34   15   17 ar  
    35   15   30 1   
    36   16   48 1   
    37   16   49 1   
    38   16   50 1   
    39   17   18 ar  
    40   17   51 1   
    41   18   52 1   
    42   19   21 1   
    43   20   23 1   
    44   20   53 1   
    45   21   22 1   
    46   21   54 1   
    47   21   55 1   
    48   22   23 1   
    49   22   24 2   
    50   23   56 1   
    51   23   73 1   
    52   25   26 1   
    53   25   27 1   
    54   25   28 1   
    55   25   31 1   
    56   26   57 1   
    57   26   58 1   
    58   26   59 1   
    59   27   60 1   
    60   27   61 1   
    61   27   62 1   
    62   28   63 1   
    63   28   64 1   
    64   28   65 1   
    65   29   30 1   
    66   29   31 1   
    67   29   66 1   
    68   29   67 1   
    69   31   32 1   
    70   31   68 1   
    71   32   69 1   
    72   33   70 1   
    73   33   71 1   
    74   33   72 1   
@<TRIPOS>SUBSTRUCTURE
     1 0U3         1 TEMP              0 ****  ****    0 ROOT
