@<TRIPOS>MOLECULE
0U3
   73    74     1     0     0
SMALL
bcc


@<TRIPOS>ATOM
      1 C1          0.3540    1.1900   -0.0950 ca        1 0U3     -0.151000
      2 C2          1.6150    0.5820   -0.1500 ca        1 0U3      0.007100
      3 C3          2.1500   -0.0990    0.9530 ca        1 0U3     -0.050300
      4 C4          1.3700   -0.1780    2.1160 ca        1 0U3     -0.121000
      5 C5          0.0960    0.3920    2.1880 ca        1 0U3     -0.027300
      6 C6         -0.3950    1.0910    1.0690 ca        1 0U3     -0.111000
      7 C7         -0.7160    0.3500    3.4620 c3        1 0U3      0.043600
      8 C8         -2.1980    0.2960    3.1830 ca        1 0U3     -0.109300
      9 C9         -0.3730   -0.8710    4.3410 c3        1 0U3     -0.072900
     10 C10        -0.3100    1.5940    4.2830 c3        1 0U3     -0.072900
     11 C11        -0.6650    2.9120    3.6480 c3        1 0U3     -0.100100
     12 C12        -0.5630   -2.2060    3.6710 c3        1 0U3     -0.100100
     13 C13        -2.6810   -0.4430    2.0910 ca        1 0U3     -0.108000
     14 C14        -4.0430   -0.5600    1.8260 ca        1 0U3     -0.106300
     15 C15        -4.9560    0.0830    2.6930 ca        1 0U3      0.136100
     16 C16        -4.5400   -1.3370    0.6690 c3        1 0U3     -0.039800
     17 C17        -4.4950    0.8080    3.7950 ca        1 0U3     -0.194000
     18 C18        -3.1250    0.9050    4.0350 ca        1 0U3     -0.089000
     19 O19         2.4380    0.7620   -1.2730 os        1 0U3     -0.278900
     20 O22         1.6490   -0.6930   -5.0110 oh        1 0U3     -0.362300
     21 C20         1.8860    0.3400   -2.4910 c3        1 0U3      0.102400
     22 C21         2.3330   -1.0840   -2.7720 c         1 0U3      0.552100
     23 N23         1.7480   -1.6940   -4.1120 ny        1 0U3     -0.492300
     24 O24         3.0690   -1.8590   -2.2110 o         1 0U3     -0.364100
     25 C25        -9.7680    0.3650    3.6920 c3        1 0U3     -0.046000
     26 C26        -9.8080    1.8830    3.7700 c3        1 0U3     -0.089433
     27 C27        -9.6330   -0.2240    5.0860 c3        1 0U3     -0.089433
     28 C28       -11.0620   -0.1360    3.0590 c3        1 0U3     -0.089433
     29 C29        -7.2370    0.3810    3.3370 c3        1 0U3      0.087400
     30 O30        -6.2850   -0.0530    2.3520 os        1 0U3     -0.344900
     31 C31        -8.5960   -0.0780    2.7930 c3        1 0U3      0.150100
     32 O32        -8.6270   -1.4960    2.7110 oh        1 0U3     -0.593800
     33 C33         3.5100   -0.6810    0.9290 c3        1 0U3     -0.059800
     34 H1         -0.0260    1.7650   -0.9520 ha        1 0U3      0.138000
     35 H2          1.7950   -0.7020    2.9880 ha        1 0U3      0.157000
     36 H3         -1.3840    1.5780    1.1250 ha        1 0U3      0.164000
     37 H4          0.6850   -0.7760    4.7030 hc        1 0U3      0.049950
     38 H5         -1.0320   -0.8240    5.2500 hc        1 0U3      0.049950
     39 H6          0.8020    1.5500    4.4380 hc        1 0U3      0.049950
     40 H7         -0.7820    1.5230    5.2980 hc        1 0U3      0.049950
     41 H8         -1.7590    2.9700    3.4250 hc        1 0U3      0.039867
     42 H9         -0.4000    3.7480    4.3400 hc        1 0U3      0.039867
     43 H10        -0.1060    3.0570    2.6920 hc        1 0U3      0.039867
     44 H11        -0.2480   -3.0250    4.3630 hc        1 0U3      0.039867
     45 H12        -1.6370   -2.3650    3.4040 hc        1 0U3      0.039867
     46 H13         0.0440   -2.2790    2.7370 hc        1 0U3      0.039867
     47 H14        -1.9650   -0.9590    1.4310 ha        1 0U3      0.127000
     48 H15        -3.7280   -1.9540    0.2140 hc        1 0U3      0.044033
     49 H16        -4.9470   -0.6440   -0.1100 hc        1 0U3      0.044033
     50 H17        -5.3720   -2.0140    0.9900 hc        1 0U3      0.044033
     51 H18        -5.1980    1.3030    4.4800 ha        1 0U3      0.147000
     52 H19        -2.7880    1.4730    4.9160 ha        1 0U3      0.142000
     53 H20         1.4050   -1.0640   -5.8890 ho        1 0U3      0.472000
     54 H21         2.3460    1.0010   -3.2850 h1        1 0U3      0.121700
     55 H22         0.7650    0.3920   -2.5220 h1        1 0U3      0.121700
     56 H23         0.8180   -2.0980   -3.9150 hn        1 0U3      0.456800
     57 H24        -8.9530    2.2760    4.3690 hc        1 0U3      0.040922
     58 H25        -9.7680    2.3310    2.7480 hc        1 0U3      0.040922
     59 H26       -10.7560    2.2080    4.2630 hc        1 0U3      0.040922
     60 H27        -9.4910   -1.3300    5.0190 hc        1 0U3      0.040922
     61 H28       -10.5540   -0.0130    5.6810 hc        1 0U3      0.040922
     62 H29        -8.7600    0.2200    5.6210 hc        1 0U3      0.040922
     63 H30       -11.0300   -1.2470    2.9570 hc        1 0U3      0.040922
     64 H31       -11.1970    0.3150    2.0460 hc        1 0U3      0.040922
     65 H32       -11.9340    0.1450    3.6950 hc        1 0U3      0.040922
     66 H33        -7.1940    1.4960    3.4250 h1        1 0U3      0.058200
     67 H34        -7.0140   -0.1050    4.3210 h1        1 0U3      0.058200
     68 H35        -8.7390    0.3550    1.7610 h1        1 0U3      0.045700
     69 H36        -7.8840   -1.7540    2.1500 ho        1 0U3      0.409000
     70 H37         4.2500    0.0770    1.2930 hc        1 0U3      0.056700
     71 H38         3.8000   -0.9790   -0.1090 hc        1 0U3      0.056700
     72 H39         3.5740   -1.5790    1.5920 hc        1 0U3      0.056700
     73 H232        2.3770   -2.4470   -4.4450 hn        1 0U3      0.456800
@<TRIPOS>BOND
     1    1    2 ar  
     2    1    6 ar  
     3    1   34 1   
     4    2    3 ar  
     5    2   19 1   
     6    3    4 ar  
     7    3   33 1   
     8    4    5 ar  
     9    4   35 1   
    10    5    6 ar  
    11    5    7 1   
    12    6   36 1   
    13    7    8 1   
    14    7    9 1   
    15    7   10 1   
    16    8   13 ar  
    17    8   18 ar  
    18    9   12 1   
    19    9   37 1   
    20    9   38 1   
    21   10   11 1   
    22   10   39 1   
    23   10   40 1   
    24   11   41 1   
    25   11   42 1   
    26   11   43 1   
    27   12   44 1   
    28   12   45 1   
    29   12   46 1   
    30   13   14 ar  
    31   13   47 1   
    32   14   15 ar  
    33   14   16 1   
    34   15   17 ar  
    35   15   30 1   
    36   16   48 1   
    37   16   49 1   
    38   16   50 1   
    39   17   18 ar  
    40   17   51 1   
    41   18   52 1   
    42   19   21 1   
    43   20   23 1   
    44   20   53 1   
    45   21   22 1   
    46   21   54 1   
    47   21   55 1   
    48   22   23 1   
    49   22   24 2   
    50   23   56 1   
    51   23   73 1   
    52   25   26 1   
    53   25   27 1   
    54   25   28 1   
    55   25   31 1   
    56   26   57 1   
    57   26   58 1   
    58   26   59 1   
    59   27   60 1   
    60   27   61 1   
    61   27   62 1   
    62   28   63 1   
    63   28   64 1   
    64   28   65 1   
    65   29   30 1   
    66   29   31 1   
    67   29   66 1   
    68   29   67 1   
    69   31   32 1   
    70   31   68 1   
    71   32   69 1   
    72   33   70 1   
    73   33   71 1   
    74   33   72 1   
@<TRIPOS>SUBSTRUCTURE
     1 0U3         1 TEMP              0 ****  ****    0 ROOT
