@<TRIPOS>MOLECULE
0U5
   76    79     1     0     0
SMALL
bcc


@<TRIPOS>ATOM
      1 N01        -0.3450   -1.5160    0.4830 nh        1 0U5     -0.910500
      2 C02         1.0050   -1.1920    0.3350 ca        1 0U5      0.705200
      3 C03         1.6880   -0.4060    1.3280 ca        1 0U5     -0.417900
      4 C04         1.0120    0.0750    2.5580 c3        1 0U5      0.030200
      5 C05         0.4790    1.4680    2.4680 ca        1 0U5     -0.049300
      6 C06         0.6300    2.3350    3.5580 ca        1 0U5     -0.184000
      7 C07         0.0830    3.6200    3.5100 ca        1 0U5      0.099100
      8 O08         0.2030    4.5500    4.5270 os        1 0U5     -0.326900
      9 C09         0.7900    4.0850    5.7370 c3        1 0U5      0.112700
     10 C10        -0.6290    4.0500    2.3670 ca        1 0U5      0.082100
     11 O11        -1.2820    5.2720    2.3230 os        1 0U5     -0.335900
     12 C12        -0.4120    6.4040    2.3550 c3        1 0U5      0.114700
     13 C13        -0.7880    3.1730    1.2790 ca        1 0U5     -0.066800
     14 C14        -1.5410    3.6060    0.1100 ce        1 0U5     -0.032200
     15 C15        -2.4760    2.9150   -0.5490 cf        1 0U5     -0.230200
     16 C16        -2.9220    1.5310   -0.2410 c         1 0U5      0.709300
     17 N17        -4.2180    1.4040    0.3280 n         1 0U5     -0.245800
     18 N18        -4.7090    0.1790    0.5790 n2        1 0U5     -0.412300
     19 C19        -5.8040    0.0340    1.2770 ce        1 0U5      0.368800
     20 C20        -5.0200    2.6370    0.5350 c3        1 0U5      0.172200
     21 C21        -5.6190    3.1350   -0.7550 c2        1 0U5     -0.205200
     22 C22        -5.5450    4.3980   -1.2010 c2        1 0U5     -0.096400
     23 C23        -6.2070    4.7940   -2.4710 c3        1 0U5     -0.069400
     24 C24        -6.1490    2.4380    1.5260 ca        1 0U5     -0.076300
     25 C25        -6.5660    1.1360    1.8570 ca        1 0U5     -0.151900
     26 C26        -7.6300    0.9390    2.7390 ca        1 0U5     -0.101000
     27 C27        -8.2730    2.0420    3.2990 ca        1 0U5     -0.128000
     28 C28        -7.8500    3.3340    2.9860 ca        1 0U5     -0.119000
     29 C29        -6.7900    3.5360    2.1020 ca        1 0U5     -0.114000
     30 O30        -2.2100    0.5430   -0.4860 o         1 0U5     -0.579100
     31 C31        -0.2100    1.9000    1.3350 ca        1 0U5     -0.129000
     32 C32         3.0610   -0.1530    1.1030 ca        1 0U5      0.509600
     33 N33         3.7410   -0.6570    0.0500 nb        1 0U5     -0.787000
     34 C34         3.0220   -1.4580   -0.8250 ca        1 0U5      0.892900
     35 N35         3.7370   -2.1030   -1.8470 nh        1 0U5     -0.922500
     36 N36         1.6670   -1.7040   -0.7490 nb        1 0U5     -0.816000
     37 C37        -4.8330    5.4920   -0.4960 c3        1 0U5     -0.069400
     38 C38         3.8380    0.7220    2.0530 c3        1 0U5     -0.138700
     39 C39         4.5720   -0.1130    3.0840 c3        1 0U5     -0.078400
     40 C40         5.3300    0.7600    4.0510 c3        1 0U5     -0.093100
     41 HN01       -0.7960   -1.9000   -0.3210 hn        1 0U5      0.419800
     42 HN0A       -0.8910   -0.8090    0.9310 hn        1 0U5      0.419800
     43 H04         0.1580   -0.6030    2.8370 hc        1 0U5      0.060200
     44 H04A        1.7380    0.0080    3.4180 hc        1 0U5      0.060200
     45 H06         1.1780    1.9930    4.4480 ha        1 0U5      0.141000
     46 H09         0.7090    4.9690    6.4190 h1        1 0U5      0.046033
     47 H09A        0.2210    3.2160    6.1480 h1        1 0U5      0.046033
     48 H09B        1.8610    3.8110    5.5740 h1        1 0U5      0.046033
     49 H12         0.1800    6.4230    3.3020 h1        1 0U5      0.044700
     50 H12A       -1.1140    7.2740    2.3080 h1        1 0U5      0.044700
     51 H12B        0.2680    6.3940    1.4700 h1        1 0U5      0.044700
     52 H14        -1.3080    4.6400   -0.2150 ha        1 0U5      0.141000
     53 H15        -2.9920    3.3510   -1.4240 ha        1 0U5      0.159000
     54 H20        -4.3170    3.4160    0.9640 h1        1 0U5      0.084700
     55 H23        -6.7510    3.9390   -2.9410 hc        1 0U5      0.046700
     56 H23A       -5.4440    5.1690   -3.1990 hc        1 0U5      0.046700
     57 H22        -6.9400    5.6170   -2.2780 hc        1 0U5      0.046700
     58 H26        -7.9520   -0.0820    2.9910 ha        1 0U5      0.138000
     59 H27        -9.1130    1.8920    3.9940 ha        1 0U5      0.136000
     60 H28        -8.3550    4.2010    3.4380 ha        1 0U5      0.135000
     61 H29        -6.4600    4.5570    1.8580 ha        1 0U5      0.138000
     62 H31        -0.2960    1.2390    0.4560 ha        1 0U5      0.164000
     63 HN35        4.6150   -1.7000   -2.0830 hn        1 0U5      0.419300
     64 HN3A        3.1970   -2.4380   -2.6120 hn        1 0U5      0.419300
     65 H37        -3.7900    5.1840   -0.2240 hc        1 0U5      0.046700
     66 H37A       -5.3710    5.7640    0.4470 hc        1 0U5      0.046700
     67 H37B       -4.7700    6.4070   -1.1350 hc        1 0U5      0.046700
     68 H38         3.1360    1.4380    2.5590 hc        1 0U5      0.059700
     69 H38A        4.5820    1.3420    1.4830 hc        1 0U5      0.059700
     70 H39         5.2830   -0.8060    2.5620 hc        1 0U5      0.049700
     71 H36         3.8390   -0.7510    3.6460 hc        1 0U5      0.049700
     72 H40         5.8650    0.1310    4.8020 hc        1 0U5      0.032033
     73 H40A        4.6360    1.4450    4.5950 hc        1 0U5      0.032033
     74 H391        6.0840    1.3830    3.5110 hc        1 0U5      0.032033
     75 H21        -6.1720    2.3740   -1.3310 ha        1 0U5      0.139000
     76 H19        -6.1430   -1.0040    1.4380 h4        1 0U5      0.044800
@<TRIPOS>BOND
     1    1    2 1   
     2    1   41 1   
     3    1   42 1   
     4    2    3 ar  
     5    2   36 ar  
     6    3    4 1   
     7    3   32 ar  
     8    4    5 1   
     9    4   43 1   
    10    4   44 1   
    11    5    6 ar  
    12    5   31 ar  
    13    6    7 ar  
    14    6   45 1   
    15    7    8 1   
    16    7   10 ar  
    17    8    9 1   
    18    9   46 1   
    19    9   47 1   
    20    9   48 1   
    21   10   11 1   
    22   10   13 ar  
    23   11   12 1   
    24   12   49 1   
    25   12   50 1   
    26   12   51 1   
    27   13   14 1   
    28   13   31 ar  
    29   14   15 2   
    30   14   52 1   
    31   15   16 1   
    32   15   53 1   
    33   16   17 1   
    34   16   30 2   
    35   17   18 1   
    36   17   20 1   
    37   18   19 2   
    38   19   25 1   
    39   19   76 1   
    40   20   21 1   
    41   20   24 1   
    42   20   54 1   
    43   21   22 2   
    44   21   75 1   
    45   22   23 1   
    46   22   37 1   
    47   23   55 1   
    48   23   56 1   
    49   23   57 1   
    50   24   25 ar  
    51   24   29 ar  
    52   25   26 ar  
    53   26   27 ar  
    54   26   58 1   
    55   27   28 ar  
    56   27   59 1   
    57   28   29 ar  
    58   28   60 1   
    59   29   61 1   
    60   31   62 1   
    61   32   33 ar  
    62   32   38 1   
    63   33   34 ar  
    64   34   35 1   
    65   34   36 ar  
    66   35   63 1   
    67   35   64 1   
    68   37   65 1   
    69   37   66 1   
    70   37   67 1   
    71   38   39 1   
    72   38   68 1   
    73   38   69 1   
    74   39   40 1   
    75   39   70 1   
    76   39   71 1   
    77   40   72 1   
    78   40   73 1   
    79   40   74 1   
@<TRIPOS>SUBSTRUCTURE
     1 0U5         1 TEMP              0 ****  ****    0 ROOT
