@<TRIPOS>MOLECULE
0U5
   76    70     1     0     0
SMALL
bcc


@<TRIPOS>ATOM
      1 N01         2.7480   -3.7760   -2.7110 n3        1 0U5     -0.333000
      2 C02         3.7730   -3.4490   -1.6620 c2        1 0U5      0.189000
      3 C03         3.3980   -3.4240   -0.3530 c2        1 0U5     -0.287000
      4 C04         1.8690   -3.2770    0.0230 c3        1 0U5     -0.065000
      5 C05         1.4510   -1.7350   -0.0500 c2        1 0U5     -0.079000
      6 C06         1.7170   -0.9090    1.0260 c1        1 0U5     -0.108000
      7 C07         1.5260    0.4770    0.9150 c2        1 0U5      0.026000
      8 O08         1.9550    1.3160    1.9450 os        1 0U5     -0.228000
      9 C09         1.4170    1.0050    3.1800 c3        1 0U5     -0.078000
     10 C10         1.0610    1.0340   -0.2970 c1        1 0U5      0.040000
     11 O11         0.9980    2.4440   -0.4450 os        1 0U5     -0.227000
     12 C12         2.2900    3.1020   -0.3520 c3        1 0U5     -0.081000
     13 C13         0.7910    0.2040   -1.3880 c1        1 0U5     -0.049000
     14 C14         0.4800    0.8230   -2.7660 c2        1 0U5     -0.060000
     15 C15        -0.5970    1.6480   -2.9180 c1        1 0U5     -0.170000
     16 C16        -1.5000    1.9620   -1.7190 c1        1 0U5      0.371000
     17 N17        -2.9640    1.7560   -1.8310 n3        1 0U5     -0.282000
     18 N18        -3.4800    0.9730   -2.8720 n2        1 0U5     -0.017000
     19 C19        -4.7070    0.3130   -2.7080 c1        1 0U5     -0.124000
     20 C20        -3.8670    2.2790   -0.7850 c3        1 0U5      0.085000
     21 C21        -4.3190    3.7740   -1.1770 c2        1 0U5     -0.207000
     22 C22        -4.1780    4.7730   -0.3080 c1        1 0U5     -0.065000
     23 C23        -4.6240    6.2150   -0.7090 c3        1 0U5     -0.187000
     24 C24        -5.0840    1.3850   -0.5010 c2        1 0U5     -0.068000
     25 C25        -5.4630    0.4470   -1.4100 c1        1 0U5     -0.075000
     26 C26        -6.6400   -0.3010   -1.2000 c1        1 0U5     -0.100000
     27 C27        -7.4130   -0.0780   -0.0600 c1        1 0U5     -0.130000
     28 C28        -7.0310    0.8660    0.8560 c1        1 0U5     -0.116000
     29 C29        -5.8670    1.6070    0.6480 c2        1 0U5     -0.115000
     30 O30        -1.0330    2.5810   -0.7370 o         1 0U5     -0.337000
     31 C31         0.9820   -1.1790   -1.2760 c2        1 0U5     -0.118000
     32 C32         4.3610   -3.4010    0.6470 c1        1 0U5      0.090000
     33 N33         5.6810   -3.4020    0.3190 n1        1 0U5     -0.258000
     34 C34         6.0590   -3.4270   -0.9950 c1        1 0U5      0.180000
     35 N35         7.4320   -3.2810   -1.3410 n2        1 0U5     -0.323000
     36 N36         5.1010   -3.4500   -1.9890 n2        1 0U5     -0.293000
     37 C37        -3.5890    4.5170    1.0650 c2        1 0U5     -0.202000
     38 C38         3.9310   -3.5860    2.1230 c3        1 0U5     -0.119000
     39 C39         4.8940   -4.4720    2.8120 c3        1 0U5     -0.151000
     40 C40         4.6880   -4.3650    4.3410 c3        1 0U5     -0.214000
     41 HN01        1.8800   -4.0340   -2.4540 hn        1 0U5      0.214000
     42 HN0A        2.9620   -3.7070   -3.6030 hn        1 0U5      0.214000
     43 H04         1.3540   -3.7680   -0.5740 hc        1 0U5      0.100500
     44 H04A        1.7170   -3.6230    0.9600 hc        1 0U5      0.100500
     45 H06         2.0490   -1.3060    1.9000 DU        1 0U5      0.146500
     46 H09         0.5700    1.5380    3.3230 h1        1 0U5      0.086000
     47 H09A        1.2130    0.0570    3.2120 h1        1 0U5      0.086000
     48 H09B        2.0660    1.2240    3.8860 h1        1 0U5      0.086000
     49 H12         2.4540    3.3500    0.5480 h1        1 0U5      0.087000
     50 H12A        2.2910    3.8970   -0.9120 h1        1 0U5      0.087000
     51 H12B        2.9870    2.4920   -0.6530 h1        1 0U5      0.087000
     52 H14         1.0330    0.6300   -3.5030 ha        1 0U5      0.144000
     53 H15        -0.7990    2.0510   -3.8200 ha        1 0U5      0.157000
     54 H20        -3.3910    2.4450    0.0450 h1        1 0U5      0.131000
     55 H23        -5.6140    6.2840   -0.6480 hc        1 0U5      0.083667
     56 H23A       -4.2280    6.8470   -0.1230 hc        1 0U5      0.083667
     57 H22        -4.3510    6.3930   -1.5870 hc        1 0U5      0.083667
     58 H26        -6.9090   -0.9640   -1.8400 ha        1 0U5      0.137000
     59 H27        -8.2330   -0.6010    0.0860 ha        1 0U5      0.136000
     60 H28        -7.5920    1.0250    1.6800 DU        1 0U5      0.146500
     61 H29        -5.6060    2.2510    1.2720 ha        1 0U5      0.140000
     62 H31         0.7950   -1.7620   -2.0390 ha        1 0U5      0.143000
     63 HN35        7.6850   -3.2750   -2.2320 hn        1 0U5      0.217500
     64 HN3A        8.1050   -3.2500   -0.6490 hn        1 0U5      0.217500
     65 H37        -2.5640    4.3660    0.9770 ha        1 0U5      0.092000
     66 H37A       -4.0000    3.7330    1.4510 ha        1 0U5      0.092000
     67 H37B       -3.7650    5.3260    1.6660 ha        1 0U5      0.092000
     68 H38         3.9140   -2.7300    2.5630 hc        1 0U5      0.096000
     69 H38A        3.0470   -3.9820    2.1540 hc        1 0U5      0.096000
     70 H39         5.7610   -4.2140    2.5960 hc        1 0U5      0.094000
     71 H36         4.7490   -5.4030    2.5270 hc        1 0U5      0.094000
     72 H40         4.8230   -3.3930    4.6370 hc        1 0U5      0.071333
     73 H40A        3.7690   -4.6590    4.5720 hc        1 0U5      0.071333
     74 H391        5.3230   -4.9240    4.7870 hc        1 0U5      0.071333
     75 H21        -4.6520    3.9580   -2.0790 ha        1 0U5      0.131000
     76 H19        -5.0870   -0.2580   -3.4630 ha        1 0U5      0.170000
@<TRIPOS>BOND
     1    1    2 1   
     2    1   41 1   
     3    1   42 1   
     4    2    3 1   
     5    2   36 1   
     6    3    4 1   
     7    3   32 1   
     8    4    5 1   
     9    4   43 1   
    10    4   44 1   
    11    5    6 1   
    12    5   31 1   
    13    6    7 1   
    14    7    8 1   
    15    7   10 1   
    16    8    9 1   
    17    9   46 1   
    18    9   47 1   
    19    9   48 1   
    20   10   11 1   
    21   11   12 1   
    22   12   49 1   
    23   12   50 1   
    24   12   51 1   
    25   13   14 1   
    26   13   31 1   
    27   14   15 1   
    28   14   52 1   
    29   15   53 1   
    30   16   17 1   
    31   16   30 1   
    32   17   18 1   
    33   17   20 1   
    34   18   19 1   
    35   19   76 1   
    36   20   21 1   
    37   20   24 1   
    38   20   54 1   
    39   21   22 1   
    40   21   75 1   
    41   22   23 1   
    42   23   55 1   
    43   23   56 1   
    44   23   57 1   
    45   24   25 1   
    46   24   29 1   
    47   25   26 1   
    48   26   58 1   
    49   27   28 1   
    50   27   59 1   
    51   28   29 1   
    52   29   61 1   
    53   31   62 1   
    54   32   38 1   
    55   33   34 1   
    56   34   36 1   
    57   35   63 1   
    58   35   64 1   
    59   37   65 1   
    60   37   66 1   
    61   37   67 1   
    62   38   39 1   
    63   38   68 1   
    64   38   69 1   
    65   39   40 1   
    66   39   70 1   
    67   39   71 1   
    68   40   72 1   
    69   40   73 1   
    70   40   74 1   
@<TRIPOS>SUBSTRUCTURE
     1 0U5         1 TEMP              0 ****  ****    0 ROOT
