@<TRIPOS>MOLECULE
0U5
   76    79     1     0     0
SMALL
bcc


@<TRIPOS>ATOM
      1 N01        -0.3500   -1.4700    0.3180 nv        1 0U5     -0.910500
      2 C02         1.0000   -1.1430    0.1890 ca        1 0U5      0.705200
      3 C03         1.6830   -0.4040    1.2190 ca        1 0U5     -0.417900
      4 C04         1.0030    0.0240    2.4670 c3        1 0U5      0.030200
      5 C05         0.4740    1.4210    2.4380 ca        1 0U5     -0.048300
      6 C06         0.6260    2.2370    3.5650 ca        1 0U5     -0.184000
      7 C07         0.0820    3.5260    3.5740 ca        1 0U5      0.099100
      8 O08         0.2020    4.4090    4.6310 os        1 0U5     -0.326900
      9 C09         0.7870    3.8890    5.8200 c3        1 0U5      0.112700
     10 C10        -0.6270    4.0080    2.4500 ca        1 0U5      0.082100
     11 O11        -1.2760    5.2320    2.4590 os        1 0U5     -0.335900
     12 C12        -0.4030    6.3590    2.5420 c3        1 0U5      0.114700
     13 C13        -0.7870    3.1800    1.3230 ca        1 0U5     -0.066800
     14 C14        -1.5360    3.6660    0.1740 ce        1 0U5     -0.032200
     15 C15        -2.4710    3.0070   -0.5170 cf        1 0U5     -0.230200
     16 C16        -2.9200    1.6110   -0.2720 c         1 0U5      0.709300
     17 N17        -4.2160    1.4600    0.2900 n         1 0U5     -0.245800
     18 N18        -4.7100    0.2260    0.4870 n2        1 0U5     -0.412300
     19 C19        -5.8040    0.0510    1.1780 ce        1 0U5      0.368800
     20 C20        -5.0170    2.6840    0.5540 c3        1 0U5      0.172200
     21 C21        -5.6150    3.2410   -0.7130 c2        1 0U5     -0.205200
     22 C22        -5.5390    4.5220   -1.1020 c2        1 0U5     -0.096400
     23 C23        -6.2010    4.9760   -2.3520 c3        1 0U5     -0.069400
     24 C24        -6.1450    2.4430    1.5350 ca        1 0U5     -0.076300
     25 C25        -6.5640    1.1280    1.8070 ca        1 0U5     -0.151900
     26 C26        -7.6280    0.8930    2.6800 ca        1 0U5     -0.101000
     27 C27        -8.2690    1.9710    3.2900 ca        1 0U5     -0.128000
     28 C28        -7.8440    3.2750    3.0350 ca        1 0U5     -0.119000
     29 C29        -6.7840    3.5140    2.1600 ca        1 0U5     -0.114000
     30 O30        -2.2100    0.6330   -0.5610 o         1 0U5     -0.579100
     31 C31        -0.2120    1.9040    1.3240 ca        1 0U5     -0.129000
     32 C32         3.0560   -0.1450    1.0100 ca        1 0U5      0.509600
     33 N33         3.7390   -0.6020   -0.0620 nb        1 0U5     -0.787000
     34 C34         3.0220   -1.3600   -0.9750 ca        1 0U5      0.892900
     35 N35         3.7390   -1.9610   -2.0220 nv        1 0U5     -0.922500
     36 N36         1.6650   -1.6060   -0.9150 nb        1 0U5     -0.816000
     37 C37        -4.8250    5.5820   -0.3480 c3        1 0U5     -0.069400
     38 C38         3.8320    0.6850    2.0020 c3        1 0U5     -0.138700
     39 C39         4.5600   -0.1980    2.9970 c3        1 0U5     -0.078400
     40 C40         5.3160    0.6290    4.0050 c3        1 0U5     -0.093100
     41 HN01       -0.8970   -0.7830    0.7950 hn        1 0U5      0.419800
     42 HN0A       -0.7990   -1.8160   -0.5050 hn        1 0U5      0.419800
     43 H04         1.7250   -0.0850    3.3260 hc        1 0U5      0.060200
     44 H04A        0.1460   -0.6650    2.7120 hc        1 0U5      0.060200
     45 H06         1.1710    1.8560    4.4400 ha        1 0U5      0.141000
     46 H09         0.7070    4.7430    6.5400 h1        1 0U5      0.046033
     47 H09A        0.2150    3.0050    6.1910 h1        1 0U5      0.046033
     48 H09B        1.8570    3.6200    5.6460 h1        1 0U5      0.046033
     49 H12         0.2780    6.3860    1.6580 h1        1 0U5      0.044700
     50 H12A       -1.1030    7.2320    2.5330 h1        1 0U5      0.044700
     51 H12B        0.1860    6.3340    3.4900 h1        1 0U5      0.044700
     52 H14        -1.3020    4.7130   -0.1040 ha        1 0U5      0.141000
     53 H15        -2.9850    3.4820   -1.3730 ha        1 0U5      0.159000
     54 H20        -4.3120    3.4420    1.0160 h1        1 0U5      0.084700
     55 H23        -6.9330    5.7900   -2.1220 hc        1 0U5      0.046700
     56 H23A       -5.4380    5.3820   -3.0620 hc        1 0U5      0.046700
     57 H22        -6.7470    4.1430   -2.8600 hc        1 0U5      0.046700
     58 H26        -7.9520   -0.1370    2.8860 ha        1 0U5      0.138000
     59 H27        -9.1090    1.7910    3.9770 ha        1 0U5      0.136000
     60 H28        -8.3480    4.1220    3.5250 ha        1 0U5      0.135000
     61 H29        -6.4530    4.5450    1.9620 ha        1 0U5      0.138000
     62 H31        -0.2980    1.2830    0.4160 ha        1 0U5      0.164000
     63 HN35        4.6180   -1.5490   -2.2380 hn        1 0U5      0.419300
     64 HN3A        3.2010   -2.2590   -2.8040 hn        1 0U5      0.419300
     65 H37        -5.3630    5.8130    0.6050 hc        1 0U5      0.046700
     66 H37A       -4.7610    6.5250   -0.9460 hc        1 0U5      0.046700
     67 H37B       -3.7830    5.2600   -0.0910 hc        1 0U5      0.046700
     68 H38         4.5800    1.3280    1.4630 hc        1 0U5      0.059700
     69 H38A        3.1300    1.3790    2.5370 hc        1 0U5      0.059700
     70 H39         3.8230   -0.8590    3.5260 hc        1 0U5      0.049700
     71 H36         5.2720   -0.8690    2.4470 hc        1 0U5      0.049700
     72 H40         6.0740    1.2740    3.4980 hc        1 0U5      0.032033
     73 H40A        4.6210    1.2900    4.5770 hc        1 0U5      0.032033
     74 H391        5.8460   -0.0360    4.7290 hc        1 0U5      0.032033
     75 H21        -6.1690    2.5070   -1.3220 ha        1 0U5      0.139000
     76 H19        -6.1450   -0.9920    1.2920 h4        1 0U5      0.044800
@<TRIPOS>BOND
     1    1    2 1   
     2    1   41 1   
     3    1   42 1   
     4    2    3 ar  
     5    2   36 ar  
     6    3    4 1   
     7    3   32 ar  
     8    4    5 1   
     9    4   43 1   
    10    4   44 1   
    11    5    6 ar  
    12    5   31 ar  
    13    6    7 ar  
    14    6   45 1   
    15    7    8 1   
    16    7   10 ar  
    17    8    9 1   
    18    9   46 1   
    19    9   47 1   
    20    9   48 1   
    21   10   11 1   
    22   10   13 ar  
    23   11   12 1   
    24   12   49 1   
    25   12   50 1   
    26   12   51 1   
    27   13   14 1   
    28   13   31 ar  
    29   14   15 2   
    30   14   52 1   
    31   15   16 1   
    32   15   53 1   
    33   16   17 1   
    34   16   30 2   
    35   17   18 1   
    36   17   20 1   
    37   18   19 2   
    38   19   25 1   
    39   19   76 1   
    40   20   21 1   
    41   20   24 1   
    42   20   54 1   
    43   21   22 2   
    44   21   75 1   
    45   22   23 1   
    46   22   37 1   
    47   23   55 1   
    48   23   56 1   
    49   23   57 1   
    50   24   25 ar  
    51   24   29 ar  
    52   25   26 ar  
    53   26   27 ar  
    54   26   58 1   
    55   27   28 ar  
    56   27   59 1   
    57   28   29 ar  
    58   28   60 1   
    59   29   61 1   
    60   31   62 1   
    61   32   33 ar  
    62   32   38 1   
    63   33   34 ar  
    64   34   35 1   
    65   34   36 ar  
    66   35   63 1   
    67   35   64 1   
    68   37   65 1   
    69   37   66 1   
    70   37   67 1   
    71   38   39 1   
    72   38   68 1   
    73   38   69 1   
    74   39   40 1   
    75   39   70 1   
    76   39   71 1   
    77   40   72 1   
    78   40   73 1   
    79   40   74 1   
@<TRIPOS>SUBSTRUCTURE
     1 0U5         1 TEMP              0 ****  ****    0 ROOT
