@<TRIPOS>MOLECULE
0U5
   78    81     1     0     0
SMALL
bcc


@<TRIPOS>ATOM
      1 N01        -1.0660    0.0840    1.2910 n4        1 0U5     -0.835300
      2 C02         0.2770   -0.4200    0.9820 ca        1 0U5      0.524200
      3 C03         1.3830   -0.0910    1.8090 ca        1 0U5     -0.181900
      4 C04         1.2330    0.7140    3.0510 c3        1 0U5     -0.020800
      5 C05         0.5690    2.0330    2.8560 ca        1 0U5     -0.175300
      6 C06         1.2500    3.0990    2.2530 ca        1 0U5     -0.155000
      7 C07         0.6440    4.3530    2.1570 ca        1 0U5      0.080100
      8 O08         1.2460    5.4360    1.5550 os        1 0U5     -0.321900
      9 C09         2.6680    5.3930    1.4370 c3        1 0U5      0.107700
     10 C10        -0.6750    4.5560    2.6510 ca        1 0U5      0.174100
     11 O11        -1.3970    5.7130    2.5660 os        1 0U5     -0.315900
     12 C12        -0.6920    6.9470    2.3940 c3        1 0U5      0.118700
     13 C13        -1.3610    3.4660    3.2330 ca        1 0U5     -0.089800
     14 C14        -2.7300    3.6300    3.7110 ce        1 0U5     -0.028200
     15 C15        -3.7420    2.7960    3.4450 cf        1 0U5     -0.216200
     16 C16        -3.5990    1.5670    2.6210 c         1 0U5      0.685300
     17 N17        -3.9880    1.6180    1.2640 n         1 0U5     -0.224800
     18 N18        -3.8710    0.4900    0.5060 n2        1 0U5     -0.592300
     19 C19        -4.8620    0.1010   -0.2530 ce        1 0U5      0.499800
     20 C20        -4.9670    2.6670    0.8380 c3        1 0U5      0.168200
     21 C21        -4.3540    3.5730   -0.1930 c2        1 0U5     -0.233200
     22 C22        -4.2080    4.9000   -0.0510 c2        1 0U5     -0.048400
     23 C23        -3.6560    5.7230   -1.1570 c3        1 0U5     -0.077900
     24 C24        -6.2240    2.0610    0.2490 ca        1 0U5     -0.077300
     25 C25        -6.1480    0.7830   -0.3410 ca        1 0U5     -0.212900
     26 C26        -7.2740    0.2130   -0.9380 ca        1 0U5     -0.070000
     27 C27        -8.4790    0.9180   -0.9390 ca        1 0U5     -0.119000
     28 C28        -8.5570    2.1790   -0.3460 ca        1 0U5     -0.078000
     29 C29        -7.4310    2.7550    0.2500 ca        1 0U5     -0.113000
     30 O30        -3.0430    0.5450    3.0940 o         1 0U5     -0.666100
     31 C31        -0.7110    2.2350    3.3730 ca        1 0U5     -0.149000
     32 C32         2.6580   -0.6270    1.4060 ca        1 0U5      0.519600
     33 N33         2.7820   -1.4110    0.3140 nb        1 0U5     -0.645000
     34 C34         1.6350   -1.6700   -0.3970 ca        1 0U5      0.725900
     35 N35         1.7930   -2.5520   -1.5920 n4        1 0U5     -0.814300
     36 N36         0.3840   -1.2120   -0.1310 nb        1 0U5     -0.670000
     37 C37        -4.5790    5.6510    1.1730 c3        1 0U5     -0.077900
     38 C38         3.9100   -0.3410    2.1920 c3        1 0U5     -0.161700
     39 C39         3.9930   -1.2210    3.4290 c3        1 0U5     -0.077400
     40 C40         5.1950   -0.8480    4.2590 c3        1 0U5     -0.104100
     41 HN01       -1.3740   -0.2510    2.2290 hn        1 0U5      0.505800
     42 HN0A       -1.0500    1.1200    1.3250 hn        1 0U5      0.505800
     43 H04         2.2360    0.8930    3.5330 hc        1 0U5      0.107700
     44 H04A        0.6450    0.0920    3.7920 hc        1 0U5      0.107700
     45 H06         2.2730    2.9520    1.8770 ha        1 0U5      0.144000
     46 H09         2.9270    6.4360    1.1170 h1        1 0U5      0.058033
     47 H09A        2.9650    4.6580    0.6500 h1        1 0U5      0.058033
     48 H09B        3.1450    5.1470    2.4150 h1        1 0U5      0.058033
     49 H12        -0.3390    7.0340    1.3370 h1        1 0U5      0.067033
     50 H12A       -1.4780    7.7130    2.6200 h1        1 0U5      0.067033
     51 H12B        0.1610    7.0220    3.1080 h1        1 0U5      0.067033
     52 H14        -2.9030    4.5400    4.3190 ha        1 0U5      0.176000
     53 H15        -4.7500    2.9510    3.8690 ha        1 0U5      0.181000
     54 H20        -5.2600    3.2680    1.7500 h1        1 0U5      0.090700
     55 H23        -3.3420    5.0990   -2.0280 hc        1 0U5      0.054867
     56 H23A       -2.7700    6.3040   -0.7960 hc        1 0U5      0.054867
     57 H22        -4.4310    6.4520   -1.5070 hc        1 0U5      0.054867
     58 H26        -7.2150   -0.7850   -1.3970 ha        1 0U5      0.147000
     59 H27        -9.3720    0.4740   -1.4080 ha        1 0U5      0.160000
     60 H28        -9.5130    2.7280   -0.3480 ha        1 0U5      0.160000
     61 H29        -7.4990    3.7530    0.7090 ha        1 0U5      0.150000
     62 H31        -1.2170    1.4370    3.9470 ha        1 0U5      0.171000
     63 HN35        2.1190   -3.4790   -1.2800 hn        1 0U5      0.494133
     64 HN3A        2.4960   -2.1410   -2.2240 hn        1 0U5      0.494133
     65 H37        -5.6400    5.4450    1.4630 hc        1 0U5      0.054867
     66 H37A       -4.4740    6.7530    1.0160 hc        1 0U5      0.054867
     67 H37B       -3.9100    5.3560    2.0240 hc        1 0U5      0.054867
     68 H38         4.8250   -0.5180    1.5600 hc        1 0U5      0.098700
     69 H38A        3.9190    0.7470    2.4750 hc        1 0U5      0.098700
     70 H39         4.0680   -2.2960    3.1180 hc        1 0U5      0.051700
     71 H36         3.0590   -1.1110    4.0430 hc        1 0U5      0.051700
     72 H40         5.1280    0.2120    4.6060 hc        1 0U5      0.058700
     73 H40A        6.1380   -0.9700    3.6720 hc        1 0U5      0.058700
     74 H391        5.2530   -1.5100    5.1590 hc        1 0U5      0.058700
     75 H21        -4.0660    3.0760   -1.1330 ha        1 0U5      0.131000
     76 H19        -4.6920   -0.8010   -0.8710 h4        1 0U5      0.041800
     77 H013       -1.7800   -0.2140    0.5990 hn        1 0U5      0.505800
     78 H353        0.8970   -2.6510   -2.0900 hn        1 0U5      0.494133
@<TRIPOS>BOND
     1    1    2 1   
     2    1   41 1   
     3    1   42 1   
     4    1   77 1   
     5    2    3 ar  
     6    2   36 ar  
     7    3    4 1   
     8    3   32 ar  
     9    4    5 1   
    10    4   43 1   
    11    4   44 1   
    12    5    6 ar  
    13    5   31 ar  
    14    6    7 ar  
    15    6   45 1   
    16    7    8 1   
    17    7   10 ar  
    18    8    9 1   
    19    9   46 1   
    20    9   47 1   
    21    9   48 1   
    22   10   11 1   
    23   10   13 ar  
    24   11   12 1   
    25   12   49 1   
    26   12   50 1   
    27   12   51 1   
    28   13   14 1   
    29   13   31 ar  
    30   14   15 2   
    31   14   52 1   
    32   15   16 1   
    33   15   53 1   
    34   16   17 1   
    35   16   30 2   
    36   17   18 1   
    37   17   20 1   
    38   18   19 2   
    39   19   25 1   
    40   19   76 1   
    41   20   21 1   
    42   20   24 1   
    43   20   54 1   
    44   21   22 2   
    45   21   75 1   
    46   22   23 1   
    47   22   37 1   
    48   23   55 1   
    49   23   56 1   
    50   23   57 1   
    51   24   25 ar  
    52   24   29 ar  
    53   25   26 ar  
    54   26   27 ar  
    55   26   58 1   
    56   27   28 ar  
    57   27   59 1   
    58   28   29 ar  
    59   28   60 1   
    60   29   61 1   
    61   31   62 1   
    62   32   33 ar  
    63   32   38 1   
    64   33   34 ar  
    65   34   35 1   
    66   34   36 ar  
    67   35   63 1   
    68   35   64 1   
    69   35   78 1   
    70   37   65 1   
    71   37   66 1   
    72   37   67 1   
    73   38   39 1   
    74   38   68 1   
    75   38   69 1   
    76   39   40 1   
    77   39   70 1   
    78   39   71 1   
    79   40   72 1   
    80   40   73 1   
    81   40   74 1   
@<TRIPOS>SUBSTRUCTURE
     1 0U5         1 TEMP              0 ****  ****    0 ROOT
