@<TRIPOS>MOLECULE
0U5
   76    79     1     0     0
SMALL
bcc


@<TRIPOS>ATOM
      1 N01        -2.7450    2.3120   -1.5800 nh        1 0U5     -0.935500
      2 C02        -4.1010    2.2040   -1.2790 ca        1 0U5      0.709200
      3 C03        -4.5230    1.5470   -0.0690 ca        1 0U5     -0.415900
      4 C04        -3.5180    0.9520    0.8480 c3        1 0U5      0.025200
      5 C05        -2.8680   -0.2760    0.3000 ca        1 0U5     -0.067300
      6 C06        -3.6550   -1.3420   -0.1510 ca        1 0U5     -0.174000
      7 C07        -3.0450   -2.5060   -0.6220 ca        1 0U5      0.101100
      8 O08        -3.7350   -3.6050   -1.0970 os        1 0U5     -0.321900
      9 C09        -5.1550   -3.5400   -1.0120 c3        1 0U5      0.110700
     10 C10        -1.6340   -2.6130   -0.6460 ca        1 0U5      0.093100
     11 O11        -1.0060   -3.7990   -0.9830 os        1 0U5     -0.329900
     12 C12        -1.1510   -4.1770   -2.3540 c3        1 0U5      0.115700
     13 C13        -0.8420   -1.5330   -0.2080 ca        1 0U5     -0.054800
     14 C14         0.6070   -1.6530   -0.2420 ce        1 0U5     -0.035200
     15 C15         1.4590   -0.6180   -0.1730 cf        1 0U5     -0.212200
     16 C16         2.9200   -0.8590   -0.2350 c         1 0U5      0.697300
     17 N17         3.8060    0.0810    0.3550 n         1 0U5     -0.242800
     18 N18         3.3200    1.0890    1.0920 n2        1 0U5     -0.438300
     19 C19         4.1020    1.7490    1.9060 ce        1 0U5      0.375800
     20 C20         5.2640   -0.1450    0.1800 c3        1 0U5      0.171200
     21 C21         5.7560    0.4330   -1.1210 c2        1 0U5     -0.207200
     22 C22         6.2890   -0.2890   -2.1180 c2        1 0U5     -0.076400
     23 C23         6.7760    0.3670   -3.3590 c3        1 0U5     -0.071400
     24 C24         6.0840    0.4590    1.2980 ca        1 0U5     -0.074300
     25 C25         5.5120    1.4430    2.1260 ca        1 0U5     -0.157900
     26 C26         6.2710    2.0420    3.1330 ca        1 0U5     -0.101000
     27 C27         7.5970    1.6530    3.3200 ca        1 0U5     -0.131000
     28 C28         8.1610    0.6670    2.5090 ca        1 0U5     -0.118000
     29 C29         7.4080    0.0680    1.4990 ca        1 0U5     -0.115000
     30 O30         3.4050   -1.8610   -0.7930 o         1 0U5     -0.593100
     31 C31        -1.4760   -0.3770    0.2700 ca        1 0U5     -0.149000
     32 C32        -5.9080    1.5510    0.2030 ca        1 0U5      0.506600
     33 N33        -6.8130    2.1430   -0.6080 nb        1 0U5     -0.785000
     34 C34        -6.3260    2.7380   -1.7610 ca        1 0U5      0.896900
     35 N35        -7.2620    3.2590   -2.6660 nh        1 0U5     -0.924500
     36 N36        -4.9950    2.7950   -2.1280 nb        1 0U5     -0.818000
     37 C37         6.4370   -1.7640   -2.0780 c3        1 0U5     -0.071400
     38 C38        -6.4540    0.8790    1.4380 c3        1 0U5     -0.139700
     39 C39        -6.3930    1.8090    2.6340 c3        1 0U5     -0.077400
     40 C40        -6.8780    1.1180    3.8830 c3        1 0U5     -0.095100
     41 HN01       -2.5060    2.6260   -2.4940 hn        1 0U5      0.420300
     42 HN0A       -2.1700    1.5860   -1.2150 hn        1 0U5      0.420300
     43 H04        -2.7340    1.7250    1.0870 hc        1 0U5      0.062700
     44 H04A       -3.9910    0.6830    1.8340 hc        1 0U5      0.062700
     45 H06        -4.7500   -1.2450   -0.1250 ha        1 0U5      0.149000
     46 H09        -5.4810   -4.5350   -1.4100 h1        1 0U5      0.047367
     47 H09A       -5.4820   -3.4140    0.0490 h1        1 0U5      0.047367
     48 H09B       -5.5500   -2.7110   -1.6470 h1        1 0U5      0.047367
     49 H12        -0.5760   -5.1350   -2.4190 h1        1 0U5      0.046700
     50 H12A       -2.2260   -4.3400   -2.6060 h1        1 0U5      0.046700
     51 H12B       -0.7050   -3.4000   -3.0190 h1        1 0U5      0.046700
     52 H14         0.9910   -2.6880   -0.3470 ha        1 0U5      0.166000
     53 H15         1.1230    0.4260   -0.0880 ha        1 0U5      0.155000
     54 H20         5.4200   -1.2690    0.1870 h1        1 0U5      0.095700
     55 H23         6.6610    1.4780   -3.3150 hc        1 0U5      0.048033
     56 H23A        7.8570    0.1290   -3.5180 hc        1 0U5      0.048033
     57 H22         6.2000   -0.0140   -4.2390 hc        1 0U5      0.048033
     58 H26         5.8210    2.8120    3.7760 ha        1 0U5      0.136000
     59 H27         8.1990    2.1240    4.1110 ha        1 0U5      0.135000
     60 H28         9.2060    0.3600    2.6660 ha        1 0U5      0.135000
     61 H29         7.8550   -0.7070    0.8570 ha        1 0U5      0.140000
     62 H31        -0.8640    0.4580    0.6450 ha        1 0U5      0.143000
     63 HN35       -8.1630    3.4580   -2.2950 hn        1 0U5      0.423300
     64 HN3A       -6.9140    3.9070   -3.3340 hn        1 0U5      0.423300
     65 H37         5.4480   -2.2490   -1.8670 hc        1 0U5      0.048033
     66 H37A        6.8230   -2.1580   -3.0490 hc        1 0U5      0.048033
     67 H37B        7.1540   -2.0620   -1.2710 hc        1 0U5      0.048033
     68 H38        -7.5210    0.5650    1.2740 hc        1 0U5      0.059700
     69 H38A       -5.8680   -0.0570    1.6370 hc        1 0U5      0.059700
     70 H39        -5.3390    2.1660    2.7850 hc        1 0U5      0.048700
     71 H36        -7.0240    2.7140    2.4310 hc        1 0U5      0.048700
     72 H40        -6.2450    0.2280    4.1140 hc        1 0U5      0.035033
     73 H40A       -6.8350    1.8180    4.7520 hc        1 0U5      0.035033
     74 H391       -7.9340    0.7750    3.7590 hc        1 0U5      0.035033
     75 H21         5.6600    1.5270   -1.2060 ha        1 0U5      0.130000
     76 H19         3.6340    2.5780    2.4650 h4        1 0U5      0.040800
@<TRIPOS>BOND
     1    1    2 1   
     2    1   41 1   
     3    1   42 1   
     4    2    3 ar  
     5    2   36 ar  
     6    3    4 1   
     7    3   32 ar  
     8    4    5 1   
     9    4   43 1   
    10    4   44 1   
    11    5    6 ar  
    12    5   31 ar  
    13    6    7 ar  
    14    6   45 1   
    15    7    8 1   
    16    7   10 ar  
    17    8    9 1   
    18    9   46 1   
    19    9   47 1   
    20    9   48 1   
    21   10   11 1   
    22   10   13 ar  
    23   11   12 1   
    24   12   49 1   
    25   12   50 1   
    26   12   51 1   
    27   13   14 1   
    28   13   31 ar  
    29   14   15 2   
    30   14   52 1   
    31   15   16 1   
    32   15   53 1   
    33   16   17 1   
    34   16   30 2   
    35   17   18 1   
    36   17   20 1   
    37   18   19 2   
    38   19   25 1   
    39   19   76 1   
    40   20   21 1   
    41   20   24 1   
    42   20   54 1   
    43   21   22 2   
    44   21   75 1   
    45   22   23 1   
    46   22   37 1   
    47   23   55 1   
    48   23   56 1   
    49   23   57 1   
    50   24   25 ar  
    51   24   29 ar  
    52   25   26 ar  
    53   26   27 ar  
    54   26   58 1   
    55   27   28 ar  
    56   27   59 1   
    57   28   29 ar  
    58   28   60 1   
    59   29   61 1   
    60   31   62 1   
    61   32   33 ar  
    62   32   38 1   
    63   33   34 ar  
    64   34   35 1   
    65   34   36 ar  
    66   35   63 1   
    67   35   64 1   
    68   37   65 1   
    69   37   66 1   
    70   37   67 1   
    71   38   39 1   
    72   38   68 1   
    73   38   69 1   
    74   39   40 1   
    75   39   70 1   
    76   39   71 1   
    77   40   72 1   
    78   40   73 1   
    79   40   74 1   
@<TRIPOS>SUBSTRUCTURE
     1 0U5         1 TEMP              0 ****  ****    0 ROOT
