@<TRIPOS>MOLECULE
0U6
   73    76     1     0     0
SMALL
bcc


@<TRIPOS>ATOM
      1 N01        -2.9040    2.2420   -1.5850 nh        1 0U6     -0.937500
      2 C02        -4.2460    2.2330   -1.2150 ca        1 0U6      0.712200
      3 C03        -4.6390    1.7150    0.0700 ca        1 0U6     -0.418900
      4 C04        -3.6170    1.1910    1.0100 c3        1 0U6      0.026200
      5 C05        -3.0230   -0.1120    0.5820 ca        1 0U6     -0.066300
      6 C06        -3.8550   -1.1990    0.2930 ca        1 0U6     -0.175000
      7 C07        -3.2950   -2.4280   -0.0640 ca        1 0U6      0.100100
      8 O08        -4.0320   -3.5530   -0.3790 os        1 0U6     -0.321900
      9 C09        -5.4410   -3.4530   -0.1950 c3        1 0U6      0.111700
     10 C10        -1.8890   -2.5770   -0.1370 ca        1 0U6      0.093100
     11 O11        -1.3080   -3.8130   -0.3590 os        1 0U6     -0.329900
     12 C12        -1.5200   -4.3400   -1.6690 c3        1 0U6      0.115700
     13 C13        -1.0530   -1.4770    0.1360 ca        1 0U6     -0.054800
     14 C14         0.3890   -1.6410    0.0530 ce        1 0U6     -0.036200
     15 C15         1.2680   -0.6310   -0.0410 cf        1 0U6     -0.211200
     16 C16         2.7170   -0.9190   -0.1390 c         1 0U6      0.697300
     17 N17         3.6520    0.0570    0.2990 n         1 0U6     -0.242800
     18 N18         3.2250    1.1570    0.9340 n2        1 0U6     -0.438300
     19 C19         4.0580    1.8840    1.6310 ce        1 0U6      0.376800
     20 C20         5.0950   -0.2290    0.0880 c3        1 0U6      0.172200
     21 C21         5.5390    0.1810   -1.2910 c2        1 0U6     -0.207200
     22 C22         6.0090   -0.6660   -2.2200 c2        1 0U6     -0.076400
     23 C23         6.4530   -0.1710   -3.5480 c3        1 0U6     -0.071400
     24 C24         5.9800    0.4770    1.0920 ca        1 0U6     -0.074300
     25 C25         5.4700    1.5650    1.8230 ca        1 0U6     -0.157900
     26 C26         6.2880    2.2550    2.7200 ca        1 0U6     -0.101000
     27 C27         7.6120    1.8520    2.8930 ca        1 0U6     -0.131000
     28 C28         8.1150    0.7640    2.1800 ca        1 0U6     -0.118000
     29 C29         7.3020    0.0740    1.2800 ca        1 0U6     -0.115000
     30 O30         3.1530   -1.9920   -0.5970 o         1 0U6     -0.594100
     31 C31        -1.6370   -0.2550    0.5030 ca        1 0U6     -0.149000
     32 C32        -6.0130    1.7790    0.3840 ca        1 0U6      0.507600
     33 N33        -6.9310    2.3280   -0.4430 nb        1 0U6     -0.787000
     34 C34        -6.4620    2.8450   -1.6420 ca        1 0U6      0.900900
     35 N35        -7.3760    3.5300   -2.4520 nh        1 0U6     -0.927500
     36 N36        -5.1540    2.7750   -2.0830 nb        1 0U6     -0.821000
     37 C37         6.1250   -2.1300   -2.0140 c3        1 0U6     -0.071400
     38 C38        -6.5350    1.2180    1.6830 c3        1 0U6     -0.138700
     39 C39        -6.4470    2.2390    2.7910 c3        1 0U6     -0.091100
     40 HN01       -2.6910    2.4650   -2.5300 hn        1 0U6      0.421300
     41 HN0A       -2.3410    1.5330   -1.1720 hn        1 0U6      0.421300
     42 H04        -2.8010    1.9590    1.1310 hc        1 0U6      0.062700
     43 H04A       -4.0580    1.0510    2.0360 hc        1 0U6      0.062700
     44 H06        -4.9450   -1.0690    0.3540 ha        1 0U6      0.148000
     45 H09        -5.8060   -4.4810   -0.4460 h1        1 0U6      0.047033
     46 H09A       -5.6850   -3.1950    0.8640 h1        1 0U6      0.047033
     47 H09B       -5.8750   -2.6970   -0.8940 h1        1 0U6      0.047033
     48 H12        -2.6100   -4.4970   -1.8590 h1        1 0U6      0.046367
     49 H12A       -1.0810   -3.6590   -2.4370 h1        1 0U6      0.046367
     50 H12B       -0.9750   -5.3170   -1.6460 h1        1 0U6      0.046367
     51 H14         0.7440   -2.6920    0.0550 ha        1 0U6      0.166000
     52 H15         0.9600    0.4250   -0.0670 ha        1 0U6      0.155000
     53 H20         5.2240   -1.3490    0.2200 h1        1 0U6      0.095700
     54 H26         5.8860    3.1060    3.2880 ha        1 0U6      0.136000
     55 H27         8.2610    2.3940    3.5980 ha        1 0U6      0.135000
     56 H28         9.1580    0.4470    2.3250 ha        1 0U6      0.135000
     57 H29         7.7000   -0.7820    0.7140 ha        1 0U6      0.140000
     58 H31        -0.9880    0.6000    0.7510 ha        1 0U6      0.144000
     59 HN35       -8.3380    3.3490   -2.2840 hn        1 0U6      0.424800
     60 HN3A       -7.1130    3.6690   -3.4000 hn        1 0U6      0.424800
     61 H37         5.1350   -2.5590   -1.7050 hc        1 0U6      0.048033
     62 H37A        6.4560   -2.6440   -2.9490 hc        1 0U6      0.048033
     63 H37B        6.8700   -2.3530   -1.2100 hc        1 0U6      0.048033
     64 H38        -7.6060    0.8960    1.5650 hc        1 0U6      0.057700
     65 H38A       -5.9480    0.2980    1.9470 hc        1 0U6      0.057700
     66 H39        -5.3940    2.5820    2.9380 hc        1 0U6      0.041700
     67 H39A       -7.0760    3.1300    2.5510 hc        1 0U6      0.041700
     68 H39B       -6.8120    1.7930    3.7470 hc        1 0U6      0.041700
     69 H21         5.4650    1.2600   -1.4990 ha        1 0U6      0.131000
     70 H23         6.3650    0.9400   -3.6290 hc        1 0U6      0.048033
     71 H23A        7.5200   -0.4570   -3.7250 hc        1 0U6      0.048033
     72 H33         5.8280   -0.6350   -4.3520 hc        1 0U6      0.048033
     73 H19         3.6360    2.7850    2.1090 h4        1 0U6      0.040800
@<TRIPOS>BOND
     1    1    2 1   
     2    1   40 1   
     3    1   41 1   
     4    2    3 ar  
     5    2   36 ar  
     6    3    4 1   
     7    3   32 ar  
     8    4    5 1   
     9    4   42 1   
    10    4   43 1   
    11    5    6 ar  
    12    5   31 ar  
    13    6    7 ar  
    14    6   44 1   
    15    7    8 1   
    16    7   10 ar  
    17    8    9 1   
    18    9   45 1   
    19    9   46 1   
    20    9   47 1   
    21   10   11 1   
    22   10   13 ar  
    23   11   12 1   
    24   12   48 1   
    25   12   49 1   
    26   12   50 1   
    27   13   14 1   
    28   13   31 ar  
    29   14   15 2   
    30   14   51 1   
    31   15   16 1   
    32   15   52 1   
    33   16   17 1   
    34   16   30 2   
    35   17   18 1   
    36   17   20 1   
    37   18   19 2   
    38   19   25 1   
    39   19   73 1   
    40   20   21 1   
    41   20   24 1   
    42   20   53 1   
    43   21   22 2   
    44   21   69 1   
    45   22   23 1   
    46   22   37 1   
    47   23   70 1   
    48   23   71 1   
    49   23   72 1   
    50   24   25 ar  
    51   24   29 ar  
    52   25   26 ar  
    53   26   27 ar  
    54   26   54 1   
    55   27   28 ar  
    56   27   55 1   
    57   28   29 ar  
    58   28   56 1   
    59   29   57 1   
    60   31   58 1   
    61   32   33 ar  
    62   32   38 1   
    63   33   34 ar  
    64   34   35 1   
    65   34   36 ar  
    66   35   59 1   
    67   35   60 1   
    68   37   61 1   
    69   37   62 1   
    70   37   63 1   
    71   38   39 1   
    72   38   64 1   
    73   38   65 1   
    74   39   66 1   
    75   39   67 1   
    76   39   68 1   
@<TRIPOS>SUBSTRUCTURE
     1 0U6         1 TEMP              0 ****  ****    0 ROOT
