@<TRIPOS>MOLECULE
0U6
   73    76     1     0     0
SMALL
bcc


@<TRIPOS>ATOM
      1 N01        -0.0290   -1.2040    0.0900 nh        1 0U6     -0.910500
      2 C02         1.3110   -0.8180    0.0400 ca        1 0U6      0.704200
      3 C03         1.9110   -0.0910    1.1290 ca        1 0U6     -0.416900
      4 C04         1.1550    0.2590    2.3570 c3        1 0U6      0.032200
      5 C05         0.5670    1.6310    2.3530 ca        1 0U6     -0.064300
      6 C06         0.6230    2.4090    3.5150 ca        1 0U6     -0.171000
      7 C07         0.0230    3.6710    3.5480 ca        1 0U6      0.074100
      8 O08         0.0440    4.5030    4.6550 os        1 0U6     -0.335900
      9 C09         0.6770    3.9840    5.8200 c3        1 0U6      0.113700
     10 C10        -0.6450    4.1720    2.4080 ca        1 0U6      0.105100
     11 O11        -1.3320    5.3700    2.3630 os        1 0U6     -0.336900
     12 C12        -0.7560    6.4560    3.0880 c3        1 0U6      0.123700
     13 C13        -0.7110    3.3800    1.2420 ca        1 0U6     -0.079800
     14 C14        -1.4140    3.8840    0.0710 ce        1 0U6     -0.027200
     15 C15        -2.2820    3.2180   -0.6970 cf        1 0U6     -0.235200
     16 C16        -2.6930    1.8000   -0.5290 c         1 0U6      0.710300
     17 N17        -4.0180    1.5850   -0.0650 n         1 0U6     -0.245800
     18 N18        -4.4770    0.3280    0.0600 n2        1 0U6     -0.411300
     19 C19        -5.6100    0.0920    0.6660 ce        1 0U6      0.366800
     20 C20        -4.8820    2.7690    0.1760 c3        1 0U6      0.172200
     21 C21        -5.4090    3.3460   -1.1130 c2        1 0U6     -0.205200
     22 C22        -5.3540    4.6410   -1.4580 c2        1 0U6     -0.096400
     23 C23        -5.9410    5.1110   -2.7390 c3        1 0U6     -0.069400
     24 C24        -6.0680    2.4570    1.0650 ca        1 0U6     -0.076300
     25 C25        -6.4530    1.1190    1.2680 ca        1 0U6     -0.150900
     26 C26        -7.5680    0.8190    2.0540 ca        1 0U6     -0.101000
     27 C27        -8.2920    1.8530    2.6460 ca        1 0U6     -0.128000
     28 C28        -7.9020    3.1790    2.4590 ca        1 0U6     -0.119000
     29 C29        -6.7910    3.4840    1.6710 ca        1 0U6     -0.115000
     30 O30        -1.9290    0.8580   -0.7990 o         1 0U6     -0.579100
     31 C31        -0.0820    2.1310    1.2240 ca        1 0U6     -0.117000
     32 C32         3.2800    0.2320    0.9970 ca        1 0U6      0.509600
     33 N33         4.0330   -0.1550   -0.0560 nb        1 0U6     -0.787000
     34 C34         3.3930   -0.9060   -1.0310 ca        1 0U6      0.892900
     35 N35         4.1840   -1.4360   -2.0630 nh        1 0U6     -0.922500
     36 N36         2.0470   -1.2100   -1.0460 nb        1 0U6     -0.816000
     37 C37        -4.7370    5.7010   -0.6230 c3        1 0U6     -0.069400
     38 C38         3.9730    1.0530    2.0570 c3        1 0U6     -0.139700
     39 C39         4.6780    0.1700    3.0560 c3        1 0U6     -0.089100
     40 HN01       -0.4230   -1.5350   -0.7660 hn        1 0U6      0.419300
     41 HN0A       -0.6260   -0.5580    0.5660 hn        1 0U6      0.419300
     42 H04         1.8410    0.1490    3.2450 hc        1 0U6      0.059200
     43 H04A        0.3200   -0.4750    2.5360 hc        1 0U6      0.059200
     44 H06         1.1390    2.0140    4.4030 ha        1 0U6      0.141000
     45 H09         0.5460    4.8050    6.5710 h1        1 0U6      0.045700
     46 H09A        0.1690    3.0510    6.1650 h1        1 0U6      0.045700
     47 H09B        1.7610    3.7950    5.6290 h1        1 0U6      0.045700
     48 H12        -1.1900    7.3630    2.5960 h1        1 0U6      0.047033
     49 H12A       -1.0740    6.3960    4.1580 h1        1 0U6      0.047033
     50 H12B        0.3560    6.4530    3.0140 h1        1 0U6      0.047033
     51 H14        -1.2040    4.9490   -0.1540 ha        1 0U6      0.144000
     52 H15        -2.7620    3.7080   -1.5650 ha        1 0U6      0.159000
     53 H20        -4.2420    3.5370    0.7110 h1        1 0U6      0.083700
     54 H26        -7.8650   -0.2290    2.2070 ha        1 0U6      0.138000
     55 H27        -9.1720    1.6210    3.2640 ha        1 0U6      0.136000
     56 H28        -8.4720    3.9910    2.9340 ha        1 0U6      0.135000
     57 H29        -6.4880    4.5320    1.5260 ha        1 0U6      0.138000
     58 H31        -0.0960    1.5450    0.2900 ha        1 0U6      0.164000
     59 HN35        3.6970   -1.7240   -2.8810 hn        1 0U6      0.419300
     60 HN3A        5.0530   -0.9790   -2.2200 hn        1 0U6      0.419300
     61 H37        -4.6640    6.6640   -1.1870 hc        1 0U6      0.046700
     62 H37A       -5.3520    5.8830    0.2940 hc        1 0U6      0.046700
     63 H37B       -3.7050    5.4080   -0.2980 hc        1 0U6      0.046700
     64 H38         4.7210    1.7420    1.5780 hc        1 0U6      0.058700
     65 H38A        3.2150    1.7020    2.5720 hc        1 0U6      0.058700
     66 H39         5.1700    0.7980    3.8370 hc        1 0U6      0.038700
     67 H39A        3.9580   -0.5210    3.5590 hc        1 0U6      0.038700
     68 H39B        5.4600   -0.4470    2.5510 hc        1 0U6      0.038700
     69 H21        -5.8890    2.6130   -1.7840 ha        1 0U6      0.139000
     70 H23        -6.7170    5.8910   -2.5390 hc        1 0U6      0.046700
     71 H23A       -6.4180    4.2760   -3.3090 hc        1 0U6      0.046700
     72 H33        -5.1440    5.5660   -3.3800 hc        1 0U6      0.046700
     73 H19        -5.9170   -0.9670    0.7250 h4        1 0U6      0.044800
@<TRIPOS>BOND
     1    1    2 1   
     2    1   40 1   
     3    1   41 1   
     4    2    3 ar  
     5    2   36 ar  
     6    3    4 1   
     7    3   32 ar  
     8    4    5 1   
     9    4   42 1   
    10    4   43 1   
    11    5    6 ar  
    12    5   31 ar  
    13    6    7 ar  
    14    6   44 1   
    15    7    8 1   
    16    7   10 ar  
    17    8    9 1   
    18    9   45 1   
    19    9   46 1   
    20    9   47 1   
    21   10   11 1   
    22   10   13 ar  
    23   11   12 1   
    24   12   48 1   
    25   12   49 1   
    26   12   50 1   
    27   13   14 1   
    28   13   31 ar  
    29   14   15 2   
    30   14   51 1   
    31   15   16 1   
    32   15   52 1   
    33   16   17 1   
    34   16   30 2   
    35   17   18 1   
    36   17   20 1   
    37   18   19 2   
    38   19   25 1   
    39   19   73 1   
    40   20   21 1   
    41   20   24 1   
    42   20   53 1   
    43   21   22 2   
    44   21   69 1   
    45   22   23 1   
    46   22   37 1   
    47   23   70 1   
    48   23   71 1   
    49   23   72 1   
    50   24   25 ar  
    51   24   29 ar  
    52   25   26 ar  
    53   26   27 ar  
    54   26   54 1   
    55   27   28 ar  
    56   27   55 1   
    57   28   29 ar  
    58   28   56 1   
    59   29   57 1   
    60   31   58 1   
    61   32   33 ar  
    62   32   38 1   
    63   33   34 ar  
    64   34   35 1   
    65   34   36 ar  
    66   35   59 1   
    67   35   60 1   
    68   37   61 1   
    69   37   62 1   
    70   37   63 1   
    71   38   39 1   
    72   38   64 1   
    73   38   65 1   
    74   39   66 1   
    75   39   67 1   
    76   39   68 1   
@<TRIPOS>SUBSTRUCTURE
     1 0U6         1 TEMP              0 ****  ****    0 ROOT
