@<TRIPOS>MOLECULE
0U6
   73    76     1     0     0
SMALL
bcc


@<TRIPOS>ATOM
      1 N01        -0.0830   -1.1950    0.0220 nv        1 0U6     -0.910500
      2 C02         1.2630   -0.8270   -0.0090 ca        1 0U6      0.705200
      3 C03         1.8640   -0.1310    1.0990 ca        1 0U6     -0.417900
      4 C04         1.1020    0.2040    2.3280 c3        1 0U6      0.030200
      5 C05         0.5360    1.5870    2.3480 ca        1 0U6     -0.049300
      6 C06         0.6000    2.3400    3.5270 ca        1 0U6     -0.184000
      7 C07         0.0200    3.6110    3.5780 ca        1 0U6      0.099100
      8 O08         0.0550    4.4340    4.6880 os        1 0U6     -0.326900
      9 C09         0.5860    3.8610    5.8780 c3        1 0U6      0.112700
     10 C10        -0.6380    4.1400    2.4430 ca        1 0U6      0.082100
     11 O11        -1.3210    5.3450    2.4840 os        1 0U6     -0.335900
     12 C12        -0.4870    6.4870    2.6820 c3        1 0U6      0.114700
     13 C13        -0.7090    3.3760    1.2640 ca        1 0U6     -0.066800
     14 C14        -1.4060    3.9100    0.1020 ce        1 0U6     -0.032200
     15 C15        -2.2810    3.2680   -0.6780 cf        1 0U6     -0.230200
     16 C16        -2.7030    1.8500   -0.5400 c         1 0U6      0.709300
     17 N17        -4.0240    1.6340   -0.0640 n         1 0U6     -0.245800
     18 N18        -4.4920    0.3780    0.0320 n2        1 0U6     -0.412300
     19 C19        -5.6190    0.1360    0.6470 ce        1 0U6      0.368800
     20 C20        -4.8730    2.8190    0.2210 c3        1 0U6      0.172200
     21 C21        -5.4130    3.4340   -1.0450 c2        1 0U6     -0.205200
     22 C22        -5.3510    4.7380   -1.3550 c2        1 0U6     -0.096400
     23 C23        -5.9530    5.2470   -2.6150 c3        1 0U6     -0.069400
     24 C24        -6.0490    2.4930    1.1180 ca        1 0U6     -0.076300
     25 C25        -6.4440    1.1540    1.2900 ca        1 0U6     -0.151900
     26 C26        -7.5500    0.8420    2.0840 ca        1 0U6     -0.101000
     27 C27        -8.2560    1.8660    2.7150 ca        1 0U6     -0.128000
     28 C28        -7.8540    3.1930    2.5600 ca        1 0U6     -0.119000
     29 C29        -6.7530    3.5100    1.7650 ca        1 0U6     -0.114000
     30 O30        -1.9490    0.9090   -0.8420 o         1 0U6     -0.579100
     31 C31        -0.0990    2.1170    1.2250 ca        1 0U6     -0.129000
     32 C32         3.2390    0.1750    0.9870 ca        1 0U6      0.509600
     33 N33         3.9950   -0.2010   -0.0680 nb        1 0U6     -0.787000
     34 C34         3.3530   -0.9230   -1.0630 ca        1 0U6      0.893900
     35 N35         4.1460   -1.4420   -2.0990 nv        1 0U6     -0.922500
     36 N36         2.0030   -1.2070   -1.0970 nb        1 0U6     -0.816000
     37 C37        -4.7130    5.7700   -0.5020 c3        1 0U6     -0.069400
     38 C38         3.9330    0.9630    2.0700 c3        1 0U6     -0.139700
     39 C39         4.6160    0.0490    3.0560 c3        1 0U6     -0.089100
     40 HN01       -0.6750   -0.5510    0.5040 hn        1 0U6      0.419300
     41 HN0A       -0.4730   -1.5040   -0.8440 hn        1 0U6      0.419300
     42 H04         0.2530   -0.5190    2.4840 hc        1 0U6      0.060200
     43 H04A        1.7780    0.0650    3.2200 hc        1 0U6      0.060200
     44 H06         1.1040    1.9210    4.4100 ha        1 0U6      0.141000
     45 H09         1.6710    3.6300    5.7510 h1        1 0U6      0.046367
     46 H09A        0.4410    4.6680    6.6400 h1        1 0U6      0.046367
     47 H09B        0.0190    2.9420    6.1650 h1        1 0U6      0.046367
     48 H12        -1.2100    7.3410    2.6820 h1        1 0U6      0.044700
     49 H12A        0.0490    6.4220    3.6600 h1        1 0U6      0.044700
     50 H12B        0.2420    6.5830    1.8420 h1        1 0U6      0.044700
     51 H14        -1.1860    4.9760   -0.1010 ha        1 0U6      0.141000
     52 H15        -2.7590    3.7800   -1.5340 ha        1 0U6      0.159000
     53 H20        -4.2180    3.5670    0.7670 h1        1 0U6      0.084700
     54 H26        -7.8560   -0.2070    2.2120 ha        1 0U6      0.138000
     55 H27        -9.1280    1.6250    3.3400 ha        1 0U6      0.136000
     56 H28        -8.4090    3.9970    3.0670 ha        1 0U6      0.135000
     57 H29        -6.4410    4.5580    1.6450 ha        1 0U6      0.138000
     58 H31        -0.1160    1.5480    0.2810 ha        1 0U6      0.164000
     59 HN35        3.6630   -1.7080   -2.9260 hn        1 0U6      0.419300
     60 HN3A        5.0240   -0.9970   -2.2380 hn        1 0U6      0.419300
     61 H37        -4.6410    6.7470   -1.0400 hc        1 0U6      0.046700
     62 H37A       -5.3110    5.9310    0.4300 hc        1 0U6      0.046700
     63 H37B       -3.6780    5.4590   -0.2020 hc        1 0U6      0.046700
     64 H38         3.1800    1.6120    2.5920 hc        1 0U6      0.058700
     65 H38A        4.6950    1.6510    1.6120 hc        1 0U6      0.058700
     66 H39         5.3950   -0.5680    2.5450 hc        1 0U6      0.038700
     67 H39A        5.1100    0.6540    3.8550 hc        1 0U6      0.038700
     68 H39B        3.8820   -0.6410    3.5380 hc        1 0U6      0.038700
     69 H21        -5.9100    2.7240   -1.7270 ha        1 0U6      0.139000
     70 H23        -5.1620    5.7130   -3.2540 hc        1 0U6      0.046700
     71 H23A       -6.4450    4.4320   -3.2000 hc        1 0U6      0.046700
     72 H33        -6.7200    6.0280   -2.3820 hc        1 0U6      0.046700
     73 H19        -5.9360   -0.9210    0.6810 h4        1 0U6      0.044800
@<TRIPOS>BOND
     1    1    2 1   
     2    1   40 1   
     3    1   41 1   
     4    2    3 ar  
     5    2   36 ar  
     6    3    4 1   
     7    3   32 ar  
     8    4    5 1   
     9    4   42 1   
    10    4   43 1   
    11    5    6 ar  
    12    5   31 ar  
    13    6    7 ar  
    14    6   44 1   
    15    7    8 1   
    16    7   10 ar  
    17    8    9 1   
    18    9   45 1   
    19    9   46 1   
    20    9   47 1   
    21   10   11 1   
    22   10   13 ar  
    23   11   12 1   
    24   12   48 1   
    25   12   49 1   
    26   12   50 1   
    27   13   14 1   
    28   13   31 ar  
    29   14   15 2   
    30   14   51 1   
    31   15   16 1   
    32   15   52 1   
    33   16   17 1   
    34   16   30 2   
    35   17   18 1   
    36   17   20 1   
    37   18   19 2   
    38   19   25 1   
    39   19   73 1   
    40   20   21 1   
    41   20   24 1   
    42   20   53 1   
    43   21   22 2   
    44   21   69 1   
    45   22   23 1   
    46   22   37 1   
    47   23   70 1   
    48   23   71 1   
    49   23   72 1   
    50   24   25 ar  
    51   24   29 ar  
    52   25   26 ar  
    53   26   27 ar  
    54   26   54 1   
    55   27   28 ar  
    56   27   55 1   
    57   28   29 ar  
    58   28   56 1   
    59   29   57 1   
    60   31   58 1   
    61   32   33 ar  
    62   32   38 1   
    63   33   34 ar  
    64   34   35 1   
    65   34   36 ar  
    66   35   59 1   
    67   35   60 1   
    68   37   61 1   
    69   37   62 1   
    70   37   63 1   
    71   38   39 1   
    72   38   64 1   
    73   38   65 1   
    74   39   66 1   
    75   39   67 1   
    76   39   68 1   
@<TRIPOS>SUBSTRUCTURE
     1 0U6         1 TEMP              0 ****  ****    0 ROOT
