@<TRIPOS>MOLECULE
0U6
   73    67     1     0     0
SMALL
bcc


@<TRIPOS>ATOM
      1 N01         2.4720   -2.3970   -3.5090 n3        1 0U6     -0.339000
      2 C02         3.5610   -2.8490   -2.7010 c2        1 0U6      0.206000
      3 C03         3.3210   -3.2560   -1.3820 c2        1 0U6     -0.298000
      4 C04         1.8630   -3.1450   -0.7760 c3        1 0U6     -0.064000
      5 C05         1.6480   -1.7200   -0.2260 c2        1 0U6     -0.056000
      6 C06         2.3420   -0.6540   -0.7850 c1        1 0U6     -0.168000
      7 C07         2.2420    0.6150   -0.2230 c2        1 0U6      0.053000
      8 O08         3.0340    1.7150   -0.7630 os        1 0U6     -0.210000
      9 C09         4.4500    1.6420   -0.4450 c3        1 0U6     -0.077000
     10 C10         1.4420    0.8200    0.9070 c1        1 0U6      0.044000
     11 O11         1.3420    2.1440    1.4940 os        1 0U6     -0.216000
     12 C12         2.1080    2.2980    2.7250 c3        1 0U6     -0.075000
     13 C13         0.7430   -0.2470    1.4720 c1        1 0U6     -0.041000
     14 C14         0.0770   -0.0720    2.8660 c2        1 0U6     -0.046000
     15 C15        -1.1440    0.6800    2.9950 c1        1 0U6     -0.183000
     16 C16        -1.8060    1.3220    1.7380 c1        1 0U6      0.380000
     17 N17        -3.2530    1.4670    1.6850 n3        1 0U6     -0.276000
     18 N18        -4.0600    0.6920    2.5330 n2        1 0U6     -0.017000
     19 C19        -5.4290    0.9830    2.6630 c1        1 0U6     -0.120000
     20 C20        -3.8590    2.2630    0.6370 c3        1 0U6      0.084000
     21 C21        -3.8360    1.4570   -0.6950 c2        1 0U6     -0.208000
     22 C22        -3.4370    2.0610   -1.8360 c1        1 0U6     -0.068000
     23 C23        -3.4130    1.2740   -3.1470 c3        1 0U6     -0.189000
     24 C24        -5.2850    2.7650    0.9660 c2        1 0U6     -0.066000
     25 C25        -6.0300    2.1150    1.8840 c1        1 0U6     -0.076000
     26 C26        -7.3540    2.5800    2.1930 c1        1 0U6     -0.100000
     27 C27        -7.8710    3.7070    1.5410 c1        1 0U6     -0.131000
     28 C28        -7.1000    4.3760    0.5940 c1        1 0U6     -0.116000
     29 C29        -5.8190    3.9280    0.2940 c2        1 0U6     -0.115000
     30 O30        -1.1170    1.8660    0.9080 o         1 0U6     -0.365000
     31 C31         0.8430   -1.5150    0.9100 c2        1 0U6     -0.137000
     32 C32         4.2930   -3.8750   -0.6820 c1        1 0U6      0.086000
     33 N33         5.4900   -4.1020   -1.2500 n1        1 0U6     -0.265000
     34 C34         5.7290   -3.6970   -2.5630 c1        1 0U6      0.178000
     35 N35         6.9990   -3.9560   -3.1720 n2        1 0U6     -0.321000
     36 N36         4.7610   -3.0780   -3.2650 n2        1 0U6     -0.301000
     37 C37        -3.0120    3.5260   -1.8180 c2        1 0U6     -0.198000
     38 C38         4.0020   -4.4010    0.7360 c3        1 0U6     -0.118000
     39 C39         4.9560   -5.5260    1.0640 c3        1 0U6     -0.200000
     40 HN01        2.6420   -1.9570   -4.3250 hn        1 0U6      0.232000
     41 HN0A        1.6370   -2.6070   -3.2840 hn        1 0U6      0.232000
     42 H04         1.2270   -3.3210   -1.4560 hc        1 0U6      0.096500
     43 H04A        1.7560   -3.8010   -0.0480 hc        1 0U6      0.096500
     44 H06         2.8680   -0.7880   -1.5980 DU        1 0U6      0.141500
     45 H09         4.8550    2.5390   -0.5480 h1        1 0U6      0.086333
     46 H09A        4.8940    1.0090   -1.0600 h1        1 0U6      0.086333
     47 H09B        4.5640    1.3350    0.4830 h1        1 0U6      0.086333
     48 H12         2.8640    1.6720    2.7190 h1        1 0U6      0.084333
     49 H12A        2.4540    3.2390    2.7920 h1        1 0U6      0.084333
     50 H12B        1.5250    2.1040    3.5050 h1        1 0U6      0.084333
     51 H14         0.4890   -0.4730    3.6580 ha        1 0U6      0.147000
     52 H15        -1.5620    0.7890    3.8790 ha        1 0U6      0.154000
     53 H20        -3.2830    3.0430    0.3910 h1        1 0U6      0.132000
     54 H26        -7.8930    2.1120    2.8560 ha        1 0U6      0.137000
     55 H27        -8.7820    4.0260    1.7530 ha        1 0U6      0.136000
     56 H28        -7.4690    5.1820    0.1270 DU        1 0U6      0.141500
     57 H29        -5.2900    4.3900   -0.3580 ha        1 0U6      0.141000
     58 H31         0.3490   -2.2730    1.3100 ha        1 0U6      0.148000
     59 HN35        7.6530   -4.3700   -2.6990 hn        1 0U6      0.215000
     60 HN3A        7.1630   -3.6670   -4.0100 hn        1 0U6      0.215000
     61 H37        -2.8450    3.7970   -0.9120 ha        1 0U6      0.091333
     62 H37A       -3.7290    4.0800   -2.2000 ha        1 0U6      0.091333
     63 H37B       -2.2010    3.6360   -2.3430 ha        1 0U6      0.091333
     64 H38         4.1210   -3.6630    1.3950 hc        1 0U6      0.091500
     65 H38A        3.0620   -4.7370    0.7810 hc        1 0U6      0.091500
     66 H39         5.8790   -5.1800    1.0890 hc        1 0U6      0.079333
     67 H39A        4.8860   -6.2300    0.3720 hc        1 0U6      0.079333
     68 H39B        4.7200   -5.9130    1.9610 hc        1 0U6      0.079333
     69 H21        -4.2090    0.5500   -0.7240 ha        1 0U6      0.132000
     70 H23        -3.8430    1.8030   -3.8530 hc        1 0U6      0.085000
     71 H23A       -2.4610    1.0820   -3.4050 hc        1 0U6      0.085000
     72 H33        -3.9090    0.4070   -3.0270 hc        1 0U6      0.085000
     73 H19        -6.0220    0.3790    3.2120 ha        1 0U6      0.171000
@<TRIPOS>BOND
     1    1    2 1   
     2    1   40 1   
     3    1   41 1   
     4    2    3 1   
     5    2   36 1   
     6    3    4 1   
     7    3   32 1   
     8    4    5 1   
     9    4   42 1   
    10    4   43 1   
    11    5    6 1   
    12    5   31 1   
    13    6    7 1   
    14    7    8 1   
    15    7   10 1   
    16    8    9 1   
    17    9   45 1   
    18    9   46 1   
    19    9   47 1   
    20   10   11 1   
    21   11   12 1   
    22   12   48 1   
    23   12   49 1   
    24   12   50 1   
    25   13   14 1   
    26   13   31 1   
    27   14   15 1   
    28   14   51 1   
    29   15   52 1   
    30   16   17 1   
    31   16   30 1   
    32   17   18 1   
    33   17   20 1   
    34   18   19 1   
    35   19   73 1   
    36   20   21 1   
    37   20   24 1   
    38   20   53 1   
    39   21   22 1   
    40   21   69 1   
    41   22   23 1   
    42   23   70 1   
    43   23   71 1   
    44   23   72 1   
    45   24   25 1   
    46   24   29 1   
    47   25   26 1   
    48   26   54 1   
    49   27   28 1   
    50   27   55 1   
    51   28   29 1   
    52   29   57 1   
    53   31   58 1   
    54   32   38 1   
    55   33   34 1   
    56   34   36 1   
    57   35   59 1   
    58   35   60 1   
    59   37   61 1   
    60   37   62 1   
    61   37   63 1   
    62   38   39 1   
    63   38   64 1   
    64   38   65 1   
    65   39   66 1   
    66   39   67 1   
    67   39   68 1   
@<TRIPOS>SUBSTRUCTURE
     1 0U6         1 TEMP              0 ****  ****    0 ROOT
