@<TRIPOS>MOLECULE
0U6
   75    78     1     0     0
SMALL
bcc


@<TRIPOS>ATOM
      1 N01        -0.9770    0.1870    1.0800 n4        1 0U6     -0.836300
      2 C02         0.3780   -0.3200    0.8360 ca        1 0U6      0.525200
      3 C03         1.4330   -0.0370    1.7420 ca        1 0U6     -0.180900
      4 C04         1.2140    0.7200    3.0040 c3        1 0U6     -0.020800
      5 C05         0.5750    2.0530    2.8220 ca        1 0U6     -0.175300
      6 C06         1.3000    3.1350    2.3050 ca        1 0U6     -0.155000
      7 C07         0.7130    4.3980    2.2240 ca        1 0U6      0.080100
      8 O08         1.3600    5.4970    1.7040 os        1 0U6     -0.320900
      9 C09         2.7870    5.4450    1.6750 c3        1 0U6      0.107700
     10 C10        -0.6320    4.5960    2.6430 ca        1 0U6      0.174100
     11 O11        -1.3380    5.7630    2.5610 os        1 0U6     -0.315900
     12 C12        -0.6130    6.9960    2.4820 c3        1 0U6      0.118700
     13 C13        -1.3630    3.4910    3.1370 ca        1 0U6     -0.089800
     14 C14        -2.7570    3.6510    3.5360 ce        1 0U6     -0.028200
     15 C15        -3.7580    2.8390    3.1750 cf        1 0U6     -0.216200
     16 C16        -3.5750    1.6430    2.3120 c         1 0U6      0.685300
     17 N17        -3.8770    1.7530    0.9360 n         1 0U6     -0.224800
     18 N18        -3.7230    0.6550    0.1420 n2        1 0U6     -0.593300
     19 C19        -4.6690    0.3070   -0.6910 ce        1 0U6      0.500800
     20 C20        -4.8200    2.8280    0.4940 c3        1 0U6      0.168200
     21 C21        -4.1380    3.7680   -0.4600 c2        1 0U6     -0.233200
     22 C22        -3.9890    5.0860   -0.2560 c2        1 0U6     -0.048400
     23 C23        -3.3630    5.9470   -1.2910 c3        1 0U6     -0.077900
     24 C24        -6.0430    2.2590   -0.1950 ca        1 0U6     -0.077300
     25 C25        -5.9410    1.0050   -0.8290 ca        1 0U6     -0.212900
     26 C26        -7.0340    0.4720   -1.5160 ca        1 0U6     -0.070000
     27 C27        -8.2300    1.1890   -1.5630 ca        1 0U6     -0.119000
     28 C28        -8.3340    2.4260   -0.9260 ca        1 0U6     -0.078000
     29 C29        -7.2420    2.9660   -0.2390 ca        1 0U6     -0.113000
     30 O30        -3.0580    0.5970    2.7770 o         1 0U6     -0.667100
     31 C31        -0.7330    2.2490    3.2670 ca        1 0U6     -0.149000
     32 C32         2.7250   -0.5730    1.3980 ca        1 0U6      0.516600
     33 N33         2.9100   -1.3150    0.2860 nb        1 0U6     -0.645000
     34 C34         1.8080   -1.5320   -0.5050 ca        1 0U6      0.725900
     35 N35         2.0310   -2.3680   -1.7220 n4        1 0U6     -0.814300
     36 N36         0.5460   -1.0700   -0.2990 nb        1 0U6     -0.669000
     37 C37        -4.4280    5.7920    0.9730 c3        1 0U6     -0.077900
     38 C38         3.9300   -0.3330    2.2720 c3        1 0U6     -0.154700
     39 C39         3.9250   -1.2510    3.4710 c3        1 0U6     -0.107100
     40 HN01       -0.9530    1.2210    1.1580 hn        1 0U6      0.505800
     41 HN0A       -1.3470   -0.1820    1.9820 hn        1 0U6      0.505800
     42 H04         2.1880    0.8690    3.5520 hc        1 0U6      0.107200
     43 H04A        0.5770    0.0770    3.6820 hc        1 0U6      0.107200
     44 H06         2.3440    2.9920    1.9870 ha        1 0U6      0.144000
     45 H09         3.0740    6.4970    1.4140 h1        1 0U6      0.058367
     46 H09A        3.1990    5.1540    2.6700 h1        1 0U6      0.058367
     47 H09B        3.1270    4.7390    0.8790 h1        1 0U6      0.058367
     48 H12        -0.1950    7.1200    1.4530 h1        1 0U6      0.067033
     49 H12A        0.1950    7.0330    3.2490 h1        1 0U6      0.067033
     50 H12B       -1.4050    7.7610    2.6900 h1        1 0U6      0.067033
     51 H14        -2.9590    4.5380    4.1690 ha        1 0U6      0.176000
     52 H15        -4.7880    2.9890    3.5420 ha        1 0U6      0.181000
     53 H20        -5.1640    3.3960    1.4100 h1        1 0U6      0.090700
     54 H26        -6.9540   -0.5080   -2.0110 ha        1 0U6      0.147000
     55 H27        -9.0960    0.7740   -2.1030 ha        1 0U6      0.160000
     56 H28        -9.2840    2.9850   -0.9640 ha        1 0U6      0.160000
     57 H29        -7.3300    3.9460    0.2550 ha        1 0U6      0.150000
     58 H31        -1.2800    1.4340    3.7760 ha        1 0U6      0.171000
     59 HN35        1.1670   -2.4370   -2.2790 hn        1 0U6      0.494133
     60 HN3A        2.3270   -3.3110   -1.4280 hn        1 0U6      0.494133
     61 H37        -3.8160    5.4560    1.8510 hc        1 0U6      0.054867
     62 H37A       -5.5060    5.5860    1.1880 hc        1 0U6      0.054867
     63 H37B       -4.3030    6.8980    0.8670 hc        1 0U6      0.054867
     64 H38         3.9320    0.7450    2.5900 hc        1 0U6      0.098200
     65 H38A        4.8790   -0.4990    1.6880 hc        1 0U6      0.098200
     66 H39         2.9910   -1.1350    4.0740 hc        1 0U6      0.066033
     67 H39A        4.7990   -1.0030    4.1250 hc        1 0U6      0.066033
     68 H39B        4.0180   -2.3190    3.1570 hc        1 0U6      0.066033
     69 H21        -3.7960    3.3060   -1.4000 ha        1 0U6      0.131000
     70 H23        -4.1090    6.6970   -1.6580 hc        1 0U6      0.054867
     71 H23A       -2.4970    6.5040   -0.8540 hc        1 0U6      0.054867
     72 H33        -3.0010    5.3550   -2.1670 hc        1 0U6      0.054867
     73 H19        -4.4690   -0.5720   -1.3330 h4        1 0U6      0.041800
     74 H013       -1.6490   -0.0730    0.3340 hn        1 0U6      0.505800
     75 H353        2.7770   -1.9420   -2.2920 hn        1 0U6      0.494133
@<TRIPOS>BOND
     1    1    2 1   
     2    1   40 1   
     3    1   41 1   
     4    1   74 1   
     5    2    3 ar  
     6    2   36 ar  
     7    3    4 1   
     8    3   32 ar  
     9    4    5 1   
    10    4   42 1   
    11    4   43 1   
    12    5    6 ar  
    13    5   31 ar  
    14    6    7 ar  
    15    6   44 1   
    16    7    8 1   
    17    7   10 ar  
    18    8    9 1   
    19    9   45 1   
    20    9   46 1   
    21    9   47 1   
    22   10   11 1   
    23   10   13 ar  
    24   11   12 1   
    25   12   48 1   
    26   12   49 1   
    27   12   50 1   
    28   13   14 1   
    29   13   31 ar  
    30   14   15 2   
    31   14   51 1   
    32   15   16 1   
    33   15   52 1   
    34   16   17 1   
    35   16   30 2   
    36   17   18 1   
    37   17   20 1   
    38   18   19 2   
    39   19   25 1   
    40   19   73 1   
    41   20   21 1   
    42   20   24 1   
    43   20   53 1   
    44   21   22 2   
    45   21   69 1   
    46   22   23 1   
    47   22   37 1   
    48   23   70 1   
    49   23   71 1   
    50   23   72 1   
    51   24   25 ar  
    52   24   29 ar  
    53   25   26 ar  
    54   26   27 ar  
    55   26   54 1   
    56   27   28 ar  
    57   27   55 1   
    58   28   29 ar  
    59   28   56 1   
    60   29   57 1   
    61   31   58 1   
    62   32   33 ar  
    63   32   38 1   
    64   33   34 ar  
    65   34   35 1   
    66   34   36 ar  
    67   35   59 1   
    68   35   60 1   
    69   35   75 1   
    70   37   61 1   
    71   37   62 1   
    72   37   63 1   
    73   38   39 1   
    74   38   64 1   
    75   38   65 1   
    76   39   66 1   
    77   39   67 1   
    78   39   68 1   
@<TRIPOS>SUBSTRUCTURE
     1 0U6         1 TEMP              0 ****  ****    0 ROOT
