@<TRIPOS>MOLECULE
0U7
   30    24     1     0     0
SMALL
bcc


@<TRIPOS>ATOM
      1 C7          1.0340    0.8430   -3.8700 c1        1 0U7     -0.899000
      2 C8          1.5160   -0.3540   -4.3760 c1        1 0U7     -0.073500
      3 O4          2.5270    2.4130   -5.4070 o         1 0U7     -0.557900
      4 O5          1.2540    3.4890   -3.9400 o         1 0U7     -0.557900
      5 S3          1.2260    2.3390   -4.8000 s4        1 0U7      2.141800
      6 C9          1.3160   -1.5340   -3.6750 c1        1 0U7     -0.073500
      7 C10         0.6340   -1.5160   -2.4680 c1        1 0U7     -0.023000
      8 C11         0.1520   -0.3190   -1.9620 c1        1 0U7     -0.053000
      9 C12         0.3520    0.8600   -2.6630 c2        1 0U7      0.040000
     10 C13        -0.6220   -0.3050   -0.6620 c1        1 0U7      0.014500
     11 O14        -0.0900   -0.2480    0.5760 os        1 0U7     -0.131000
     12 C15        -1.1020   -0.3180    1.4670 c1        1 0U7      0.014500
     13 N16        -2.2520   -0.4170    0.7820 n2        1 0U7     -0.066500
     14 N17        -1.9560   -0.4090   -0.5370 n2        1 0U7     -0.066500
     15 C19        -0.9600   -0.3200    2.9740 c1        1 0U7     -0.013000
     16 C20        -0.8040    0.8750    3.6570 c1        1 0U7     -0.079000
     17 C21        -0.6340    0.8700    5.0330 c1        1 0U7     -0.063000
     18 C22        -0.6200   -0.3300    5.7250 c2        1 0U7     -0.098000
     19 C23        -0.7770   -1.5260    5.0410 c1        1 0U7     -0.062000
     20 C24        -0.9470   -1.5210    3.6660 c2        1 0U7     -0.094000
     21 CL1        -0.4190    2.3730    5.8900 cl        1 0U7      0.009500
     22 CL2        -0.7140   -3.0390    5.9060 cl        1 0U7      0.009500
     23 H1          1.9960   -0.3670   -5.2250 ha        1 0U7      0.160000
     24 H4          1.6550   -2.3760   -4.0320 ha        1 0U7      0.160000
     25 H5          0.4930   -2.3470   -1.9750 ha        1 0U7      0.157000
     26 H6          0.0130    1.7030   -2.3060 ha        1 0U7      0.183000
     27 H7         -0.8140    1.7210    3.1700 ha        1 0U7      0.178000
     28 H8         -0.5010   -0.3340    6.6930 ha        1 0U7      0.168000
     29 H9         -1.0570   -2.3640    3.1840 ha        1 0U7      0.163000
     30 F1          0.0980    2.4590   -5.8670 f         1 0U7     -0.489000
@<TRIPOS>BOND
     1    1    5 1   
     2    1    9 1   
     3    2    6 1   
     4    2   23 1   
     5    3    5 1   
     6    4    5 1   
     7    6   24 1   
     8    7    8 1   
     9    7   25 1   
    10    8    9 1   
    11    9   26 1   
    12   10   11 1   
    13   10   14 1   
    14   11   12 1   
    15   12   13 1   
    16   13   14 1   
    17   15   20 1   
    18   16   17 1   
    19   16   27 1   
    20   17   18 1   
    21   18   19 1   
    22   18   28 1   
    23   19   20 1   
    24   20   29 1   
@<TRIPOS>SUBSTRUCTURE
     1 0U7         1 TEMP              0 ****  ****    0 ROOT
