@<TRIPOS>MOLECULE
0U7
   30    29     1     0     0
SMALL
bcc


@<TRIPOS>ATOM
      1 C7          0.0040   -0.1980   -0.7520 c3        1 0U7     -0.858000
      2 C8          1.3550   -0.3400   -0.1660 c2        1 0U7     -0.132000
      3 O4         -0.0580    2.3280   -1.0400 o         1 0U7     -0.942000
      4 O5          0.7660    1.0180   -2.8730 o         1 0U7     -0.942000
      5 S3         -0.0930    1.1890   -1.8130 s6        1 0U7      2.902000
      6 C9          1.6270   -0.4340    1.1440 c2        1 0U7     -0.045000
      7 C10         0.6690   -0.4050    2.1670 c1        1 0U7     -0.037000
      8 C11        -0.1340   -0.3840    3.0580 c1        1 0U7     -0.091000
      9 C12        -0.5200   -1.3490   -1.4620 c1        1 0U7     -0.012000
     10 C13        -1.0810   -0.3620    4.0750 c2        1 0U7      0.087000
     11 O14        -0.6310   -0.2300    5.4070 os        1 0U7     -0.124000
     12 C15        -1.8220   -0.2430    6.1540 c2        1 0U7      0.047000
     13 N16        -2.8750   -0.3740    5.3130 n2        1 0U7     -0.062000
     14 N17        -2.4340   -0.4460    4.0740 n2        1 0U7     -0.045000
     15 C19        -1.7230   -0.1210    7.5890 c2        1 0U7     -0.289000
     16 C20        -2.9840   -0.0280    8.3300 c2        1 0U7     -0.105000
     17 C21        -3.1130    0.7370    9.4220 c2        1 0U7     -0.141000
     18 C22         3.2330   -0.2920   10.1860 c1        1 0U7      0.224000
     19 C23         2.0110    0.0900   10.4930 c2        1 0U7     -0.485000
     20 C24        -0.5650   -0.1170    8.2590 c1        1 0U7      0.285000
     21 CL1        -4.5510    0.8360   10.2960 cl        1 0U7      0.008000
     22 CL2         1.4470    0.7220   11.9470 cl        1 0U7      0.033000
     23 H1         -0.7650   -0.0680    0.0860 h1        1 0U7      0.232000
     24 H4          2.1790   -0.3870   -0.9030 ha        1 0U7      0.159000
     25 H5          2.6750   -0.5400    1.4910 ha        1 0U7      0.165000
     26 H6         -0.1330   -2.3440   -1.2110 ha        1 0U7      0.077000
     27 H7         -3.8170   -0.6250    7.9200 ha        1 0U7      0.178000
     28 H8         -2.3110    1.3610    9.8410 h4        1 0U7      0.158000
     29 H9          1.2170   -0.0020    9.7150 h4        1 0U7      0.221000
     30 F1         -1.5060    1.1560   -2.3720 f         1 0U7     -0.466000
@<TRIPOS>BOND
     1    1    2 1   
     2    1    5 1   
     3    1    9 1   
     4    1   23 1   
     5    2    6 1   
     6    2   24 1   
     7    3    5 1   
     8    4    5 1   
     9    5   30 1   
    10    6    7 1   
    11    6   25 1   
    12    7    8 1   
    13    8   10 1   
    14    9   26 1   
    15   10   11 1   
    16   10   14 1   
    17   11   12 1   
    18   12   13 1   
    19   12   15 1   
    20   13   14 1   
    21   15   16 1   
    22   15   20 1   
    23   16   17 1   
    24   16   27 1   
    25   17   21 1   
    26   17   28 1   
    27   18   19 1   
    28   19   22 1   
    29   19   29 1   
@<TRIPOS>SUBSTRUCTURE
     1 0U7         1 TEMP              0 ****  ****    0 ROOT
