@<TRIPOS>MOLECULE
0U7
   30    30     1     0     0
SMALL
bcc


@<TRIPOS>ATOM
      1 C7         -0.0450   -0.2740   -0.6220 c3        1 0U7     -0.858000
      2 C8          1.2640   -0.6580   -0.0500 c2        1 0U7     -0.137000
      3 O4          0.3640    2.2130   -0.9570 o         1 0U7     -0.943000
      4 O5          0.9010    0.7420   -2.7720 o         1 0U7     -0.943000
      5 S3          0.1040    1.0880   -1.7060 s6        1 0U7      2.901000
      6 C9          1.5300   -0.7940    1.2580 c2        1 0U7     -0.040000
      7 C10         0.6050   -0.5880    2.2900 c1        1 0U7     -0.050000
      8 C11        -0.1710   -0.4200    3.1880 c1        1 0U7     -0.081000
      9 C12        -0.7880   -1.3170   -1.3020 c1        1 0U7     -0.012000
     10 C13        -1.0910   -0.2250    4.2140 c2        1 0U7      0.072000
     11 O14        -0.6130   -0.1310    5.5370 os        1 0U7     -0.105000
     12 C15        -1.7810    0.0590    6.2940 c2        1 0U7      0.024000
     13 N16        -2.8510    0.0700    5.4590 n2        1 0U7     -0.073000
     14 N17        -2.4420   -0.0990    4.2210 n2        1 0U7     -0.045000
     15 C19        -1.6650    0.2010    7.7350 c2        1 0U7      0.066000
     16 C20        -2.9050    0.3590    8.4780 c2        1 0U7     -0.129000
     17 C21        -2.9310    0.4950    9.8130 c2        1 0U7     -0.128000
     18 C22         0.6570    0.1720    8.8630 c1        1 0U7     -0.122000
     19 C23         1.8410    0.1570    9.4230 c2        1 0U7     -0.041000
     20 C24        -0.4730    0.1850    8.3150 c1        1 0U7     -0.040000
     21 CL1        -4.3650    0.6790   10.6820 cl        1 0U7     -0.004000
     22 CL2         2.0750    0.3170   11.0850 cl        1 0U7      0.014000
     23 H1         -0.7620    0.0100    0.2250 h1        1 0U7      0.233000
     24 H4          2.0560   -0.8580   -0.7960 ha        1 0U7      0.158000
     25 H5          2.5450   -1.0880    1.5930 ha        1 0U7      0.162000
     26 H6         -0.5960   -2.3630   -1.0320 ha        1 0U7      0.077000
     27 H7         -3.8370    0.3640    7.8850 ha        1 0U7      0.173000
     28 H8         -2.0360    0.4980   10.4510 h4        1 0U7      0.157000
     29 H9          2.7750    0.0390    8.8500 h4        1 0U7      0.177000
     30 F1         -1.2980    1.3130   -2.2490 f         1 0U7     -0.466000
@<TRIPOS>BOND
     1    1    2 1   
     2    1    5 1   
     3    1    9 1   
     4    1   23 1   
     5    2    6 1   
     6    2   24 1   
     7    3    5 1   
     8    4    5 1   
     9    5   30 1   
    10    6    7 1   
    11    6   25 1   
    12    7    8 1   
    13    8   10 1   
    14    9   26 1   
    15   10   11 1   
    16   10   14 1   
    17   11   12 1   
    18   12   13 1   
    19   12   15 1   
    20   13   14 1   
    21   15   16 1   
    22   15   20 1   
    23   16   17 1   
    24   16   27 1   
    25   17   21 1   
    26   17   28 1   
    27   18   19 1   
    28   18   20 1   
    29   19   22 1   
    30   19   29 1   
@<TRIPOS>SUBSTRUCTURE
     1 0U7         1 TEMP              0 ****  ****    0 ROOT
