@<TRIPOS>MOLECULE
0U7
   30    32     1     0     0
SMALL
bcc


@<TRIPOS>ATOM
      1 C7         -4.4120    0.4800   -0.0350 ca        1 0U7     -0.454500
      2 C8         -4.3520    1.8730    0.1220 ca        1 0U7      0.014000
      3 O4         -6.8680    0.6270   -0.5330 o         1 0U7     -0.670300
      4 O5         -5.7520   -1.4800   -0.8700 o         1 0U7     -0.670300
      5 S3         -5.8890   -0.2870   -0.1900 sy        1 0U7      1.718000
      6 C9         -3.1290    2.5300    0.2270 ca        1 0U7     -0.161000
      7 C10        -1.9410    1.8030    0.1770 ca        1 0U7     -0.023000
      8 C11        -1.9820    0.4100    0.0150 ca        1 0U7     -0.160500
      9 C12        -3.2160   -0.2450   -0.0930 ca        1 0U7      0.040000
     10 C13        -0.7560   -0.3560   -0.0380 cc        1 0U7      0.510900
     11 O14         0.4700    0.3340   -0.0020 os        1 0U7     -0.389800
     12 C15         1.4300   -0.6950   -0.0680 cc        1 0U7      0.517900
     13 N16         0.7910   -1.8870   -0.1360 nd        1 0U7     -0.330000
     14 N17        -0.5110   -1.6850   -0.1180 nd        1 0U7     -0.329000
     15 C19         2.8320   -0.3370   -0.0520 ca        1 0U7     -0.120500
     16 C20         3.8000   -1.3490   -0.1110 ca        1 0U7     -0.086500
     17 C21         5.1540   -0.9970   -0.0960 ca        1 0U7      0.015900
     18 C22         5.5500    0.3420   -0.0240 ca        1 0U7     -0.098000
     19 C23         4.5700    1.3380    0.0340 ca        1 0U7      0.015900
     20 C24         3.2120    1.0100    0.0210 ca        1 0U7     -0.086500
     21 CL1         6.3340   -2.2130   -0.1670 cl        1 0U7     -0.068900
     22 CL2         5.0370    2.9670    0.1220 cl        1 0U7     -0.068900
     23 H1         -5.2930    2.4540    0.1510 ha        1 0U7      0.166000
     24 H4         -3.0990    3.6240    0.3480 ha        1 0U7      0.154000
     25 H5         -0.9690    2.3160    0.2610 ha        1 0U7      0.157000
     26 H6         -3.2510   -1.3420   -0.2380 ha        1 0U7      0.183000
     27 H7          3.5000   -2.4080   -0.1690 ha        1 0U7      0.170500
     28 H8          6.6190    0.6090   -0.0130 ha        1 0U7      0.168000
     29 H9          2.4430    1.7980    0.0660 ha        1 0U7      0.170500
     30 F1         -6.2370   -0.6970    1.2440 f         1 0U7     -0.284900
@<TRIPOS>BOND
     1    1    2 ar  
     2    1    5 1   
     3    1    9 ar  
     4    2    6 ar  
     5    2   23 1   
     6    3    5 2   
     7    4    5 2   
     8    5   30 1   
     9    6    7 ar  
    10    6   24 1   
    11    7    8 ar  
    12    7   25 1   
    13    8    9 ar  
    14    8   10 1   
    15    9   26 1   
    16   10   11 1   
    17   10   14 2   
    18   11   12 1   
    19   12   13 2   
    20   12   15 1   
    21   13   14 1   
    22   15   16 ar  
    23   15   20 ar  
    24   16   17 ar  
    25   16   27 1   
    26   17   18 ar  
    27   17   21 1   
    28   18   19 ar  
    29   18   28 1   
    30   19   20 ar  
    31   19   22 1   
    32   20   29 1   
@<TRIPOS>SUBSTRUCTURE
     1 0U7         1 TEMP              0 ****  ****    0 ROOT
