@<TRIPOS>MOLECULE
0U7
   30    35     1     0     0
SMALL
bcc


@<TRIPOS>ATOM
      1 C7          0.0000    0.0000    0.0000 c2        1 0U7     -0.678000
      2 C8          1.3840    0.0000    0.0000 c3        1 0U7     -0.064000
      3 O4         -0.2150    0.9290   -2.3710 o         1 0U7     -0.796500
      4 O5         -1.0800   -1.3630   -1.8750 o         1 0U7     -0.796500
      5 S3         -0.8800   -0.0000   -1.5260 s6        1 0U7      2.427000
      6 C9          2.0820    0.0000    1.1940 c3        1 0U7     -0.307000
      7 C10         1.4020   -0.0010    2.3950 c2        1 0U7     -0.309000
      8 C11         0.0060   -0.0020    2.4020 c2        1 0U7      0.032000
      9 C12        -0.6920   -0.0070    1.1930 c2        1 0U7     -0.084000
     10 C13        -0.7290   -0.0020    3.6840 c2        1 0U7      0.025000
     11 O14        -0.1830   -0.0030    4.9180 os        1 0U7      0.013000
     12 C15        -1.2130   -0.0040    5.7890 c2        1 0U7     -0.026000
     13 N16        -2.3220   -0.0030    5.0860 n2        1 0U7     -0.065000
     14 N17        -2.0340    0.0020    3.8320 n2        1 0U7     -0.034000
     15 C19        -1.1110   -0.0100    7.2630 c3        1 0U7     -0.230000
     16 C20        -2.2670   -0.0150    8.0440 c2        1 0U7     -0.282000
     17 C21        -2.1640   -0.0210    9.4210 c2        1 0U7      0.128000
     18 C22        -0.9190   -0.0220   10.0260 c2        1 0U7     -0.147000
     19 C23         0.2310   -0.0160    9.2560 c2        1 0U7      0.007000
     20 C24         0.1420   -0.0160    7.8780 c2        1 0U7     -0.023000
     21 Cl1        -3.6020   -0.0280   10.3960 cl        1 0U7      0.128000
     22 Cl2         1.7880   -0.0160   10.0240 cl        1 0U7      0.147000
     23 H1          0.3620    0.1870   -0.3080 hc        1 0U7      0.266000
     24 H4          2.0030    0.0000    0.1130 DU        1 0U7      0.201000
     25 H5          2.2960   -0.0000    1.7830 DU        1 0U7      0.238000
     26 H6          0.1500   -0.0040    1.8750 ha        1 0U7      0.220000
     27 H7         -2.1900   -0.0140    6.9640 DU        1 0U7      0.312000
     28 H8         -1.6640   -0.0190    9.2400 ha        1 0U7      0.015000
     29 H9         -0.1740   -0.0180    8.9140 ha        1 0U7     -0.008000
     30 F1         -2.3390    0.6130   -1.2360 f         1 0U7     -0.309000
@<TRIPOS>BOND
     1    1    2 1   
     2    1    5 1   
     3    1    9 1   
     4    2    6 1   
     5    2   23 1   
     6    2   24 1   
     7    3    5 1   
     8    4    5 1   
     9    5   30 1   
    10    6    7 1   
    11    6   24 1   
    12    6   25 1   
    13    7    8 1   
    14    7   25 1   
    15    8    9 1   
    16    8   10 1   
    17    9   26 1   
    18   10   11 1   
    19   10   14 1   
    20   11   12 1   
    21   12   13 1   
    22   12   15 1   
    23   13   14 1   
    24   15   16 1   
    25   15   20 1   
    26   15   27 1   
    27   16   17 1   
    28   16   27 1   
    29   17   18 1   
    30   17   21 1   
    31   18   19 1   
    32   18   28 1   
    33   19   20 1   
    34   19   22 1   
    35   20   29 1   
@<TRIPOS>SUBSTRUCTURE
     1 0U7         1 TEMP              0 ****  ****    0 ROOT
