@<TRIPOS>MOLECULE
0U8
   42    44     1     0     0
SMALL
bcc


@<TRIPOS>ATOM
      1 O1'         0.2340   -0.1020   -0.3080 oh        1 0U8     -0.590300
      2 C1'         1.5990    0.1890   -0.1370 c3        1 0U8      0.137400
      3 C2'         2.0630    0.0310    1.3280 c3        1 0U8      0.283600
      4 O6          1.2840    0.9510    2.0610 os        1 0U8     -0.433600
      5 C6          1.5940    1.1410    3.4330 c3        1 0U8      0.133400
      6 C5          0.4870    0.5860    4.3280 c3        1 0U8      0.088100
      7 O5          0.4740   -0.8500    4.2940 os        1 0U8     -0.403600
      8 C2          1.2940   -1.3730    5.3320 c3        1 0U8      0.283600
      9 C1          0.5620   -2.5710    5.9620 c3        1 0U8      0.137400
     10 O1         -0.3300   -2.1670    6.9760 oh        1 0U8     -0.590300
     11 O2          2.5210   -1.7430    4.7230 os        1 0U8     -0.433600
     12 C6'         2.4320   -2.6480    3.6290 c3        1 0U8      0.133400
     13 C5'         2.8040   -1.9930    2.3010 c3        1 0U8      0.088100
     14 O5'         1.6770   -1.2500    1.8190 os        1 0U8     -0.403600
     15 C4'         4.0150   -1.0440    2.3480 c3        1 0U8      0.089600
     16 O4'         5.1680   -1.6230    1.7670 oh        1 0U8     -0.594800
     17 C3'         3.6040    0.1510    1.4560 c3        1 0U8      0.120100
     18 O3'         3.9380    1.3900    2.0420 oh        1 0U8     -0.583800
     19 C3          1.5990   -0.2270    6.3410 c3        1 0U8      0.120100
     20 O3          2.9530    0.1710    6.3510 oh        1 0U8     -0.583800
     21 C4          0.7820    0.9720    5.7960 c3        1 0U8      0.089600
     22 O4         -0.4070    1.0300    6.5640 oh        1 0U8     -0.594800
     23 H1         -0.2440    0.2940    0.4330 ho        1 0U8      0.422500
     24 H2          2.1450   -0.5470   -0.7840 h1        1 0U8      0.060200
     25 H3          1.8160    1.2420   -0.4580 h1        1 0U8      0.060200
     26 H4          2.5670    0.6640    3.7230 h1        1 0U8      0.065700
     27 H5          1.6630    2.2570    3.5560 h1        1 0U8      0.065700
     28 H6         -0.5310    0.8940    3.9780 h1        1 0U8      0.079700
     29 H7          1.3050   -3.2430    6.4670 h1        1 0U8      0.060200
     30 H8          0.0070   -3.1330    5.1640 h1        1 0U8      0.060200
     31 H9         -0.8810   -1.4580    6.6150 ho        1 0U8      0.422500
     32 H10         1.4030   -3.0840    3.5350 h1        1 0U8      0.065700
     33 H11         3.1830   -3.4520    3.8590 h1        1 0U8      0.065700
     34 H12         2.9920   -2.8140    1.5500 h1        1 0U8      0.079700
     35 H13         4.2300   -0.7110    3.4000 h1        1 0U8      0.081700
     36 H14         5.4190   -2.3680    2.3270 ho        1 0U8      0.411000
     37 H15         4.0840    0.0540    0.4440 h1        1 0U8      0.086700
     38 H16         4.9020    1.4460    2.0260 ho        1 0U8      0.420000
     39 H17         1.2700   -0.5160    7.3750 h1        1 0U8      0.086700
     40 H18         3.4890   -0.6330    6.3780 ho        1 0U8      0.420000
     41 H19         1.3600    1.9290    5.8780 h1        1 0U8      0.081700
     42 H20        -0.8930    1.8080    6.2660 ho        1 0U8      0.411000
@<TRIPOS>BOND
     1    1    2 1   
     2    1   23 1   
     3    2    3 1   
     4    2   24 1   
     5    2   25 1   
     6    3    4 1   
     7    3   14 1   
     8    3   17 1   
     9    4    5 1   
    10    5    6 1   
    11    5   26 1   
    12    5   27 1   
    13    6    7 1   
    14    6   21 1   
    15    6   28 1   
    16    7    8 1   
    17    8    9 1   
    18    8   11 1   
    19    8   19 1   
    20    9   10 1   
    21    9   29 1   
    22    9   30 1   
    23   10   31 1   
    24   11   12 1   
    25   12   13 1   
    26   12   32 1   
    27   12   33 1   
    28   13   14 1   
    29   13   15 1   
    30   13   34 1   
    31   15   16 1   
    32   15   17 1   
    33   15   35 1   
    34   16   36 1   
    35   17   18 1   
    36   17   37 1   
    37   18   38 1   
    38   19   20 1   
    39   19   21 1   
    40   19   39 1   
    41   20   40 1   
    42   21   22 1   
    43   21   41 1   
    44   22   42 1   
@<TRIPOS>SUBSTRUCTURE
     1 0U8         1 TEMP              0 ****  ****    0 ROOT
