@<TRIPOS>MOLECULE
0U8
   42    44     1     0     0
SMALL
bcc


@<TRIPOS>ATOM
      1 O1'         0.1340    0.1820   -0.0680 oh        1 0U8     -0.588800
      2 C1'         1.5390    0.2330   -0.0470 c3        1 0U8      0.136400
      3 C2'         2.1190    0.0820    1.3740 c3        1 0U8      0.282100
      4 O6          1.5340    1.1040    2.1530 os        1 0U8     -0.410600
      5 C6          1.8530    1.1280    3.5390 c3        1 0U8      0.121400
      6 C5          0.6730    0.6640    4.3920 c3        1 0U8      0.108100
      7 O5          0.4850   -0.7540    4.2830 os        1 0U8     -0.415600
      8 C2          1.2350   -1.4250    5.2920 c3        1 0U8      0.282100
      9 C1          0.4330   -2.6580    5.7450 c3        1 0U8      0.136400
     10 O1         -0.6280   -2.3020    6.6030 oh        1 0U8     -0.588800
     11 O2          2.4870   -1.7340    4.7120 os        1 0U8     -0.410600
     12 C6'         2.4850   -2.6560    3.6300 c3        1 0U8      0.121400
     13 C5'         2.7640   -2.0000    2.2820 c3        1 0U8      0.108100
     14 O5'         1.6640   -1.1480    1.9280 os        1 0U8     -0.415600
     15 C4'         4.0530   -1.1590    2.2280 c3        1 0U8      0.093600
     16 O4'         5.0390   -1.9300    1.5710 oh        1 0U8     -0.592300
     17 C3'         3.6680    0.0850    1.3910 c3        1 0U8      0.096600
     18 O3'         4.2310    1.2280    1.9990 oh        1 0U8     -0.577800
     19 C3          1.4710   -0.4090    6.4500 c3        1 0U8      0.096600
     20 O3          2.8440   -0.3600    6.7610 oh        1 0U8     -0.577800
     21 C4          0.9860    0.9490    5.8780 c3        1 0U8      0.093600
     22 O4         -0.1690    1.3140    6.6100 oh        1 0U8     -0.592300
     23 H1         -0.1430   -0.5020    0.5570 ho        1 0U8      0.420000
     24 H2          1.9640   -0.5900   -0.6810 h1        1 0U8      0.061200
     25 H3          1.8120    1.2380   -0.4640 h1        1 0U8      0.061200
     26 H4          2.7510    0.4980    3.7750 h1        1 0U8      0.065950
     27 H5          2.0680    2.2120    3.7520 h1        1 0U8      0.065950
     28 H6         -0.2920    1.1130    4.0420 h1        1 0U8      0.084200
     29 H7          1.0970   -3.3280    6.3510 h1        1 0U8      0.061200
     30 H8          0.0290   -3.2040    4.8520 h1        1 0U8      0.061200
     31 H9         -1.1840   -1.6720    6.1240 ho        1 0U8      0.420000
     32 H10         3.3330   -3.3610    3.8580 h1        1 0U8      0.065950
     33 H11         1.5200   -3.2170    3.5520 h1        1 0U8      0.065950
     34 H12         2.8120   -2.8130    1.5010 h1        1 0U8      0.084200
     35 H13         4.3940   -0.8610    3.2570 h1        1 0U8      0.078200
     36 H14         5.8660   -1.4380    1.6450 ho        1 0U8      0.412500
     37 H15         4.0710   -0.0050    0.3450 h1        1 0U8      0.084200
     38 H16         3.6470    1.9750    1.8060 ho        1 0U8      0.413500
     39 H17         0.8520   -0.7040    7.3410 h1        1 0U8      0.084200
     40 H18         2.9080    0.0270    7.6440 ho        1 0U8      0.413500
     41 H19         1.7780    1.7370    5.9930 h1        1 0U8      0.078200
     42 H20        -0.5300    2.1050    6.1920 ho        1 0U8      0.412500
@<TRIPOS>BOND
     1    1    2 1   
     2    1   23 1   
     3    2    3 1   
     4    2   24 1   
     5    2   25 1   
     6    3    4 1   
     7    3   14 1   
     8    3   17 1   
     9    4    5 1   
    10    5    6 1   
    11    5   26 1   
    12    5   27 1   
    13    6    7 1   
    14    6   21 1   
    15    6   28 1   
    16    7    8 1   
    17    8    9 1   
    18    8   11 1   
    19    8   19 1   
    20    9   10 1   
    21    9   29 1   
    22    9   30 1   
    23   10   31 1   
    24   11   12 1   
    25   12   13 1   
    26   12   32 1   
    27   12   33 1   
    28   13   14 1   
    29   13   15 1   
    30   13   34 1   
    31   15   16 1   
    32   15   17 1   
    33   15   35 1   
    34   16   36 1   
    35   17   18 1   
    36   17   37 1   
    37   18   38 1   
    38   19   20 1   
    39   19   21 1   
    40   19   39 1   
    41   20   40 1   
    42   21   22 1   
    43   21   41 1   
    44   22   42 1   
@<TRIPOS>SUBSTRUCTURE
     1 0U8         1 TEMP              0 ****  ****    0 ROOT
