@<TRIPOS>MOLECULE
0U8
   42    44     1     0     0
SMALL
bcc


@<TRIPOS>ATOM
      1 O1'        -2.8310    0.3140   -3.5710 oh        1 0U8     -0.587800
      2 C1'        -1.3880    0.2610   -3.5720 c3        1 0U8      0.133400
      3 C2'        -0.8610    0.2480   -2.0880 c3        1 0U8      0.265600
      4 O6         -1.4130    1.3640   -1.3710 os        1 0U8     -0.431600
      5 C6         -0.4360    1.8720   -0.4060 c3        1 0U8      0.123400
      6 C5         -0.8400    1.4770    0.9690 c3        1 0U8      0.125100
      7 O5         -1.0950    0.0400    1.0200 os        1 0U8     -0.405600
      8 C2         -0.0210   -0.5770    1.8230 c3        1 0U8      0.265600
      9 C1         -0.6290   -1.4560    2.9060 c3        1 0U8      0.133400
     10 O1          0.3930   -2.1770    3.5530 oh        1 0U8     -0.587800
     11 O2          0.8120   -1.3490    1.0060 os        1 0U8     -0.431600
     12 C6'         0.0070   -2.2520    0.1990 c3        1 0U8      0.123400
     13 C5'        -0.0320   -1.7620   -1.2350 c3        1 0U8      0.125100
     14 O5'        -1.2380   -0.9890   -1.4560 os        1 0U8     -0.405600
     15 C4'         1.1280   -0.8850   -1.5000 c3        1 0U8      0.111100
     16 O4'         2.0420   -1.5410   -2.4320 oh        1 0U8     -0.589300
     17 C3'         0.6250    0.3300   -2.0820 c3        1 0U8      0.085100
     18 O3'         1.0500    1.4670   -1.2890 oh        1 0U8     -0.590300
     19 C3          0.7620    0.5070    2.4470 c3        1 0U8      0.085100
     20 O3          2.1520    0.3640    2.1030 oh        1 0U8     -0.590300
     21 C4          0.2560    1.7800    1.9320 c3        1 0U8      0.111100
     22 O4         -0.2540    2.5760    3.0160 oh        1 0U8     -0.589300
     23 H1         -3.1310    0.3400   -4.4210 ho        1 0U8      0.414500
     24 H2         -1.0290    1.0520   -4.0430 h1        1 0U8      0.063450
     25 H3         -1.0930   -0.5490   -4.0270 h1        1 0U8      0.063450
     26 H4         -0.3950    2.8680   -0.4680 h1        1 0U8      0.065950
     27 H5          0.4320    1.5020   -0.6040 h1        1 0U8      0.065950
     28 H6         -1.6620    1.9720    1.2320 h1        1 0U8      0.095700
     29 H7         -1.2560   -2.0750    2.5040 h1        1 0U8      0.063450
     30 H8         -1.1040   -0.8860    3.5690 h1        1 0U8      0.063450
     31 H9          0.0310   -2.7270    4.1630 ho        1 0U8      0.414500
     32 H10         0.4020   -3.1600    0.2260 h1        1 0U8      0.065950
     33 H11        -0.8900   -2.2830    0.5520 h1        1 0U8      0.065950
     34 H12        -0.0140   -2.5320   -1.8500 h1        1 0U8      0.095700
     35 H13         1.5940   -0.6870   -0.6630 h1        1 0U8      0.081200
     36 H14         2.8760   -1.4510   -2.1420 ho        1 0U8      0.414000
     37 H15         0.9580    0.4220   -3.0040 h1        1 0U8      0.071200
     38 H16         1.6140    1.9710   -1.7680 ho        1 0U8      0.425500
     39 H17         0.6550    0.4770    3.4250 h1        1 0U8      0.071200
     40 H18         2.6520    0.5230    2.8180 ho        1 0U8      0.425500
     41 H19         0.9760    2.2620    1.4750 h1        1 0U8      0.081200
     42 H20         0.1950    3.3490    3.0550 ho        1 0U8      0.414000
@<TRIPOS>BOND
     1    1    2 1   
     2    1   23 1   
     3    2    3 1   
     4    2   24 1   
     5    2   25 1   
     6    3    4 1   
     7    3   14 1   
     8    3   17 1   
     9    4    5 1   
    10    5    6 1   
    11    5   26 1   
    12    5   27 1   
    13    6    7 1   
    14    6   21 1   
    15    6   28 1   
    16    7    8 1   
    17    8    9 1   
    18    8   11 1   
    19    8   19 1   
    20    9   10 1   
    21    9   29 1   
    22    9   30 1   
    23   10   31 1   
    24   11   12 1   
    25   12   13 1   
    26   12   32 1   
    27   12   33 1   
    28   13   14 1   
    29   13   15 1   
    30   13   34 1   
    31   15   16 1   
    32   15   17 1   
    33   15   35 1   
    34   16   36 1   
    35   17   18 1   
    36   17   37 1   
    37   18   38 1   
    38   19   20 1   
    39   19   21 1   
    40   19   39 1   
    41   20   40 1   
    42   21   22 1   
    43   21   41 1   
    44   22   42 1   
@<TRIPOS>SUBSTRUCTURE
     1 0U8         1 TEMP              0 ****  ****    0 ROOT
