@<TRIPOS>MOLECULE
0U8
   42    44     1     0     0
SMALL
bcc


@<TRIPOS>ATOM
      1 O1'         0.1440    0.1820   -0.0740 oh        1 0U8     -0.588800
      2 C1'         1.5500    0.2370   -0.0470 c3        1 0U8      0.136400
      3 C2'         2.1250    0.0860    1.3750 c3        1 0U8      0.282100
      4 O6          1.5340    1.1060    2.1530 os        1 0U8     -0.410600
      5 C6          1.8480    1.1290    3.5410 c3        1 0U8      0.121400
      6 C5          0.6660    0.6600    4.3890 c3        1 0U8      0.108100
      7 O5          0.4830   -0.7580    4.2770 os        1 0U8     -0.415600
      8 C2          1.2300   -1.4290    5.2870 c3        1 0U8      0.282100
      9 C1          0.4290   -2.6650    5.7350 c3        1 0U8      0.136400
     10 O1         -0.6360   -2.3130    6.5880 oh        1 0U8     -0.588800
     11 O2          2.4860   -1.7340    4.7120 os        1 0U8     -0.410600
     12 C6'         2.4910   -2.6540    3.6290 c3        1 0U8      0.121400
     13 C5'         2.7720   -1.9950    2.2830 c3        1 0U8      0.108100
     14 O5'         1.6710   -1.1450    1.9260 os        1 0U8     -0.415600
     15 C4'         4.0590   -1.1510    2.2350 c3        1 0U8      0.093600
     16 O4'         5.0500   -1.9180    1.5800 oh        1 0U8     -0.592300
     17 C3'         3.6750    0.0930    1.3970 c3        1 0U8      0.096600
     18 O3'         4.2310    1.2370    2.0100 oh        1 0U8     -0.577800
     19 C3          1.4590   -0.4140    6.4480 c3        1 0U8      0.096600
     20 O3          2.8300   -0.3630    6.7660 oh        1 0U8     -0.577800
     21 C4          0.9730    0.9440    5.8760 c3        1 0U8      0.093600
     22 O4         -0.1850    1.3050    6.6040 oh        1 0U8     -0.592300
     23 H1         -0.1320   -0.5030    0.5500 ho        1 0U8      0.420000
     24 H2          1.9790   -0.5850   -0.6810 h1        1 0U8      0.061200
     25 H3          1.8210    1.2430   -0.4630 h1        1 0U8      0.061200
     26 H4          2.7470    0.5010    3.7790 h1        1 0U8      0.065950
     27 H5          2.0590    2.2130    3.7560 h1        1 0U8      0.065950
     28 H6         -0.2990    1.1070    4.0350 h1        1 0U8      0.084200
     29 H7          1.0930   -3.3340    6.3430 h1        1 0U8      0.061200
     30 H8          0.0310   -3.2110    4.8390 h1        1 0U8      0.061200
     31 H9         -1.1920   -1.6840    6.1080 ho        1 0U8      0.420000
     32 H10         3.3400   -3.3560    3.8600 h1        1 0U8      0.065950
     33 H11         1.5280   -3.2190    3.5470 h1        1 0U8      0.065950
     34 H12         2.8250   -2.8070    1.5010 h1        1 0U8      0.084200
     35 H13         4.3960   -0.8530    3.2650 h1        1 0U8      0.078200
     36 H14         5.8750   -1.4240    1.6580 ho        1 0U8      0.412500
     37 H15         4.0810    0.0060    0.3530 h1        1 0U8      0.084200
     38 H16         3.6460    1.9830    1.8160 ho        1 0U8      0.413500
     39 H17         0.8360   -0.7120    7.3360 h1        1 0U8      0.084200
     40 H18         2.8890    0.0230    7.6490 ho        1 0U8      0.413500
     41 H19         1.7620    1.7330    5.9950 h1        1 0U8      0.078200
     42 H20        -0.5460    2.0960    6.1860 ho        1 0U8      0.412500
@<TRIPOS>BOND
     1    1    2 1   
     2    1   23 1   
     3    2    3 1   
     4    2   24 1   
     5    2   25 1   
     6    3    4 1   
     7    3   14 1   
     8    3   17 1   
     9    4    5 1   
    10    5    6 1   
    11    5   26 1   
    12    5   27 1   
    13    6    7 1   
    14    6   21 1   
    15    6   28 1   
    16    7    8 1   
    17    8    9 1   
    18    8   11 1   
    19    8   19 1   
    20    9   10 1   
    21    9   29 1   
    22    9   30 1   
    23   10   31 1   
    24   11   12 1   
    25   12   13 1   
    26   12   32 1   
    27   12   33 1   
    28   13   14 1   
    29   13   15 1   
    30   13   34 1   
    31   15   16 1   
    32   15   17 1   
    33   15   35 1   
    34   16   36 1   
    35   17   18 1   
    36   17   37 1   
    37   18   38 1   
    38   19   20 1   
    39   19   21 1   
    40   19   39 1   
    41   20   40 1   
    42   21   22 1   
    43   21   41 1   
    44   22   42 1   
@<TRIPOS>SUBSTRUCTURE
     1 0U8         1 TEMP              0 ****  ****    0 ROOT
