@<TRIPOS>MOLECULE
0U8
   42    44     1     0     0
SMALL
bcc


@<TRIPOS>ATOM
      1 O1'         3.0470    2.0390   -2.0560 oh        1 0U8     -0.592300
      2 C1'         3.4070    1.3550   -0.8800 c3        1 0U8      0.137400
      3 C2'         2.2070    0.6560   -0.2060 c3        1 0U8      0.287100
      4 O6          1.3050    1.6940    0.1040 os        1 0U8     -0.433100
      5 C6          0.1480    1.3660    0.8620 c3        1 0U8      0.134900
      6 C5         -1.1150    1.4700    0.0070 c3        1 0U8      0.124100
      7 O5         -1.1670    0.4070   -0.9580 os        1 0U8     -0.406100
      8 C2         -1.8670   -0.7100   -0.4250 c3        1 0U8      0.287100
      9 C1         -2.7970   -1.2560   -1.5230 c3        1 0U8      0.137400
     10 O1         -3.9620   -0.4700   -1.6390 oh        1 0U8     -0.592300
     11 O2         -0.8850   -1.6430   -0.0120 os        1 0U8     -0.433100
     12 C6'         0.0510   -2.0570   -1.0010 c3        1 0U8      0.134900
     13 C5'         1.4570   -1.5240   -0.7400 c3        1 0U8      0.124100
     14 O5'         1.5250   -0.1550   -1.1570 os        1 0U8     -0.406100
     15 C4'         1.9220   -1.5970    0.7250 c3        1 0U8      0.092100
     16 O4'         2.8120   -2.6920    0.8380 oh        1 0U8     -0.590300
     17 C3'         2.6590   -0.2560    0.9650 c3        1 0U8      0.081100
     18 O3'         2.2930    0.3360    2.1930 oh        1 0U8     -0.583300
     19 C3         -2.6400   -0.2430    0.8430 c3        1 0U8      0.081100
     20 O3         -2.1810   -0.8210    2.0460 oh        1 0U8     -0.583300
     21 C4         -2.3470    1.2780    0.9200 c3        1 0U8      0.092100
     22 O4         -3.4070    2.0240    0.3520 oh        1 0U8     -0.590300
     23 H1          2.2060    2.4840   -1.8880 ho        1 0U8      0.424000
     24 H2          4.1590    0.5860   -1.2000 h1        1 0U8      0.059450
     25 H3          3.8570    2.0680   -0.1390 h1        1 0U8      0.059450
     26 H4          0.2040    0.3360    1.3020 h1        1 0U8      0.067200
     27 H5          0.1200    2.1360    1.6800 h1        1 0U8      0.067200
     28 H6         -1.1510    2.4150   -0.5930 h1        1 0U8      0.094200
     29 H7         -2.2530   -1.2840   -2.5040 h1        1 0U8      0.059450
     30 H8         -3.1520   -2.2820   -1.2440 h1        1 0U8      0.059450
     31 H9         -3.6800    0.4520   -1.7360 ho        1 0U8      0.424000
     32 H10         0.0720   -3.1790   -0.9210 h1        1 0U8      0.067200
     33 H11        -0.2630   -1.7360   -2.0280 h1        1 0U8      0.067200
     34 H12         2.1730   -2.1000   -1.3950 h1        1 0U8      0.094200
     35 H13         1.0500   -1.7060    1.4250 h1        1 0U8      0.080200
     36 H14         2.8850   -2.8960    1.7770 ho        1 0U8      0.408500
     37 H15         3.7700   -0.4170    0.9150 h1        1 0U8      0.073700
     38 H16         2.7920   -0.1240    2.8800 ho        1 0U8      0.415500
     39 H17        -3.7370   -0.4490    0.7160 h1        1 0U8      0.073700
     40 H18        -1.9910   -1.7520    1.8700 ho        1 0U8      0.415500
     41 H19        -2.1520    1.5970    1.9760 h1        1 0U8      0.080200
     42 H20        -4.1680    1.9220    0.9380 ho        1 0U8      0.408500
@<TRIPOS>BOND
     1    1    2 1   
     2    1   23 1   
     3    2    3 1   
     4    2   24 1   
     5    2   25 1   
     6    3    4 1   
     7    3   14 1   
     8    3   17 1   
     9    4    5 1   
    10    5    6 1   
    11    5   26 1   
    12    5   27 1   
    13    6    7 1   
    14    6   21 1   
    15    6   28 1   
    16    7    8 1   
    17    8    9 1   
    18    8   11 1   
    19    8   19 1   
    20    9   10 1   
    21    9   29 1   
    22    9   30 1   
    23   10   31 1   
    24   11   12 1   
    25   12   13 1   
    26   12   32 1   
    27   12   33 1   
    28   13   14 1   
    29   13   15 1   
    30   13   34 1   
    31   15   16 1   
    32   15   17 1   
    33   15   35 1   
    34   16   36 1   
    35   17   18 1   
    36   17   37 1   
    37   18   38 1   
    38   19   20 1   
    39   19   21 1   
    40   19   39 1   
    41   20   40 1   
    42   21   22 1   
    43   21   41 1   
    44   22   42 1   
@<TRIPOS>SUBSTRUCTURE
     1 0U8         1 TEMP              0 ****  ****    0 ROOT
