@<TRIPOS>MOLECULE
0U9
   44    45     1     0     0
SMALL
bcc


@<TRIPOS>ATOM
      1 F1         -1.3170    2.1150   -1.3700 f         1 0U9     -0.210967
      2 C2         -0.2840    1.3980   -0.8180 c3        1 0U9      0.692200
      3 F3         -0.4990    1.4650    0.5330 f         1 0U9     -0.210967
      4 F4         -0.5350    0.0990   -1.1690 f         1 0U9     -0.210967
      5 C5          1.1070    1.8960   -1.2460 ca        1 0U9     -0.127300
      6 C6          1.1880    2.9590   -2.1450 ca        1 0U9     -0.064000
      7 C7          2.2770    1.2970   -0.7490 ca        1 0U9      0.116000
      8 C8          2.2240    0.2110    0.1660 cg        1 0U9      0.170800
      9 N9          2.1880   -0.6780    0.9160 n1        1 0U9     -0.229800
     10 C10         3.5320    1.7760   -1.1610 ca        1 0U9     -0.084000
     11 C11         3.6280    2.8350   -2.0580 ca        1 0U9     -0.077000
     12 C12         2.4500    3.4240   -2.5530 ca        1 0U9     -0.045400
     13 N13         2.5310    4.5230   -3.5180 n4        1 0U9     -0.542200
     14 C14         2.4980    5.8860   -2.8390 c         1 0U9      0.550100
     15 O15         3.5870    6.3600   -2.5670 o         1 0U9     -0.405100
     16 C16         1.1210    6.5220   -2.5710 c3        1 0U9      0.185800
     17 O17         0.1790    5.7900   -3.3410 oh        1 0U9     -0.654800
     18 C18         0.8420    6.3830   -1.0770 c3        1 0U9     -0.153100
     19 C19         1.2030    7.9760   -3.0180 c3        1 0U9     -0.335600
     20 S20        -0.1910    8.9630   -2.5800 sy        1 0U9      1.414300
     21 O21        -1.2840    8.0990   -2.7710 o         1 0U9     -0.648800
     22 O22         0.0500    9.4420   -1.2950 o         1 0U9     -0.648800
     23 C23        -0.0980   10.1320   -3.7210 ca        1 0U9     -0.474500
     24 C24        -0.7680   10.0020   -4.9510 ca        1 0U9      0.020500
     25 C25         0.5990   11.3280   -3.4670 ca        1 0U9      0.020500
     26 C26         0.6490   12.3500   -4.4020 ca        1 0U9     -0.192000
     27 C27        -0.0210   12.1930   -5.6340 ca        1 0U9      0.232900
     28 F28         0.0200   13.1750   -6.5520 f         1 0U9     -0.101900
     29 C29        -0.7380   11.0060   -5.9040 ca        1 0U9     -0.192000
     30 H1          0.2580    3.4290   -2.5250 ha        1 0U9      0.193000
     31 H2          4.4520    1.3070   -0.7690 ha        1 0U9      0.191000
     32 H3          4.6260    3.1940   -2.3650 ha        1 0U9      0.173000
     33 H4          1.7230    4.4650   -4.1590 hn        1 0U9      0.475800
     34 H5         -0.7120    6.1470   -3.1610 ho        1 0U9      0.499000
     35 H6          1.6310    6.9030   -0.4800 hc        1 0U9      0.087700
     36 H7         -0.1490    6.8490   -0.8380 hc        1 0U9      0.087700
     37 H8          0.8010    5.3050   -0.7900 hc        1 0U9      0.087700
     38 H9          2.1250    8.4350   -2.5660 h1        1 0U9      0.128700
     39 H10         1.3470    7.9980   -4.1290 h1        1 0U9      0.128700
     40 H11        -1.3510    9.0830   -5.1510 ha        1 0U9      0.164000
     41 H12         1.1020   11.4620   -2.4910 ha        1 0U9      0.164000
     42 H13         1.1930   13.2840   -4.1920 ha        1 0U9      0.176000
     43 H14        -1.2710   10.8980   -6.8610 ha        1 0U9      0.176000
     44 H132        3.4030    4.4310   -4.0550 hn        1 0U9      0.475800
@<TRIPOS>BOND
     1    1    2 1   
     2    2    3 1   
     3    2    4 1   
     4    2    5 1   
     5    5    6 ar  
     6    5    7 ar  
     7    6   12 ar  
     8    6   30 1   
     9    7    8 1   
    10    7   10 ar  
    11    8    9 3   
    12   10   11 ar  
    13   10   31 1   
    14   11   12 ar  
    15   11   32 1   
    16   12   13 1   
    17   13   14 1   
    18   13   33 1   
    19   13   44 1   
    20   14   15 2   
    21   14   16 1   
    22   16   17 1   
    23   16   18 1   
    24   16   19 1   
    25   17   34 1   
    26   18   35 1   
    27   18   36 1   
    28   18   37 1   
    29   19   20 1   
    30   19   38 1   
    31   19   39 1   
    32   20   21 2   
    33   20   22 2   
    34   20   23 1   
    35   23   24 ar  
    36   23   25 ar  
    37   24   29 ar  
    38   24   40 1   
    39   25   26 ar  
    40   25   41 1   
    41   26   27 ar  
    42   26   42 1   
    43   27   28 1   
    44   27   29 ar  
    45   29   43 1   
@<TRIPOS>SUBSTRUCTURE
     1 0U9         1 TEMP              0 ****  ****    0 ROOT
