@<TRIPOS>MOLECULE
0U9
   43    44     1     0     0
SMALL
bcc


@<TRIPOS>ATOM
      1 F1          0.8610   -0.1600   -3.0360 f         1 0U9     -0.229967
      2 C2          1.9300   -0.1000   -2.1740 c3        1 0U9      0.686200
      3 F3          1.6600   -1.0760   -1.2470 f         1 0U9     -0.229967
      4 F4          2.9740   -0.6000   -2.9120 f         1 0U9     -0.229967
      5 C5          2.1880    1.2850   -1.5760 ca        1 0U9     -0.100300
      6 C6          1.3620    2.3380   -1.9530 ca        1 0U9     -0.150000
      7 C7          3.2370    1.4910   -0.6670 ca        1 0U9      0.003000
      8 C8          4.0990    0.4370   -0.2640 cg        1 0U9      0.219800
      9 N9          4.8120   -0.4180    0.0750 n1        1 0U9     -0.329800
     10 C10         3.4380    2.7760   -0.1440 ca        1 0U9     -0.071000
     11 C11         2.6190    3.8380   -0.5090 ca        1 0U9     -0.141000
     12 C12         1.5620    3.6390   -1.4240 ca        1 0U9      0.092600
     13 N13         0.6820    4.6550   -1.8160 n         1 0U9     -0.452100
     14 C14         0.8280    6.0160   -1.5940 c         1 0U9      0.674100
     15 O15         1.7570    6.5080   -0.9320 o         1 0U9     -0.585100
     16 C16        -0.2890    6.9410   -2.1540 c3        1 0U9      0.147800
     17 O17        -0.8150    6.3350   -3.3260 oh        1 0U9     -0.621800
     18 C18        -1.3520    7.0810   -1.0700 c3        1 0U9     -0.146100
     19 C19         0.3520    8.2870   -2.4980 c3        1 0U9     -0.351600
     20 S20        -0.7090    9.5220   -3.0520 sy        1 0U9      1.396300
     21 O21        -1.8470    8.8980   -3.6000 o         1 0U9     -0.659800
     22 O22        -0.9150   10.4380   -2.0130 o         1 0U9     -0.659800
     23 C23         0.2220   10.2040   -4.2520 ca        1 0U9     -0.420500
     24 C24         0.2100    9.6840   -5.5550 ca        1 0U9      0.013000
     25 C25         1.0040   11.3390   -3.9910 ca        1 0U9      0.013000
     26 C26         1.7660   11.9360   -4.9860 ca        1 0U9     -0.194000
     27 C27         1.7480   11.3930   -6.2860 ca        1 0U9      0.202900
     28 F28         2.4850   11.9610   -7.2630 f         1 0U9     -0.122900
     29 C29         0.9600   10.2590   -6.5710 ca        1 0U9     -0.194000
     30 H1          0.5460    2.1470   -2.6710 ha        1 0U9      0.160000
     31 H2          4.2600    2.9480    0.5700 ha        1 0U9      0.157000
     32 H3          2.8110    4.8350   -0.0770 ha        1 0U9      0.185000
     33 H4         -0.0440    4.3870   -2.4500 hn        1 0U9      0.342500
     34 H5         -1.6560    6.7730   -3.5340 ho        1 0U9      0.454000
     35 H6         -1.8130    6.0850   -0.8630 hc        1 0U9      0.069033
     36 H7         -2.1560    7.7800   -1.4080 hc        1 0U9      0.069033
     37 H8         -0.8930    7.4750   -0.1320 hc        1 0U9      0.069033
     38 H9          0.8970    8.6340   -1.5730 h1        1 0U9      0.140200
     39 H10         1.1630    8.0720   -3.2460 h1        1 0U9      0.140200
     40 H11        -0.4210    8.8030   -5.7770 ha        1 0U9      0.163500
     41 H12         1.0020   11.7730   -2.9740 ha        1 0U9      0.163500
     42 H13         2.3770   12.8260   -4.7740 ha        1 0U9      0.163500
     43 H14         0.9450    9.8460   -7.5900 ha        1 0U9      0.163500
@<TRIPOS>BOND
     1    1    2 1   
     2    2    3 1   
     3    2    4 1   
     4    2    5 1   
     5    5    6 ar  
     6    5    7 ar  
     7    6   12 ar  
     8    6   30 1   
     9    7    8 1   
    10    7   10 ar  
    11    8    9 3   
    12   10   11 ar  
    13   10   31 1   
    14   11   12 ar  
    15   11   32 1   
    16   12   13 1   
    17   13   14 1   
    18   13   33 1   
    19   14   15 2   
    20   14   16 1   
    21   16   17 1   
    22   16   18 1   
    23   16   19 1   
    24   17   34 1   
    25   18   35 1   
    26   18   36 1   
    27   18   37 1   
    28   19   20 1   
    29   19   38 1   
    30   19   39 1   
    31   20   21 2   
    32   20   22 2   
    33   20   23 1   
    34   23   24 ar  
    35   23   25 ar  
    36   24   29 ar  
    37   24   40 1   
    38   25   26 ar  
    39   25   41 1   
    40   26   27 ar  
    41   26   42 1   
    42   27   28 1   
    43   27   29 ar  
    44   29   43 1   
@<TRIPOS>SUBSTRUCTURE
     1 0U9         1 TEMP              0 ****  ****    0 ROOT
