@<TRIPOS>MOLECULE
0U9
   43    37     1     0     0
SMALL
bcc


@<TRIPOS>ATOM
      1 F1          0.3610   -6.7600    2.7340 f         1 0U9     -0.158333
      2 C2          0.7150   -5.6000    3.3030 c3        1 0U9      0.465000
      3 F3         -0.3310   -5.0900    3.9660 f         1 0U9     -0.158333
      4 F4          1.7240   -5.8130    4.1580 f         1 0U9     -0.158333
      5 C5          1.1580   -4.6270    2.2330 c2        1 0U9     -0.093000
      6 C6          0.2520   -3.7200    1.7050 c1        1 0U9     -0.149000
      7 C7          2.4490   -4.6890    1.7320 c2        1 0U9      0.007000
      8 C8          3.4530   -5.6400    2.3450 c1        1 0U9     -0.110000
      9 N9          4.2090   -6.3570    2.8070 n1        1 0U9     -0.005000
     10 C10         2.8340   -3.8430    0.7040 c1        1 0U9     -0.071000
     11 C11         1.9290   -2.9360    0.1760 c1        1 0U9     -0.143000
     12 C12         0.6380   -2.8750    0.6760 c1        1 0U9      0.101000
     13 N13        -0.3110   -2.0010    0.0840 n2        1 0U9     -0.305000
     14 C14        -0.3430   -0.6320    0.4560 c1        1 0U9      0.316000
     15 O15         0.4410   -0.2080    1.2810 o         1 0U9     -0.352000
     16 C16        -1.3810    0.2900   -0.1450 c2        1 0U9      0.132000
     17 O17        -1.7280   -0.1680   -1.4290 oh        1 0U9     -0.348000
     18 C18        -2.6120    0.3060    0.7340 c3        1 0U9     -0.259000
     19 C19        -0.8150    1.6890   -0.2450 c3        1 0U9     -0.890000
     20 S20        -1.5860    2.5440   -1.5940 s4        1 0U9      2.075800
     21 O21        -1.6670    1.7100   -2.7620 o         1 0U9     -0.543900
     22 O22        -2.9770    2.7880   -1.3290 o         1 0U9     -0.543900
     23 C23        -0.7220    4.0530   -1.9390 c1        1 0U9     -0.863000
     24 C24        -1.0160    5.2000   -1.2190 c2        1 0U9      0.010000
     25 C25         0.2750    4.0760   -2.9020 c1        1 0U9      0.012000
     26 C26         0.9770    5.2460   -3.1460 c1        1 0U9     -0.192000
     27 C27         0.6820    6.3930   -2.4260 c1        1 0U9      0.167000
     28 F28         1.3460    7.5290   -2.6760 f         1 0U9     -0.088000
     29 C29        -0.3150    6.3700   -1.4620 c1        1 0U9     -0.194000
     30 H1         -0.6570   -3.6770    2.0570 ha        1 0U9      0.161000
     31 H2          3.7440   -3.8860    0.3520 ha        1 0U9      0.157000
     32 H3          2.2010   -2.3410   -0.5480 ha        1 0U9      0.185000
     33 H4         -0.9010   -2.3200   -0.5330 hn        1 0U9      0.260000
     34 H5         -2.4760   -0.6460   -1.3810 ho        1 0U9      0.253000
     35 H6         -2.3700    0.6270    1.6290 hc        1 0U9      0.105333
     36 H7         -3.2840    0.9030    0.3440 hc        1 0U9      0.105333
     37 H8         -2.9780   -0.6000    0.8000 hc        1 0U9      0.105333
     38 H9         -0.9880    2.1710    0.5880 h1        1 0U9      0.178500
     39 H10         0.1500    1.6400   -0.4000 h1        1 0U9      0.178500
     40 H11        -1.7180    5.1840   -0.5410 ha        1 0U9      0.160000
     41 H12         0.4820    3.2680   -3.4090 ha        1 0U9      0.162000
     42 H13         1.6780    5.2620   -3.8240 ha        1 0U9      0.164000
     43 H14        -0.5220    7.1780   -0.9550 ha        1 0U9      0.163000
@<TRIPOS>BOND
     1    1    2 1   
     2    2    3 1   
     3    2    4 1   
     4    2    5 1   
     5    5    6 1   
     6    5    7 1   
     7    6   30 1   
     8    7    8 1   
     9    7   10 1   
    10    8    9 1   
    11   10   31 1   
    12   11   12 1   
    13   11   32 1   
    14   13   14 1   
    15   13   33 1   
    16   14   15 1   
    17   16   17 1   
    18   16   18 1   
    19   16   19 1   
    20   17   34 1   
    21   18   35 1   
    22   18   36 1   
    23   18   37 1   
    24   19   20 1   
    25   19   38 1   
    26   19   39 1   
    27   20   21 1   
    28   20   22 1   
    29   23   24 1   
    30   23   25 1   
    31   24   29 1   
    32   24   40 1   
    33   25   41 1   
    34   26   27 1   
    35   26   42 1   
    36   27   28 1   
    37   29   43 1   
@<TRIPOS>SUBSTRUCTURE
     1 0U9         1 TEMP              0 ****  ****    0 ROOT
