@<TRIPOS>MOLECULE
0U9
   43    44     1     0     0
SMALL
bcc


@<TRIPOS>ATOM
      1 F1          0.7610   -0.1160   -3.0390 f         1 0U9     -0.229967
      2 C2          1.8410   -0.0630   -2.1890 c3        1 0U9      0.686200
      3 F3          1.5730   -1.0330   -1.2560 f         1 0U9     -0.229967
      4 F4          2.8730   -0.5740   -2.9370 f         1 0U9     -0.229967
      5 C5          2.1160    1.3220   -1.5980 ca        1 0U9     -0.100300
      6 C6          1.2940    2.3810   -1.9680 ca        1 0U9     -0.150000
      7 C7          3.1780    1.5230   -0.7030 ca        1 0U9      0.003000
      8 C8          4.0370    0.4630   -0.3070 cg        1 0U9      0.219800
      9 N9          4.7470   -0.3970    0.0250 n1        1 0U9     -0.329800
     10 C10         3.3960    2.8080   -0.1860 ca        1 0U9     -0.071000
     11 C11         2.5810    3.8740   -0.5440 ca        1 0U9     -0.141000
     12 C12         1.5100    3.6810   -1.4450 ca        1 0U9      0.092600
     13 N13         0.6340    4.7030   -1.8290 ns        1 0U9     -0.452100
     14 C14         0.7920    6.0630   -1.6130 c         1 0U9      0.674100
     15 O15         1.7330    6.5500   -0.9630 o         1 0U9     -0.585100
     16 C16        -0.3240    6.9960   -2.1620 c3        1 0U9      0.147800
     17 O17        -0.8690    6.3900   -3.3260 oh        1 0U9     -0.621800
     18 C18        -1.3720    7.1470   -1.0660 c3        1 0U9     -0.146100
     19 C19         0.3230    8.3350   -2.5190 c3        1 0U9     -0.351600
     20 S20        -0.7340    9.5760   -3.0660 sy        1 0U9      1.396300
     21 O21        -1.8850    8.9600   -3.5950 o         1 0U9     -0.659800
     22 O22        -0.9190   10.4990   -2.0290 o         1 0U9     -0.659800
     23 C23         0.1870   10.2440   -4.2810 ca        1 0U9     -0.420500
     24 C24         0.1570    9.7160   -5.5800 ca        1 0U9      0.013000
     25 C25         0.9810   11.3750   -4.0370 ca        1 0U9      0.013000
     26 C26         1.7350   11.9600   -5.0440 ca        1 0U9     -0.194000
     27 C27         1.6980   11.4090   -6.3410 ca        1 0U9      0.202900
     28 F28         2.4270   11.9660   -7.3300 f         1 0U9     -0.122900
     29 C29         0.8980   10.2790   -6.6080 ca        1 0U9     -0.194000
     30 H1          0.4680    2.1940   -2.6760 ha        1 0U9      0.160000
     31 H2          4.2270    2.9750    0.5180 ha        1 0U9      0.157000
     32 H3          2.7850    4.8720   -0.1170 ha        1 0U9      0.185000
     33 H4         -0.1020    4.4390   -2.4550 hn        1 0U9      0.342500
     34 H5         -1.7100    6.8330   -3.5240 ho        1 0U9      0.454000
     35 H6         -1.8390    6.1560   -0.8500 hc        1 0U9      0.068700
     36 H7         -2.1750    7.8520   -1.3970 hc        1 0U9      0.068700
     37 H8         -0.9000    7.5400   -0.1350 hc        1 0U9      0.068700
     38 H9          1.1240    8.1110   -3.2750 h1        1 0U9      0.140200
     39 H10         0.8810    8.6810   -1.6010 h1        1 0U9      0.140200
     40 H11        -0.4840    8.8380   -5.7880 ha        1 0U9      0.163500
     41 H12         0.9940   11.8150   -3.0220 ha        1 0U9      0.163500
     42 H13         2.3550   12.8470   -4.8450 ha        1 0U9      0.163500
     43 H14         0.8680    9.8590   -7.6250 ha        1 0U9      0.163500
@<TRIPOS>BOND
     1    1    2 1   
     2    2    3 1   
     3    2    4 1   
     4    2    5 1   
     5    5    6 ar  
     6    5    7 ar  
     7    6   12 ar  
     8    6   30 1   
     9    7    8 1   
    10    7   10 ar  
    11    8    9 3   
    12   10   11 ar  
    13   10   31 1   
    14   11   12 ar  
    15   11   32 1   
    16   12   13 1   
    17   13   14 1   
    18   13   33 1   
    19   14   15 2   
    20   14   16 1   
    21   16   17 1   
    22   16   18 1   
    23   16   19 1   
    24   17   34 1   
    25   18   35 1   
    26   18   36 1   
    27   18   37 1   
    28   19   20 1   
    29   19   38 1   
    30   19   39 1   
    31   20   21 2   
    32   20   22 2   
    33   20   23 1   
    34   23   24 ar  
    35   23   25 ar  
    36   24   29 ar  
    37   24   40 1   
    38   25   26 ar  
    39   25   41 1   
    40   26   27 ar  
    41   26   42 1   
    42   27   28 1   
    43   27   29 ar  
    44   29   43 1   
@<TRIPOS>SUBSTRUCTURE
     1 0U9         1 TEMP              0 ****  ****    0 ROOT
