@<TRIPOS>MOLECULE
0U9
   43    44     1     0     0
SMALL
bcc


@<TRIPOS>ATOM
      1 F1          5.9050   -1.9520   -1.1540 f         1 0U9     -0.229300
      2 C2          6.1290   -0.6170   -0.9130 c3        1 0U9      0.686200
      3 F3          7.1530   -0.6160    0.0020 f         1 0U9     -0.229300
      4 F4          6.7010   -0.1650   -2.0760 f         1 0U9     -0.229300
      5 C5          4.8890    0.1660   -0.4730 ca        1 0U9     -0.099300
      6 C6          3.6780   -0.5070   -0.3670 ca        1 0U9     -0.150000
      7 C7          4.9710    1.5370   -0.1840 ca        1 0U9      0.003000
      8 C8          6.1940    2.2540   -0.2830 cg        1 0U9      0.219800
      9 N9          7.1890    2.8520   -0.3610 n1        1 0U9     -0.329800
     10 C10         3.8120    2.2160    0.2150 ca        1 0U9     -0.070000
     11 C11         2.5940    1.5560    0.3270 ca        1 0U9     -0.144000
     12 C12         2.5030    0.1770    0.0370 ca        1 0U9      0.093600
     13 N13         1.3140   -0.5540    0.1370 n         1 0U9     -0.459100
     14 C14         0.0470   -0.0700    0.4200 c         1 0U9      0.639100
     15 O15        -0.1990    1.1270    0.6480 o         1 0U9     -0.584100
     16 C16        -1.0840   -1.1350    0.4870 c3        1 0U9      0.139800
     17 O17        -0.8550   -2.1620   -0.4660 oh        1 0U9     -0.597800
     18 C18        -1.0170   -1.8000    1.8600 c3        1 0U9     -0.109100
     19 C19        -2.4180   -0.4270    0.2700 c3        1 0U9     -0.343600
     20 S20        -3.7640   -1.4320   -0.1210 sy        1 0U9      1.402300
     21 O21        -3.5010   -1.9800   -1.3860 o         1 0U9     -0.650800
     22 O22        -4.0440   -2.2900    0.9460 o         1 0U9     -0.650800
     23 C23        -4.9380   -0.2530   -0.2340 ca        1 0U9     -0.421500
     24 C24        -5.1840    0.4020   -1.4500 ca        1 0U9      0.011500
     25 C25        -5.7310    0.0780    0.8750 ca        1 0U9      0.011500
     26 C26        -6.7280    1.0390    0.7920 ca        1 0U9     -0.193000
     27 C27        -6.9520    1.6940   -0.4360 ca        1 0U9      0.201900
     28 F28        -7.9170    2.6320   -0.5320 f         1 0U9     -0.122900
     29 C29        -6.1740    1.3670   -1.5660 ca        1 0U9     -0.193000
     30 H1          3.6430   -1.5850   -0.6020 ha        1 0U9      0.161000
     31 H2          3.8660    3.2920    0.4460 ha        1 0U9      0.157000
     32 H3          1.7040    2.1260    0.6450 ha        1 0U9      0.185000
     33 H4          1.3760   -1.5310   -0.0720 hn        1 0U9      0.341500
     34 H5         -1.1890   -1.8690   -1.3270 ho        1 0U9      0.435000
     35 H6         -0.9960   -1.0180    2.6550 hc        1 0U9      0.069033
     36 H7         -1.9110   -2.4560    2.0070 hc        1 0U9      0.069033
     37 H8         -0.0990   -2.4310    1.9310 hc        1 0U9      0.069033
     38 H9         -2.6140    0.1800    1.1960 h1        1 0U9      0.131200
     39 H10        -2.2730    0.3410   -0.5400 h1        1 0U9      0.131200
     40 H11        -4.5840    0.1310   -2.3380 ha        1 0U9      0.162000
     41 H12        -5.5640   -0.4520    1.8320 ha        1 0U9      0.162000
     42 H13        -7.3460    1.2920    1.6660 ha        1 0U9      0.163000
     43 H14        -6.3610    1.8760   -2.5230 ha        1 0U9      0.163000
@<TRIPOS>BOND
     1    1    2 1   
     2    2    3 1   
     3    2    4 1   
     4    2    5 1   
     5    5    6 ar  
     6    5    7 ar  
     7    6   12 ar  
     8    6   30 1   
     9    7    8 1   
    10    7   10 ar  
    11    8    9 3   
    12   10   11 ar  
    13   10   31 1   
    14   11   12 ar  
    15   11   32 1   
    16   12   13 1   
    17   13   14 1   
    18   13   33 1   
    19   14   15 2   
    20   14   16 1   
    21   16   17 1   
    22   16   18 1   
    23   16   19 1   
    24   17   34 1   
    25   18   35 1   
    26   18   36 1   
    27   18   37 1   
    28   19   20 1   
    29   19   38 1   
    30   19   39 1   
    31   20   21 2   
    32   20   22 2   
    33   20   23 1   
    34   23   24 ar  
    35   23   25 ar  
    36   24   29 ar  
    37   24   40 1   
    38   25   26 ar  
    39   25   41 1   
    40   26   27 ar  
    41   26   42 1   
    42   27   28 1   
    43   27   29 ar  
    44   29   43 1   
@<TRIPOS>SUBSTRUCTURE
     1 0U9         1 TEMP              0 ****  ****    0 ROOT
