@<TRIPOS>MOLECULE
0UA
   31    32     1     0     0
SMALL
bcc


@<TRIPOS>ATOM
      1 O1          0.2910   -0.5240    1.1370 oh        1 0UA     -0.202000
      2 C2          1.5540   -0.2080    0.7530 c2        1 0UA      0.114000
      3 C3          2.2550    0.7520    1.4490 c2        1 0UA     -0.197000
      4 C4          3.5970    1.0710    1.0820 c2        1 0UA      0.093000
      5 C5          4.2260    0.4200    0.0340 c2        1 0UA     -0.165000
      6 C6          3.5650   -0.5400   -0.7590 c1        1 0UA     -0.033000
      7 C7          2.2160   -0.9610   -0.3650 c3        1 0UA     -0.131000
      8 CL9         1.5810    1.6030    2.7520 cl        1 0UA      0.036000
      9 C10         5.5900    0.7710   -0.2980 c2        1 0UA      0.045000
     10 O11         6.2870   -0.0050   -1.2350 os        1 0UA     -0.083000
     11 N14         6.4020    1.7660    0.1420 n2        1 0UA     -0.102000
     12 N13         7.5700    1.6700   -0.4570 n2        1 0UA     -0.073000
     13 C12         7.5490    0.6120   -1.3010 c2        1 0UA     -0.011000
     14 C15         8.5420    0.0480   -2.2000 c2        1 0UA     -0.111000
     15 C16         8.2010   -0.8780   -3.1130 c2        1 0UA     -0.083000
     16 C17        13.1840    1.4890   -1.7520 c1        1 0UA     -0.136000
     17 C18        12.2140    0.7920   -1.8360 c1        1 0UA     -0.162000
     18 C20         9.8670    0.6460   -2.0750 c2        1 0UA      0.120000
     19 C19        11.0510    0.0020   -1.9340 c2        1 0UA     -0.766000
     20 S21        11.3000   -1.6590   -1.7760 s6        1 0UA      2.922000
     21 O23        11.2470   -2.0530   -0.4570 o         1 0UA     -0.954500
     22 O22        10.5690   -2.3450   -2.7310 o         1 0UA     -0.954500
     23 H1         -0.1020   -1.1110    0.4660 ho        1 0UA      0.246000
     24 H2          4.1140    1.8650    1.6560 ha        1 0UA      0.182000
     25 H3          2.3250   -2.0440   -0.0410 h1        1 0UA      0.191000
     26 H4          7.1670   -1.2500   -3.1940 ha        1 0UA      0.161000
     27 H5          8.9260   -1.3190   -3.8160 ha        1 0UA      0.161000
     28 H6         14.0600    2.0840   -1.6740 ha        1 0UA      0.234000
     29 H7          9.8570    1.7580   -2.0800 ha        1 0UA      0.164000
     30 F1         12.7530   -1.8850   -2.1930 f         1 0UA     -0.482000
     31 CL8         1.1830   -0.9790   -1.7920 cl        1 0UA     -0.023000
@<TRIPOS>BOND
     1    1    2 1   
     2    1   23 1   
     3    2    3 1   
     4    2    7 1   
     5    3    4 1   
     6    3    8 1   
     7    4    5 1   
     8    4   24 1   
     9    5    6 1   
    10    5    9 1   
    11    6    7 1   
    12    7   25 1   
    13    7   31 1   
    14    9   10 1   
    15    9   11 1   
    16   10   13 1   
    17   11   12 1   
    18   12   13 1   
    19   13   14 1   
    20   14   15 1   
    21   14   18 1   
    22   15   26 1   
    23   15   27 1   
    24   16   17 1   
    25   16   28 1   
    26   17   19 1   
    27   18   19 1   
    28   18   29 1   
    29   19   20 1   
    30   20   21 1   
    31   20   22 1   
    32   20   30 1   
@<TRIPOS>SUBSTRUCTURE
     1 0UA         1 TEMP              0 ****  ****    0 ROOT
