@<TRIPOS>MOLECULE
0UA
   31    26     1     0     0
SMALL
bcc


@<TRIPOS>ATOM
      1 O1         -6.8140    0.4070    1.1820 oh        1 0UA     -0.221000
      2 C2         -5.4070    0.3950    1.1870 c2        1 0UA      0.126000
      3 C3         -4.7030    1.5890    1.1850 c1        1 0UA     -0.097000
      4 C4         -3.3180    1.5780    1.1450 c1        1 0UA     -0.058000
      5 C5         -2.6360    0.3720    1.1080 c1        1 0UA     -0.056000
      6 C6         -3.3390   -0.8220    1.1110 c1        1 0UA     -0.034000
      7 CL8        -5.6080   -2.3140    1.1770 cl        1 0UA      0.009000
      8 C7         -4.7240   -0.8110    1.1510 c1        1 0UA     -0.158000
      9 CL9        -5.5630    3.1070    1.2010 cl        1 0UA      0.030000
     10 C10        -1.1220    0.3590    1.1020 c2        1 0UA      0.028000
     11 O11        -0.3340    0.3660    0.0070 os        1 0UA     -0.133000
     12 N14        -0.3290    0.3020    2.1840 n2        1 0UA     -0.075000
     13 N13         0.9550    0.2730    1.7610 n2        1 0UA     -0.064000
     14 C12         0.9500    0.3130    0.4180 c1        1 0UA      0.007000
     15 C15         2.1710    0.3020   -0.4770 c1        1 0UA     -0.051000
     16 C16         2.6500    1.4900   -1.0070 c2        1 0UA     -0.024000
     17 C17         3.8180    1.4940   -1.7550 c1        1 0UA     -0.161000
     18 C18         4.5060    0.3100   -1.9720 c1        1 0UA      0.013000
     19 C20         2.8600   -0.8810   -0.6940 c1        1 0UA      0.040000
     20 C19         4.0270   -0.8770   -1.4420 c1        1 0UA     -0.899000
     21 S21         4.9460   -2.3780   -1.6580 s4        1 0UA      2.141800
     22 O23         4.0740   -3.5180   -1.7300 o         1 0UA     -0.557900
     23 O22         5.5720   -2.4250   -2.9500 o         1 0UA     -0.557900
     24 H1         -7.1170   -0.0890    1.8550 ho        1 0UA      0.239000
     25 H2         -2.8230    2.4190    1.1430 ha        1 0UA      0.165000
     26 H3         -2.8580   -1.6720    1.0850 ha        1 0UA      0.179000
     27 H4          2.1660    2.3230   -0.8540 ha        1 0UA      0.156000
     28 H5          4.1550    2.3300   -2.1280 ha        1 0UA      0.154000
     29 H6          5.3280    0.3130   -2.4990 ha        1 0UA      0.166000
     30 H7          2.5220   -1.7180   -0.3210 ha        1 0UA      0.183000
     31 F1          5.9930   -2.5390   -0.5160 f         1 0UA     -0.489000
@<TRIPOS>BOND
     1    1    2 1   
     2    1   24 1   
     3    2    3 1   
     4    2    8 1   
     5    3    4 1   
     6    4   25 1   
     7    5    6 1   
     8    5   10 1   
     9    6   26 1   
    10    7    8 1   
    11   10   11 1   
    12   10   12 1   
    13   11   14 1   
    14   12   13 1   
    15   13   14 1   
    16   15   16 1   
    17   15   19 1   
    18   16   17 1   
    19   16   27 1   
    20   17   28 1   
    21   18   20 1   
    22   18   29 1   
    23   19   30 1   
    24   20   21 1   
    25   21   22 1   
    26   21   23 1   
@<TRIPOS>SUBSTRUCTURE
     1 0UA         1 TEMP              0 ****  ****    0 ROOT
