@<TRIPOS>MOLECULE
0UA
   31    32     1     0     0
SMALL
bcc


@<TRIPOS>ATOM
      1 O1          0.2910   -0.5050    1.1400 oh        1 0UA     -0.202000
      2 C2          1.5490   -0.1920    0.7380 c2        1 0UA      0.114000
      3 C3          2.2230    0.8370    1.3570 c2        1 0UA     -0.197000
      4 C4          3.5610    1.1560    0.9710 c2        1 0UA      0.093000
      5 C5          4.2110    0.4370   -0.0170 c2        1 0UA     -0.165000
      6 C6          3.5780   -0.6000   -0.7320 c1        1 0UA     -0.033000
      7 C7          2.2350   -1.0180   -0.3120 c3        1 0UA     -0.131000
      8 CL9         1.5210    1.7760    2.5830 cl        1 0UA      0.036000
      9 C10         5.5700    0.7910   -0.3690 c2        1 0UA      0.045000
     10 O11         6.2890   -0.0420   -1.2380 os        1 0UA     -0.083000
     11 N14         6.3550    1.8360   -0.0060 n2        1 0UA     -0.102000
     12 N13         7.5300    1.7180   -0.5900 n2        1 0UA     -0.073000
     13 C12         7.5370    0.5960   -1.3470 c2        1 0UA     -0.011000
     14 C15         8.5490   -0.0150   -2.1930 c2        1 0UA     -0.111000
     15 C16         8.2340   -1.0180   -3.0320 c2        1 0UA     -0.083000
     16 C17        13.1560    1.5560   -1.8340 c1        1 0UA     -0.136000
     17 C18        12.2020    0.8340   -1.8680 c1        1 0UA     -0.162000
     18 C20         9.8600    0.6190   -2.1080 c2        1 0UA      0.120000
     19 C19        11.0560    0.0140   -1.9090 c2        1 0UA     -0.766000
     20 S21        11.3390   -1.6240   -1.6190 s6        1 0UA      2.922000
     21 O23        11.2850   -1.9130   -0.2730 o         1 0UA     -0.954500
     22 O22        10.6290   -2.3980   -2.5210 o         1 0UA     -0.954500
     23 H1         -0.0850   -1.1540    0.5180 ho        1 0UA      0.246000
     24 H2          4.0550    2.0060    1.4820 ha        1 0UA      0.182000
     25 H3          2.3660   -2.0680    0.1000 h1        1 0UA      0.191000
     26 H4          7.2090   -1.4180   -3.0880 ha        1 0UA      0.161000
     27 H5          8.9740   -1.4980   -3.6930 ha        1 0UA      0.161000
     28 H6         14.0190    2.1740   -1.7980 ha        1 0UA      0.234000
     29 H7          9.8260    1.7260   -2.2010 ha        1 0UA      0.164000
     30 F1         12.7990   -1.8510   -2.0100 f         1 0UA     -0.482000
     31 CL8         1.2130   -1.1760   -1.7370 cl        1 0UA     -0.023000
@<TRIPOS>BOND
     1    1    2 1   
     2    1   23 1   
     3    2    3 1   
     4    2    7 1   
     5    3    4 1   
     6    3    8 1   
     7    4    5 1   
     8    4   24 1   
     9    5    6 1   
    10    5    9 1   
    11    6    7 1   
    12    7   25 1   
    13    7   31 1   
    14    9   10 1   
    15    9   11 1   
    16   10   13 1   
    17   11   12 1   
    18   12   13 1   
    19   13   14 1   
    20   14   15 1   
    21   14   18 1   
    22   15   26 1   
    23   15   27 1   
    24   16   17 1   
    25   16   28 1   
    26   17   19 1   
    27   18   19 1   
    28   18   29 1   
    29   19   20 1   
    30   20   21 1   
    31   20   22 1   
    32   20   30 1   
@<TRIPOS>SUBSTRUCTURE
     1 0UA         1 TEMP              0 ****  ****    0 ROOT
