@<TRIPOS>MOLECULE
0UA
   31    33     1     0     0
SMALL
bcc


@<TRIPOS>ATOM
      1 O1          6.5820   -0.7600    0.1500 oh        1 0UA     -0.467100
      2 C2          5.2770   -0.3550    0.1020 ca        1 0UA      0.171100
      3 C3          4.8890    0.9960   -0.0210 ca        1 0UA     -0.049100
      4 C4          3.5400    1.3460   -0.0650 ca        1 0UA     -0.046000
      5 C5          2.5620    0.3460    0.0130 ca        1 0UA     -0.163500
      6 C6          2.9360   -0.9990    0.1350 ca        1 0UA     -0.046000
      7 C7          4.2830   -1.3560    0.1790 ca        1 0UA     -0.049100
      8 CL9         6.0610    2.2240   -0.1170 cl        1 0UA     -0.058900
      9 C10         1.1650    0.7120   -0.0340 cc        1 0UA      0.527900
     10 O11         0.1970   -0.3070    0.0420 os        1 0UA     -0.391800
     11 N14         0.5360    1.9070   -0.1410 nd        1 0UA     -0.338000
     12 N13        -0.7680    1.7140   -0.1390 nd        1 0UA     -0.327000
     13 C12        -1.0240    0.3910   -0.0300 cc        1 0UA      0.506900
     14 C15        -2.2560   -0.3660    0.0190 ca        1 0UA     -0.158500
     15 C16        -2.2260   -1.7690    0.0600 ca        1 0UA     -0.024000
     16 C17        -3.4190   -2.4860    0.1060 ca        1 0UA     -0.161000
     17 C18        -4.6370   -1.8130    0.1060 ca        1 0UA      0.013000
     18 C20        -3.4850    0.3060    0.0230 ca        1 0UA      0.040000
     19 C19        -4.6870   -0.4110    0.0600 ca        1 0UA     -0.454500
     20 S21        -6.1590    0.3810    0.0930 sy        1 0UA      1.718000
     21 O23        -7.1470   -0.4660    0.5560 o         1 0UA     -0.670300
     22 O22        -6.0160    1.6580    0.5950 o         1 0UA     -0.670300
     23 H1          7.1540    0.0250    0.0880 ho        1 0UA      0.440000
     24 H2          3.2470    2.4060   -0.1610 ha        1 0UA      0.172000
     25 H3          2.1580   -1.7790    0.1960 ha        1 0UA      0.172000
     26 H4         -1.2570   -2.2960    0.0570 ha        1 0UA      0.156000
     27 H5         -3.3980   -3.5860    0.1430 ha        1 0UA      0.154000
     28 H6         -5.5830   -2.3840    0.1540 ha        1 0UA      0.166000
     29 H7         -3.5120    1.4130    0.0080 ha        1 0UA      0.183000
     30 F1         -6.4930    0.5830   -1.3870 f         1 0UA     -0.284900
     31 CL8         4.6880   -2.9950    0.3280 cl        1 0UA     -0.058900
@<TRIPOS>BOND
     1    1    2 1   
     2    1   23 1   
     3    2    3 ar  
     4    2    7 ar  
     5    3    4 ar  
     6    3    8 1   
     7    4    5 ar  
     8    4   24 1   
     9    5    6 ar  
    10    5    9 1   
    11    6    7 ar  
    12    6   25 1   
    13    7   31 1   
    14    9   10 1   
    15    9   11 2   
    16   10   13 1   
    17   11   12 1   
    18   12   13 2   
    19   13   14 1   
    20   14   15 ar  
    21   14   18 ar  
    22   15   16 ar  
    23   15   26 1   
    24   16   17 ar  
    25   16   27 1   
    26   17   19 ar  
    27   17   28 1   
    28   18   19 ar  
    29   18   29 1   
    30   19   20 1   
    31   20   21 2   
    32   20   22 2   
    33   20   30 1   
@<TRIPOS>SUBSTRUCTURE
     1 0UA         1 TEMP              0 ****  ****    0 ROOT
