@<TRIPOS>MOLECULE
0UA
   31    32     1     0     0
SMALL
bcc


@<TRIPOS>ATOM
      1 O1          0.2880   -0.5490    1.1200 oh        1 0UA     -0.202000
      2 C2          1.5490   -0.2280    0.7360 c2        1 0UA      0.114000
      3 C3          2.2380    0.7520    1.4160 c2        1 0UA     -0.197000
      4 C4          3.5790    1.0780    1.0480 c2        1 0UA      0.093000
      5 C5          4.2180    0.4130    0.0150 c2        1 0UA     -0.165000
      6 C6          3.5700   -0.5700   -0.7610 c1        1 0UA     -0.033000
      7 C7          2.2240   -0.9960   -0.3650 c3        1 0UA     -0.131000
      8 Cl9         1.5490    1.6220    2.6990 cl        1 0UA      0.036000
      9 C10         5.5800    0.7710   -0.3180 c2        1 0UA      0.045000
     10 O11         6.2880   -0.0160   -1.2370 os        1 0UA     -0.083000
     11 N14         6.3800    1.7820    0.1080 n2        1 0UA     -0.102000
     12 N13         7.5520    1.6860   -0.4850 n2        1 0UA     -0.073000
     13 C12         7.5440    0.6130   -1.3100 c2        1 0UA     -0.011000
     14 C15         8.5470    0.0420   -2.1940 c2        1 0UA     -0.111000
     15 C16         8.2180   -0.9040   -3.0920 c2        1 0UA     -0.083000
     16 C17        13.1730    1.5340   -1.7530 c1        1 0UA     -0.136000
     17 C18        12.2100    0.8270   -1.8280 c1        1 0UA     -0.162000
     18 C20         9.8660    0.6550   -2.0740 c2        1 0UA      0.120000
     19 C19        11.0550    0.0240   -1.9170 c2        1 0UA     -0.766000
     20 S21        11.3190   -1.6320   -1.7280 s6        1 0UA      2.922000
     21 O23        11.2650   -2.0020   -0.4020 o         1 0UA     -0.954500
     22 O22        10.5970   -2.3410   -2.6720 o         1 0UA     -0.954500
     23 H1         -0.0970   -1.1530    0.4600 ho        1 0UA      0.246000
     24 H2          4.0840    1.8880    1.6090 ha        1 0UA      0.182000
     25 H3          2.3420   -2.0710   -0.0190 h1        1 0UA      0.191000
     26 H4          7.1880   -1.2870   -3.1700 ha        1 0UA      0.161000
     27 H5          8.9510   -1.3510   -3.7830 ha        1 0UA      0.161000
     28 H6         14.0430    2.1390   -1.6820 ha        1 0UA      0.234000
     29 H7          9.8450    1.7660   -2.0990 ha        1 0UA      0.164000
     30 F1         12.7750   -1.8510   -2.1360 f         1 0UA     -0.482000
     31 Cl8         1.1970   -1.0520   -1.7950 cl        1 0UA     -0.023000
@<TRIPOS>BOND
     1    1    2 1   
     2    1   23 1   
     3    2    3 1   
     4    2    7 1   
     5    3    4 1   
     6    3    8 1   
     7    4    5 1   
     8    4   24 1   
     9    5    6 1   
    10    5    9 1   
    11    6    7 1   
    12    7   25 1   
    13    7   31 1   
    14    9   10 1   
    15    9   11 1   
    16   10   13 1   
    17   11   12 1   
    18   12   13 1   
    19   13   14 1   
    20   14   15 1   
    21   14   18 1   
    22   15   26 1   
    23   15   27 1   
    24   16   17 1   
    25   16   28 1   
    26   17   19 1   
    27   18   19 1   
    28   18   29 1   
    29   19   20 1   
    30   20   21 1   
    31   20   22 1   
    32   20   30 1   
@<TRIPOS>SUBSTRUCTURE
     1 0UA         1 TEMP              0 ****  ****    0 ROOT
