@<TRIPOS>MOLECULE
0UC
   31    24     1     0     0
SMALL
bcc


@<TRIPOS>ATOM
      1 CL8        -1.7410    3.0470    5.3460 cl        1 0UC      0.032000
      2 C7         -1.3280    1.5250    4.6030 c1        1 0UC     -0.098000
      3 C2         -1.7340    0.3360    5.1870 c1        1 0UC      0.127000
      4 O1         -2.5270    0.3580    6.3510 o         1 0UC     -0.221000
      5 C3         -1.3990   -0.8750    4.6000 c1        1 0UC     -0.159000
      6 CL9        -1.8860   -2.3720    5.3500 cl        1 0UC      0.008000
      7 C4         -0.6580   -0.8950    3.4280 c2        1 0UC     -0.034000
      8 C6         -0.5870    1.5050    3.4310 c1        1 0UC     -0.055000
      9 C5         -0.2520    0.2950    2.8440 c1        1 0UC     -0.060000
     10 C10         0.5010    0.2740    1.5310 c2        1 0UC      0.035000
     11 O11        -0.0510    0.1960    0.3020 os        1 0UC     -0.113000
     12 N14         1.8320    0.3800    1.3830 n2        1 0UC     -0.085000
     13 N13         2.1070    0.3670    0.0590 n2        1 0UC     -0.046000
     14 C12         0.9450    0.2540   -0.6060 c1        1 0UC     -0.015000
     15 C15         0.7770    0.2730   -2.1090 c1        1 0UC     -0.044500
     16 C16         0.4790    1.4610   -2.7580 c1        1 0UC     -0.044500
     17 C17         0.3370    1.4810   -4.1370 c1        1 0UC     -0.051500
     18 C18         0.4930    0.3120   -4.8670 c1        1 0UC      0.013000
     19 C20         0.9330   -0.8950   -2.8390 c1        1 0UC     -0.051500
     20 C19         0.7910   -0.8760   -4.2180 c1        1 0UC     -0.888000
     21 S21         0.9280   -2.3810   -5.1450 s4        1 0UC      2.141800
     22 O23         0.3540   -3.4870   -4.4300 o         1 0UC     -0.556900
     23 O22         0.0990   -2.3480   -6.3190 o         1 0UC     -0.556900
     24 BR1         0.2560    3.0710   -1.7510 br        1 0UC      0.107000
     25 H1         -2.0260    0.1450    7.0550 ho        1 0UC      0.239000
     26 H2         -0.4220   -1.7470    3.0150 ha        1 0UC      0.179000
     27 H3         -0.3010    2.3430    3.0200 ha        1 0UC      0.170000
     28 H4          0.1270    2.3170   -4.5940 ha        1 0UC      0.171500
     29 H5          0.3940    0.3260   -5.8380 ha        1 0UC      0.170000
     30 H6          1.1430   -1.7330   -2.3820 ha        1 0UC      0.171500
     31 F1          2.4160   -2.6560   -5.5110 f         1 0UC     -0.487000
@<TRIPOS>BOND
     1    1    2 1   
     2    2    8 1   
     3    3    5 1   
     4    4   25 1   
     5    5    7 1   
     6    7    9 1   
     7    7   26 1   
     8    8   27 1   
     9    9   10 1   
    10   10   11 1   
    11   10   12 1   
    12   11   14 1   
    13   12   13 1   
    14   13   14 1   
    15   15   16 1   
    16   15   19 1   
    17   16   17 1   
    18   17   28 1   
    19   18   20 1   
    20   18   29 1   
    21   19   30 1   
    22   20   21 1   
    23   21   22 1   
    24   21   23 1   
@<TRIPOS>SUBSTRUCTURE
     1 0UC         1 TEMP              0 ****  ****    0 ROOT
