@<TRIPOS>MOLECULE
0UC
   31    33     1     0     0
SMALL
bcc


@<TRIPOS>ATOM
      1 CL8        -3.5200   -0.3200   -3.5710 cl        1 0UC     -0.057400
      2 C7         -3.6510    0.2220   -1.9700 ca        1 0UC     -0.050100
      3 C2         -4.8860    0.6580   -1.4390 ca        1 0UC      0.173100
      4 O1         -5.9740    0.6240   -2.2660 oh        1 0UC     -0.467100
      5 C3         -4.9440    1.1010   -0.1010 ca        1 0UC     -0.050100
      6 CL9        -6.4150    1.6330    0.5680 cl        1 0UC     -0.057400
      7 C4         -3.7990    1.1120    0.6950 ca        1 0UC     -0.044500
      8 C6         -2.5090    0.2350   -1.1710 ca        1 0UC     -0.044500
      9 C5         -2.5790    0.6770    0.1580 ca        1 0UC     -0.167500
     10 C10        -1.3950    0.6880    0.9860 cc        1 0UC      0.536900
     11 O11        -0.1800    0.2460    0.4330 os        1 0UC     -0.388800
     12 N14        -1.1820    1.0580    2.2720 nd        1 0UC     -0.346000
     13 N13         0.0890    0.8790    2.5730 nd        1 0UC     -0.303000
     14 C12         0.7390    0.3870    1.4950 cc        1 0UC      0.490900
     15 C15         2.1180    0.0320    1.2280 ca        1 0UC     -0.129500
     16 C16         2.9910   -0.4100    2.2390 ca        1 0UC      0.074100
     17 C17         4.3210   -0.7050    1.9070 ca        1 0UC     -0.142000
     18 C18         4.7700   -0.5810    0.5980 ca        1 0UC      0.010000
     19 C20         2.5850    0.1460   -0.0890 ca        1 0UC      0.028000
     20 C19         3.9050   -0.1640   -0.4240 ca        1 0UC     -0.444500
     21 S21         4.4570    0.0040   -1.9950 sy        1 0UC      1.718000
     22 O23         3.6340    0.8530   -2.7060 o         1 0UC     -0.669800
     23 O22         5.8300    0.1470   -2.0080 o         1 0UC     -0.669800
     24 BR1         2.4620   -0.6420    4.0160 br        1 0UC     -0.016100
     25 H1         -6.7470    0.9530   -1.7770 ho        1 0UC      0.440000
     26 H2         -3.8550    1.4610    1.7400 ha        1 0UC      0.174000
     27 H3         -1.5440   -0.1030   -1.5830 ha        1 0UC      0.174000
     28 H4          5.0220   -1.0400    2.6900 ha        1 0UC      0.166000
     29 H5          5.8260   -0.8040    0.3570 ha        1 0UC      0.169000
     30 H6          1.8910    0.4980   -0.8780 ha        1 0UC      0.176000
     31 F1          4.2100   -1.3760   -2.6110 f         1 0UC     -0.284900
@<TRIPOS>BOND
     1    1    2 1   
     2    2    3 ar  
     3    2    8 ar  
     4    3    4 1   
     5    3    5 ar  
     6    4   25 1   
     7    5    6 1   
     8    5    7 ar  
     9    7    9 ar  
    10    7   26 1   
    11    8    9 ar  
    12    8   27 1   
    13    9   10 1   
    14   10   11 1   
    15   10   12 2   
    16   11   14 1   
    17   12   13 1   
    18   13   14 2   
    19   14   15 1   
    20   15   16 ar  
    21   15   19 ar  
    22   16   17 ar  
    23   16   24 1   
    24   17   18 ar  
    25   17   28 1   
    26   18   20 ar  
    27   18   29 1   
    28   19   20 ar  
    29   19   30 1   
    30   20   21 1   
    31   21   22 2   
    32   21   23 2   
    33   21   31 1   
@<TRIPOS>SUBSTRUCTURE
     1 0UC         1 TEMP              0 ****  ****    0 ROOT
