@<TRIPOS>MOLECULE
0UC
   31    31     1     0     0
SMALL
bcc


@<TRIPOS>ATOM
      1 CL8        -0.3270    0.2530    0.8450 cl        1 0UC     -0.020000
      2 C7          1.1840   -0.4000    0.3430 c2        1 0UC     -0.254000
      3 C2          2.2270   -0.3430    1.2390 c2        1 0UC      0.158000
      4 O1          2.1510    0.1300    2.5060 oh        1 0UC     -0.227000
      5 C3          3.6320   -0.8380    0.9750 c3        1 0UC      0.060000
      6 CL9         3.6300   -2.6000    0.8750 cl        1 0UC     -0.038000
      7 C4          4.2040   -0.2600   -0.2040 c1        1 0UC     -0.104000
      8 C6          1.1930   -0.9670   -0.9380 c1        1 0UC     -0.050000
      9 C5          4.7240    0.2270   -1.1650 c1        1 0UC     -0.030000
     10 C10         5.3290    0.8050   -2.2800 c2        1 0UC      0.072000
     11 O11         4.9070    0.3850   -3.5580 os        1 0UC     -0.089000
     12 N14         6.2930    1.7480   -2.4170 n2        1 0UC     -0.036000
     13 N13         6.5070    1.9600   -3.6990 n2        1 0UC     -0.056000
     14 C12         5.6890    1.1620   -4.4250 c2        1 0UC      0.037000
     15 C15         5.5310    0.9780   -5.8560 c2        1 0UC     -0.314000
     16 C16         4.2150    1.1680   -6.4560 c2        1 0UC     -0.072000
     17 C17         3.8390    0.5110   -7.5730 c2        1 0UC     -0.175000
     18 C18         4.7220   -0.3800   -8.2970 c2        1 0UC      0.094000
     19 C20         6.6180    0.6330   -6.5750 c1        1 0UC      0.321000
     20 C19         5.9310   -0.0120   -8.7600 c2        1 0UC     -0.985000
     21 S21         7.0470   -0.9940   -9.5170 s6        1 0UC      2.928000
     22 O23         8.2490   -0.3390   -9.6660 o         1 0UC     -0.944000
     23 O22         6.9680   -2.2800   -9.0210 o         1 0UC     -0.944000
     24 BR1         3.0370    2.3690   -5.6300 br        1 0UC      0.110000
     25 H1          1.2440    0.4470    2.6860 ho        1 0UC      0.261000
     26 H2          4.2830   -0.5890    1.8680 h1        1 0UC      0.176000
     27 H3          2.1540   -1.3120   -1.3470 ha        1 0UC      0.062000
     28 H4          2.8180    0.6060   -7.9860 ha        1 0UC      0.182000
     29 H5          4.3420   -1.4130   -8.4430 ha        1 0UC      0.165000
     30 H6          6.2160    1.0640   -8.7200 h4        1 0UC      0.206000
     31 F1          6.4910   -1.1050  -10.9410 f         1 0UC     -0.494000
@<TRIPOS>BOND
     1    1    2 1   
     2    2    3 1   
     3    2    8 1   
     4    3    4 1   
     5    3    5 1   
     6    4   25 1   
     7    5    6 1   
     8    5    7 1   
     9    5   26 1   
    10    7    9 1   
    11    8   27 1   
    12    9   10 1   
    13   10   11 1   
    14   10   12 1   
    15   11   14 1   
    16   12   13 1   
    17   13   14 1   
    18   14   15 1   
    19   15   16 1   
    20   15   19 1   
    21   16   17 1   
    22   16   24 1   
    23   17   18 1   
    24   17   28 1   
    25   18   20 1   
    26   18   29 1   
    27   20   21 1   
    28   20   30 1   
    29   21   22 1   
    30   21   23 1   
    31   21   31 1   
@<TRIPOS>SUBSTRUCTURE
     1 0UC         1 TEMP              0 ****  ****    0 ROOT
