@<TRIPOS>MOLECULE
0UC
   31    31     1     0     0
SMALL
bcc


@<TRIPOS>ATOM
      1 Cl8         0.2920    1.0640    2.0380 cl        1 0UC     -0.121000
      2 C7          1.4120    0.2810    0.9590 c2        1 0UC     -0.237000
      3 C2          2.4390   -0.4440    1.5310 c2        1 0UC      0.231000
      4 O1          2.6430   -0.5880    2.8570 oh        1 0UC     -0.222000
      5 C3          3.4880   -1.2020    0.7490 c3        1 0UC      0.079000
      6 Cl9         2.8160   -2.7720    0.2910 cl        1 0UC     -0.035000
      7 C4          3.9580   -0.4900   -0.4000 c1        1 0UC     -0.053000
      8 C6          1.3150    0.3610   -0.4160 c1        1 0UC     -0.116000
      9 C5          4.4140    0.0750   -1.3510 c1        1 0UC     -0.048000
     10 C10         4.9410    0.7550   -2.4470 c2        1 0UC      0.096000
     11 O11         4.7350    0.2130   -3.7310 os        1 0UC     -0.090000
     12 N14         5.6560    1.9030   -2.5570 n2        1 0UC     -0.055000
     13 N13         5.9120    2.1290   -3.8290 n2        1 0UC     -0.051000
     14 C12         5.3730    1.1370   -4.5740 c2        1 0UC      0.018000
     15 C15         5.3760    0.8820   -6.0040 c2        1 0UC     -0.309000
     16 C16         4.1050    0.8260   -6.7160 c2        1 0UC     -0.066000
     17 C17         3.9470    0.0980   -7.8410 c2        1 0UC     -0.181000
     18 C18         5.0280   -0.6350   -8.4650 c2        1 0UC      0.096000
     19 C20         6.5650    0.7090   -6.6110 c1        1 0UC      0.314000
     20 C19         6.1950   -0.0740   -8.8330 c2        1 0UC     -0.987000
     21 S21         7.5200   -0.8630   -9.4670 s6        1 0UC      2.928000
     22 O23         8.6100   -0.0230   -9.5190 o         1 0UC     -0.945000
     23 O22         7.6030   -2.1440   -8.9610 o         1 0UC     -0.945000
     24 Br1         2.6630    1.8020   -6.0200 br        1 0UC      0.109000
     25 H1          1.9440   -0.1180    3.3570 ho        1 0UC      0.267000
     26 H2          4.3570   -1.4390    1.4340 h1        1 0UC      0.164000
     27 H3          0.5190    0.9130   -0.9200 ha        1 0UC      0.104000
     28 H4          2.9640    0.0070   -8.3390 ha        1 0UC      0.179000
     29 H5          4.8420   -1.7190   -8.6180 ha        1 0UC      0.163000
     30 H6          6.2930    1.0350   -8.7920 h4        1 0UC      0.206000
     31 F1          7.1230   -1.0650  -10.9340 f         1 0UC     -0.495000
@<TRIPOS>BOND
     1    1    2 1   
     2    2    3 1   
     3    2    8 1   
     4    3    4 1   
     5    3    5 1   
     6    4   25 1   
     7    5    6 1   
     8    5    7 1   
     9    5   26 1   
    10    7    9 1   
    11    8   27 1   
    12    9   10 1   
    13   10   11 1   
    14   10   12 1   
    15   11   14 1   
    16   12   13 1   
    17   13   14 1   
    18   14   15 1   
    19   15   16 1   
    20   15   19 1   
    21   16   17 1   
    22   16   24 1   
    23   17   18 1   
    24   17   28 1   
    25   18   20 1   
    26   18   29 1   
    27   20   21 1   
    28   20   30 1   
    29   21   22 1   
    30   21   23 1   
    31   21   31 1   
@<TRIPOS>SUBSTRUCTURE
     1 0UC         1 TEMP              0 ****  ****    0 ROOT
