@<TRIPOS>MOLECULE
0UC
   31    31     1     0     0
SMALL
bcc


@<TRIPOS>ATOM
      1 CL8        -0.3460    0.1990    0.7910 cl        1 0UC     -0.020000
      2 C7          1.1830   -0.4310    0.3160 c2        1 0UC     -0.254000
      3 C2          2.2140   -0.3420    1.2230 c2        1 0UC      0.158000
      4 O1          2.1120    0.1480    2.4830 oh        1 0UC     -0.227000
      5 C3          3.6320   -0.8120    0.9830 c3        1 0UC      0.060000
      6 CL9         3.6650   -2.5750    0.9080 cl        1 0UC     -0.038000
      7 C4          4.2060   -0.2390   -0.1970 c1        1 0UC     -0.104000
      8 C6          1.2190   -1.0160   -0.9570 c1        1 0UC     -0.050000
      9 C5          4.7280    0.2440   -1.1590 c1        1 0UC     -0.030000
     10 C10         5.3350    0.8180   -2.2750 c2        1 0UC      0.072000
     11 O11         4.9110    0.3960   -3.5520 os        1 0UC     -0.089000
     12 N14         6.3030    1.7570   -2.4140 n2        1 0UC     -0.036000
     13 N13         6.5170    1.9640   -3.6970 n2        1 0UC     -0.056000
     14 C12         5.6960    1.1680   -4.4210 c2        1 0UC      0.037000
     15 C15         5.5370    0.9810   -5.8520 c2        1 0UC     -0.314000
     16 C16         4.2220    1.1770   -6.4510 c2        1 0UC     -0.072000
     17 C17         3.8410    0.5170   -7.5660 c2        1 0UC     -0.174000
     18 C18         4.7190   -0.3800   -8.2880 c2        1 0UC      0.094000
     19 C20         6.6210    0.6300   -6.5700 c1        1 0UC      0.321000
     20 C19         5.9300   -0.0190   -8.7530 c2        1 0UC     -0.985000
     21 S21         7.0410   -1.0090   -9.5080 s6        1 0UC      2.928000
     22 O23         8.2450   -0.3590   -9.6600 o         1 0UC     -0.944000
     23 O22         6.9570   -2.2920   -9.0070 o         1 0UC     -0.944000
     24 BR1         3.0490    2.3850   -5.6280 br        1 0UC      0.109000
     25 H1          1.1980    0.4490    2.6470 ho        1 0UC      0.261000
     26 H2          4.2660   -0.5380    1.8800 h1        1 0UC      0.176000
     27 H3          2.1900   -1.3480   -1.3490 ha        1 0UC      0.062000
     28 H4          2.8200    0.6170   -7.9790 ha        1 0UC      0.182000
     29 H5          4.3350   -1.4120   -8.4300 ha        1 0UC      0.165000
     30 H6          6.2200    1.0560   -8.7160 h4        1 0UC      0.206000
     31 F1          6.4820   -1.1220  -10.9300 f         1 0UC     -0.494000
@<TRIPOS>BOND
     1    1    2 1   
     2    2    3 1   
     3    2    8 1   
     4    3    4 1   
     5    3    5 1   
     6    4   25 1   
     7    5    6 1   
     8    5    7 1   
     9    5   26 1   
    10    7    9 1   
    11    8   27 1   
    12    9   10 1   
    13   10   11 1   
    14   10   12 1   
    15   11   14 1   
    16   12   13 1   
    17   13   14 1   
    18   14   15 1   
    19   15   16 1   
    20   15   19 1   
    21   16   17 1   
    22   16   24 1   
    23   17   18 1   
    24   17   28 1   
    25   18   20 1   
    26   18   29 1   
    27   20   21 1   
    28   20   30 1   
    29   21   22 1   
    30   21   23 1   
    31   21   31 1   
@<TRIPOS>SUBSTRUCTURE
     1 0UC         1 TEMP              0 ****  ****    0 ROOT
