@<TRIPOS>MOLECULE
0UF
   69    71     1     0     0
SMALL
bcc


@<TRIPOS>ATOM
      1 O5          3.9320    1.0330    1.8290 o         1 0UF     -0.750533
      2 S1          4.2400    1.0750    0.4530 s6        1 0UF      1.432800
      3 O4          4.7980    2.3230    0.0500 o         1 0UF     -0.750533
      4 O6          4.9350   -0.0460   -0.0410 o         1 0UF     -0.750533
      5 C13         2.6580    1.0100   -0.3770 c3        1 0UF     -0.298600
      6 C4          1.8250    2.2480   -0.1980 c3        1 0UF     -0.045400
      7 C1          2.2630    3.3230   -1.1980 c3        1 0UF      0.021300
      8 N1          1.9260    4.6780   -0.8340 na        1 0UF     -0.090400
      9 C8          2.6730    5.4610    0.0800 ca        1 0UF     -0.051200
     10 C17         3.9120    5.2800    0.6920 ca        1 0UF     -0.085000
     11 C23         4.3510    6.3110    1.5320 ca        1 0UF     -0.125000
     12 C26         3.5990    7.4660    1.7570 ca        1 0UF     -0.136000
     13 C20         2.3480    7.6610    1.1540 ca        1 0UF     -0.115000
     14 C14         1.9120    6.6460    0.3250 ca        1 0UF      0.027100
     15 O1          0.7050    6.5750   -0.3970 os        1 0UF     -0.223200
     16 C9          0.7280    5.3360   -1.0790 cc        1 0UF      0.266000
     17 C18        -0.3360    4.9860   -1.8900 cf        1 0UF     -0.351000
     18 C24        -1.4500    5.8290   -2.0620 cf        1 0UF      0.077000
     19 C25        -2.5450    5.6020   -2.8560 ce        1 0UF     -0.312000
     20 C19        -2.7290    4.4600   -3.6590 ce        1 0UF      0.128000
     21 C10        -3.8000    4.1790   -4.4790 cd        1 0UF     -0.374400
     22 C12        -4.9550    5.0550   -4.6420 c         1 0UF      0.726200
     23 O3         -5.0900    6.1650   -4.0930 o         1 0UF     -0.627000
     24 C11        -3.7590    2.9180   -5.2280 c         1 0UF      0.726200
     25 O2         -2.8080    2.1150   -5.1580 o         1 0UF     -0.627000
     26 N2         -4.8490    2.6010   -6.0790 n         1 0UF     -0.451900
     27 C2         -4.7910    1.3430   -6.8120 c3        1 0UF      0.080000
     28 C5         -5.2320    0.1250   -6.0010 c3        1 0UF     -0.094400
     29 C15        -5.1100   -1.1230   -6.8490 c3        1 0UF     -0.076400
     30 C21        -5.5280   -2.3490   -6.0800 c3        1 0UF     -0.091100
     31 C7         -5.9750    3.4170   -6.2040 c         1 0UF      0.593400
     32 S2         -7.2130    2.9850   -7.1750 s         1 0UF     -0.591400
     33 N3         -6.0160    4.6110   -5.4820 n         1 0UF     -0.451900
     34 C3         -7.1780    5.4790   -5.6150 c3        1 0UF      0.080000
     35 C6         -7.0100    6.5980   -6.6430 c3        1 0UF     -0.094400
     36 C16        -8.2640    7.4450   -6.6850 c3        1 0UF     -0.076400
     37 C22        -8.1330    8.5650   -7.6840 c3        1 0UF     -0.091100
     38 H1          2.0970    0.1350    0.0350 h1        1 0UF      0.074700
     39 H2          2.8220    0.8010   -1.4610 h1        1 0UF      0.074700
     40 H3          0.7370    2.0250   -0.3490 hc        1 0UF      0.042700
     41 H4          1.9490    2.6140    0.8580 hc        1 0UF      0.042700
     42 H5          1.8000    3.1130   -2.2020 h1        1 0UF      0.092700
     43 H6          3.3940    3.2910   -1.2940 h1        1 0UF      0.092700
     44 H7          4.5070    4.3550    0.5330 ha        1 0UF      0.237000
     45 H8          5.3230    6.1940    2.0350 ha        1 0UF      0.143000
     46 H9          3.9890    8.2450    2.4280 ha        1 0UF      0.130000
     47 H10         1.7510    8.5620    1.3300 ha        1 0UF      0.146000
     48 H11        -0.2900    4.0130   -2.4010 ha        1 0UF      0.159000
     49 H13        -1.4380    6.7820   -1.4920 ha        1 0UF      0.128000
     50 H15        -3.3360    6.3740   -2.8680 ha        1 0UF      0.165000
     51 H17        -1.9250    3.6900   -3.6370 ha        1 0UF      0.148000
     52 H20        -5.4380    1.4310   -7.7340 h1        1 0UF      0.082700
     53 H21        -3.7180    1.1980   -7.1330 h1        1 0UF      0.082700
     54 H22        -6.2930    0.2500   -5.6630 hc        1 0UF      0.055450
     55 H23        -4.5880    0.0270   -5.0870 hc        1 0UF      0.055450
     56 H24        -5.7480   -1.0170   -7.7660 hc        1 0UF      0.039950
     57 H25        -4.0480   -1.2400   -7.1940 hc        1 0UF      0.039950
     58 H26        -4.8880   -2.4830   -5.1750 hc        1 0UF      0.031533
     59 H27        -5.4320   -3.2590   -6.7190 hc        1 0UF      0.031533
     60 H28        -6.5910   -2.2610   -5.7470 hc        1 0UF      0.031533
     61 H29        -8.0730    4.8480   -5.8960 h1        1 0UF      0.082700
     62 H30        -7.3650    5.9410   -4.6020 h1        1 0UF      0.082700
     63 H31        -6.1300    7.2360   -6.3650 hc        1 0UF      0.055450
     64 H32        -6.8140    6.1630   -7.6570 hc        1 0UF      0.055450
     65 H33        -8.4630    7.8710   -5.6660 hc        1 0UF      0.039950
     66 H34        -9.1430    6.8010   -6.9540 hc        1 0UF      0.039950
     67 H35        -7.2760    9.2300   -7.4210 hc        1 0UF      0.031533
     68 H36        -9.0650    9.1800   -7.7020 hc        1 0UF      0.031533
     69 H37        -7.9580    8.1590   -8.7100 hc        1 0UF      0.031533
@<TRIPOS>BOND
     1    1    2 1   
     2    2    3 1   
     3    2    4 1   
     4    2    5 1   
     5    5    6 1   
     6    5   38 1   
     7    5   39 1   
     8    6    7 1   
     9    6   40 1   
    10    6   41 1   
    11    7    8 1   
    12    7   42 1   
    13    7   43 1   
    14    8    9 1   
    15    8   16 1   
    16    9   10 ar  
    17    9   14 ar  
    18   10   11 ar  
    19   10   44 1   
    20   11   12 ar  
    21   11   45 1   
    22   12   13 ar  
    23   12   46 1   
    24   13   14 ar  
    25   13   47 1   
    26   14   15 1   
    27   15   16 1   
    28   16   17 2   
    29   17   18 1   
    30   17   48 1   
    31   18   19 2   
    32   18   49 1   
    33   19   20 1   
    34   19   50 1   
    35   20   21 2   
    36   20   51 1   
    37   21   22 1   
    38   21   24 1   
    39   22   23 2   
    40   22   33 1   
    41   24   25 2   
    42   24   26 1   
    43   26   27 1   
    44   26   31 1   
    45   27   28 1   
    46   27   52 1   
    47   27   53 1   
    48   28   29 1   
    49   28   54 1   
    50   28   55 1   
    51   29   30 1   
    52   29   56 1   
    53   29   57 1   
    54   30   58 1   
    55   30   59 1   
    56   30   60 1   
    57   31   32 2   
    58   31   33 1   
    59   33   34 1   
    60   34   35 1   
    61   34   61 1   
    62   34   62 1   
    63   35   36 1   
    64   35   63 1   
    65   35   64 1   
    66   36   37 1   
    67   36   65 1   
    68   36   66 1   
    69   37   67 1   
    70   37   68 1   
    71   37   69 1   
@<TRIPOS>SUBSTRUCTURE
     1 0UF         1 TEMP              0 ****  ****    0 ROOT
