@<TRIPOS>MOLECULE
0UF
   69    62     1     0     0
SMALL
bcc


@<TRIPOS>ATOM
      1 O5         -6.8180    3.8030   -2.1460 o         1 0UF     -1.059500
      2 S1         -7.3690    3.2530   -0.8490 ss        1 0UF      2.862000
      3 O4         -7.8390    4.5200   -0.1680 o         1 0UF     -1.059500
      4 O6         -8.5210    2.3050   -1.1000 os        1 0UF     -1.101000
      5 C13        -6.0940    2.4380    0.1040 c2        1 0UF     -0.838000
      6 C4         -5.4330    1.3470   -0.7520 c3        1 0UF     -0.124000
      7 C1         -4.3500    0.6290    0.0770 c3        1 0UF     -0.038000
      8 N1         -4.0830   -0.6700   -0.5000 n         1 0UF     -0.182000
      9 C8         -5.0650   -1.6690   -0.8270 c2        1 0UF     -0.006000
     10 C17        -6.4510   -1.7330   -0.6070 c1        1 0UF     -0.085000
     11 C23        -7.1700   -2.8610   -1.0080 c1        1 0UF     -0.124000
     12 C26        -6.5100   -3.9280   -1.6280 c1        1 0UF     -0.124000
     13 C20        -5.1330   -3.8650   -1.8460 c1        1 0UF     -0.115000
     14 C14        -4.4090   -2.7310   -1.4440 c1        1 0UF     -0.018000
     15 O1         -3.0050   -2.4080   -1.5100 o         1 0UF     -0.134000
     16 C9         -2.8130   -1.1720   -0.8680 c2        1 0UF      0.249000
     17 C18        -1.6030   -0.5590   -0.6390 c1        1 0UF     -0.351000
     18 C24        -0.2990   -1.2340   -1.1020 c1        1 0UF     -0.124000
     19 C25         0.9210   -0.6680   -0.7890 c1        1 0UF     -0.124000
     20 C19         0.9770    0.6320    0.0190 c1        1 0UF      0.128000
     21 C10         2.0510    1.4100   -0.3600 c1        1 0UF     -0.336000
     22 C12         2.7690    1.7870    0.7340 c1        1 0UF      0.358000
     23 O3          3.6770    2.5650    0.5080 o         1 0UF     -0.352000
     24 C11         2.7780    0.7740   -1.3190 c2        1 0UF      0.371000
     25 O2          3.6870    1.4300   -1.7930 o         1 0UF     -0.351000
     26 N2          3.2070   -0.4950   -0.9070 n         1 0UF     -0.283000
     27 C2          3.9090   -1.3620   -1.8380 c3        1 0UF     -0.036000
     28 C5          5.3730   -0.8960   -1.9720 c3        1 0UF     -0.173000
     29 C15         6.1230   -1.8290   -2.9390 c3        1 0UF     -0.155000
     30 C21         7.5720   -1.3490   -3.0950 c3        1 0UF     -0.209000
     31 C7          3.4630   -0.6310    0.6540 c1        1 0UF      0.176000
     32 S2          4.5320   -1.7880    1.2310 s         1 0UF     -0.308000
     33 N3          3.1940    0.6910    1.4940 n2        1 0UF     -0.278000
     34 C3          3.8860    0.9050    2.7480 c3        1 0UF     -0.036000
     35 C6          2.9780    1.6970    3.7060 c3        1 0UF     -0.173000
     36 C16         3.7020    1.8980    5.0490 c3        1 0UF     -0.155000
     37 C22         2.7300    2.5040    6.0680 c3        1 0UF     -0.209000
     38 H1         -6.4940    2.0300    0.9030 ha        1 0UF      0.114000
     39 H2         -5.4180    3.0960    0.3750 ha        1 0UF      0.114000
     40 H3         -6.1120    0.6980   -1.0360 hc        1 0UF      0.082000
     41 H4         -5.0210    1.7570   -1.5450 hc        1 0UF      0.082000
     42 H5         -3.5270    1.1640    0.0730 h1        1 0UF      0.132000
     43 H6         -4.6650    0.5180    1.0020 h1        1 0UF      0.132000
     44 H7         -7.1820   -1.4300   -0.0250 ha        1 0UF      0.237000
     45 H8         -8.1310   -3.0510   -0.9310 ha        1 0UF      0.141500
     46 H9         -7.0370   -4.6750   -1.9850 ha        1 0UF      0.141500
     47 H10        -4.8240   -4.6100   -2.4060 ha        1 0UF      0.146000
     48 H11        -1.5710    0.3060   -0.1820 ha        1 0UF      0.159000
     49 H13        -0.3340   -2.0670   -1.6200 ha        1 0UF      0.141500
     50 H15         1.7470   -1.0960   -1.0830 ha        1 0UF      0.141500
     51 H17         0.2110    0.7740   -0.5740 ha        1 0UF      0.148000
     52 H20         3.4710   -1.3230   -2.7180 h1        1 0UF      0.120500
     53 H21         3.8890   -2.2870   -1.5030 h1        1 0UF      0.120500
     54 H22         5.8070   -0.9200   -1.0900 hc        1 0UF      0.095000
     55 H23         5.3940    0.0230   -2.3210 hc        1 0UF      0.095000
     56 H24         6.1190   -2.7450   -2.5810 hc        1 0UF      0.079000
     57 H25         5.6790   -1.8190   -3.8160 hc        1 0UF      0.079000
     58 H26         8.0600   -1.5020   -2.2550 hc        1 0UF      0.070667
     59 H27         7.5780   -0.3890   -3.3060 hc        1 0UF      0.070667
     60 H28         8.0070   -1.8470   -3.8230 hc        1 0UF      0.070667
     61 H29         4.1090    0.0360    3.1510 h1        1 0UF      0.122500
     62 H30         4.7120    1.4130    2.5840 h1        1 0UF      0.122500
     63 H31         2.1440    1.1990    3.8540 hc        1 0UF      0.094500
     64 H32         2.7710    2.5730    3.3120 hc        1 0UF      0.094500
     65 H33         4.4650    2.5040    4.9230 hc        1 0UF      0.080000
     66 H34         4.0240    1.0300    5.3810 hc        1 0UF      0.080000
     67 H35         2.3500    3.3340    5.7040 hc        1 0UF      0.070667
     68 H36         3.2110    2.7020    6.9020 hc        1 0UF      0.070667
     69 H37         2.0060    1.8650    6.2510 hc        1 0UF      0.070667
@<TRIPOS>BOND
     1    1    2 1   
     2    2    3 1   
     3    5    6 1   
     4    5   38 1   
     5    5   39 1   
     6    6    7 1   
     7    6   40 1   
     8    6   41 1   
     9    7    8 1   
    10    7   42 1   
    11    7   43 1   
    12    8    9 1   
    13    8   16 1   
    14    9   10 1   
    15    9   14 1   
    16   10   44 1   
    17   11   12 1   
    18   11   45 1   
    19   12   46 1   
    20   13   14 1   
    21   13   47 1   
    22   15   16 1   
    23   16   17 1   
    24   17   48 1   
    25   18   19 1   
    26   18   49 1   
    27   19   50 1   
    28   20   21 1   
    29   20   51 1   
    30   21   24 1   
    31   22   23 1   
    32   22   33 1   
    33   24   25 1   
    34   24   26 1   
    35   26   27 1   
    36   26   31 1   
    37   27   28 1   
    38   27   52 1   
    39   27   53 1   
    40   28   29 1   
    41   28   54 1   
    42   28   55 1   
    43   29   30 1   
    44   29   56 1   
    45   29   57 1   
    46   30   58 1   
    47   30   59 1   
    48   30   60 1   
    49   31   32 1   
    50   33   34 1   
    51   34   35 1   
    52   34   61 1   
    53   34   62 1   
    54   35   36 1   
    55   35   63 1   
    56   35   64 1   
    57   36   37 1   
    58   36   65 1   
    59   36   66 1   
    60   37   67 1   
    61   37   68 1   
    62   37   69 1   
@<TRIPOS>SUBSTRUCTURE
     1 0UF         1 TEMP              0 ****  ****    0 ROOT
