@<TRIPOS>MOLECULE
0UF
   69    71     1     0     0
SMALL
bcc


@<TRIPOS>ATOM
      1 O5          3.9370    1.0260    1.8210 o         1 0UF     -0.750533
      2 S1          4.2420    1.0680    0.4450 s6        1 0UF      1.432800
      3 O4          4.8010    2.3150    0.0400 o         1 0UF     -0.750533
      4 O6          4.9360   -0.0540   -0.0500 o         1 0UF     -0.750533
      5 C13         2.6590    1.0040   -0.3840 c3        1 0UF     -0.298600
      6 C4          1.8280    2.2430   -0.2020 c3        1 0UF     -0.045400
      7 C1          2.2650    3.3170   -1.2030 c3        1 0UF      0.021300
      8 N1          1.9300    4.6730   -0.8390 na        1 0UF     -0.090400
      9 C8          2.6790    5.4550    0.0740 ca        1 0UF     -0.051200
     10 C17         3.9180    5.2720    0.6840 ca        1 0UF     -0.085000
     11 C23         4.3600    6.3030    1.5240 ca        1 0UF     -0.125000
     12 C26         3.6090    7.4590    1.7510 ca        1 0UF     -0.136000
     13 C20         2.3580    7.6550    1.1490 ca        1 0UF     -0.115000
     14 C14         1.9200    6.6400    0.3210 ca        1 0UF      0.027100
     15 O1          0.7110    6.5710   -0.3990 os        1 0UF     -0.223200
     16 C9          0.7320    5.3320   -1.0810 cc        1 0UF      0.266000
     17 C18        -0.3330    4.9830   -1.8910 cf        1 0UF     -0.351000
     18 C24        -1.4470    5.8270   -2.0610 cf        1 0UF      0.077000
     19 C25        -2.5430    5.6010   -2.8540 ce        1 0UF     -0.312000
     20 C19        -2.7290    4.4600   -3.6570 ce        1 0UF      0.128000
     21 C10        -3.8010    4.1800   -4.4760 cd        1 0UF     -0.374400
     22 C12        -4.9560    5.0570   -4.6360 c         1 0UF      0.726200
     23 O3         -5.0900    6.1670   -4.0860 o         1 0UF     -0.627000
     24 C11        -3.7630    2.9200   -5.2260 c         1 0UF      0.726200
     25 O2         -2.8120    2.1160   -5.1580 o         1 0UF     -0.627000
     26 N2         -4.8530    2.6050   -6.0770 n         1 0UF     -0.451900
     27 C2         -4.7960    1.3480   -6.8120 c3        1 0UF      0.080000
     28 C5         -5.2380    0.1290   -6.0020 c3        1 0UF     -0.094400
     29 C15        -5.1180   -1.1180   -6.8520 c3        1 0UF     -0.076400
     30 C21        -5.5370   -2.3450   -6.0830 c3        1 0UF     -0.091100
     31 C7         -5.9790    3.4220   -6.2000 c         1 0UF      0.593400
     32 S2         -7.2180    2.9920   -7.1700 s         1 0UF     -0.591400
     33 N3         -6.0180    4.6150   -5.4760 n         1 0UF     -0.451900
     34 C3         -7.1800    5.4840   -5.6070 c3        1 0UF      0.080000
     35 C6         -7.0120    6.6040   -6.6330 c3        1 0UF     -0.094400
     36 C16        -8.2660    7.4520   -6.6730 c3        1 0UF     -0.076400
     37 C22        -8.1350    8.5730   -7.6710 c3        1 0UF     -0.091100
     38 H1          2.0980    0.1300    0.0300 h1        1 0UF      0.074700
     39 H2          2.8220    0.7950   -1.4670 h1        1 0UF      0.074700
     40 H3          0.7390    2.0210   -0.3530 hc        1 0UF      0.042700
     41 H4          1.9530    2.6090    0.8530 hc        1 0UF      0.042700
     42 H5          1.8010    3.1080   -2.2070 h1        1 0UF      0.092700
     43 H6          3.3960    3.2840   -1.3000 h1        1 0UF      0.092700
     44 H7          4.5130    4.3470    0.5240 ha        1 0UF      0.237000
     45 H8          5.3330    6.1850    2.0250 ha        1 0UF      0.143000
     46 H9          4.0010    8.2370    2.4210 ha        1 0UF      0.130000
     47 H10         1.7610    8.5570    1.3270 ha        1 0UF      0.146000
     48 H11        -0.2890    4.0100   -2.4030 ha        1 0UF      0.159000
     49 H13        -1.4330    6.7790   -1.4910 ha        1 0UF      0.128000
     50 H15        -3.3330    6.3740   -2.8640 ha        1 0UF      0.165000
     51 H17        -1.9260    3.6890   -3.6370 ha        1 0UF      0.148000
     52 H20        -5.4450    1.4380   -7.7330 h1        1 0UF      0.082700
     53 H21        -3.7240    1.2020   -7.1340 h1        1 0UF      0.082700
     54 H22        -6.2990    0.2550   -5.6630 hc        1 0UF      0.055450
     55 H23        -4.5940    0.0290   -5.0880 hc        1 0UF      0.055450
     56 H24        -5.7570   -1.0100   -7.7680 hc        1 0UF      0.039950
     57 H25        -4.0560   -1.2350   -7.1980 hc        1 0UF      0.039950
     58 H26        -4.8960   -2.4810   -5.1790 hc        1 0UF      0.031533
     59 H27        -5.4420   -3.2540   -6.7240 hc        1 0UF      0.031533
     60 H28        -6.5990   -2.2560   -5.7500 hc        1 0UF      0.031533
     61 H29        -8.0750    4.8540   -5.8880 h1        1 0UF      0.082700
     62 H30        -7.3650    5.9450   -4.5930 h1        1 0UF      0.082700
     63 H31        -6.1310    7.2410   -6.3560 hc        1 0UF      0.055450
     64 H32        -6.8170    6.1700   -7.6490 hc        1 0UF      0.055450
     65 H33        -8.4640    7.8770   -5.6530 hc        1 0UF      0.039950
     66 H34        -9.1450    6.8080   -6.9420 hc        1 0UF      0.039950
     67 H35        -7.2770    9.2380   -7.4070 hc        1 0UF      0.031533
     68 H36        -9.0670    9.1890   -7.6870 hc        1 0UF      0.031533
     69 H37        -7.9620    8.1690   -8.6970 hc        1 0UF      0.031533
@<TRIPOS>BOND
     1    1    2 1   
     2    2    3 1   
     3    2    4 1   
     4    2    5 1   
     5    5    6 1   
     6    5   38 1   
     7    5   39 1   
     8    6    7 1   
     9    6   40 1   
    10    6   41 1   
    11    7    8 1   
    12    7   42 1   
    13    7   43 1   
    14    8    9 1   
    15    8   16 1   
    16    9   10 ar  
    17    9   14 ar  
    18   10   11 ar  
    19   10   44 1   
    20   11   12 ar  
    21   11   45 1   
    22   12   13 ar  
    23   12   46 1   
    24   13   14 ar  
    25   13   47 1   
    26   14   15 1   
    27   15   16 1   
    28   16   17 2   
    29   17   18 1   
    30   17   48 1   
    31   18   19 2   
    32   18   49 1   
    33   19   20 1   
    34   19   50 1   
    35   20   21 2   
    36   20   51 1   
    37   21   22 1   
    38   21   24 1   
    39   22   23 2   
    40   22   33 1   
    41   24   25 2   
    42   24   26 1   
    43   26   27 1   
    44   26   31 1   
    45   27   28 1   
    46   27   52 1   
    47   27   53 1   
    48   28   29 1   
    49   28   54 1   
    50   28   55 1   
    51   29   30 1   
    52   29   56 1   
    53   29   57 1   
    54   30   58 1   
    55   30   59 1   
    56   30   60 1   
    57   31   32 2   
    58   31   33 1   
    59   33   34 1   
    60   34   35 1   
    61   34   61 1   
    62   34   62 1   
    63   35   36 1   
    64   35   63 1   
    65   35   64 1   
    66   36   37 1   
    67   36   65 1   
    68   36   66 1   
    69   37   67 1   
    70   37   68 1   
    71   37   69 1   
@<TRIPOS>SUBSTRUCTURE
     1 0UF         1 TEMP              0 ****  ****    0 ROOT
