@<TRIPOS>MOLECULE
0UF
   69    71     1     0     0
SMALL
bcc


@<TRIPOS>ATOM
      1 O5          3.9410    1.0340    1.8210 o         1 0UF     -0.750533
      2 S1          4.2460    1.0740    0.4440 s6        1 0UF      1.432800
      3 O4          4.8030    2.3210    0.0380 o         1 0UF     -0.750533
      4 O6          4.9390   -0.0490   -0.0490 o         1 0UF     -0.750533
      5 C13         2.6620    1.0080   -0.3830 c3        1 0UF     -0.298600
      6 C4          1.8300    2.2470   -0.2030 c3        1 0UF     -0.045400
      7 C1          2.2670    3.3210   -1.2050 c3        1 0UF      0.021300
      8 N1          1.9320    4.6770   -0.8420 na        1 0UF     -0.090400
      9 C8          2.6810    5.4600    0.0700 ca        1 0UF     -0.051200
     10 C17         3.9200    5.2790    0.6800 ca        1 0UF     -0.085000
     11 C23         4.3610    6.3100    1.5180 ca        1 0UF     -0.125000
     12 C26         3.6100    7.4660    1.7440 ca        1 0UF     -0.136000
     13 C20         2.3590    7.6610    1.1430 ca        1 0UF     -0.115000
     14 C14         1.9210    6.6450    0.3160 ca        1 0UF      0.027100
     15 O1          0.7120    6.5750   -0.4040 os        1 0UF     -0.223200
     16 C9          0.7340    5.3350   -1.0850 cc        1 0UF      0.266000
     17 C18        -0.3320    4.9850   -1.8940 cf        1 0UF     -0.351000
     18 C24        -1.4460    5.8290   -2.0640 cf        1 0UF      0.077000
     19 C25        -2.5420    5.6020   -2.8560 ce        1 0UF     -0.312000
     20 C19        -2.7290    4.4590   -3.6580 ce        1 0UF      0.128000
     21 C10        -3.8020    4.1780   -4.4760 cd        1 0UF     -0.374400
     22 C12        -4.9570    5.0550   -4.6370 c         1 0UF      0.726200
     23 O3         -5.0900    6.1650   -4.0880 o         1 0UF     -0.627000
     24 C11        -3.7630    2.9170   -5.2240 c         1 0UF      0.726200
     25 O2         -2.8120    2.1140   -5.1570 o         1 0UF     -0.627000
     26 N2         -4.8540    2.6010   -6.0740 n         1 0UF     -0.451900
     27 C2         -4.7980    1.3430   -6.8080 c3        1 0UF      0.080000
     28 C5         -5.2390    0.1250   -5.9960 c3        1 0UF     -0.094400
     29 C15        -5.1190   -1.1220   -6.8450 c3        1 0UF     -0.076400
     30 C21        -5.5380   -2.3480   -6.0750 c3        1 0UF     -0.091100
     31 C7         -5.9800    3.4170   -6.1970 c         1 0UF      0.593400
     32 S2         -7.2200    2.9860   -7.1660 s         1 0UF     -0.591400
     33 N3         -6.0200    4.6110   -5.4750 n         1 0UF     -0.451900
     34 C3         -7.1820    5.4810   -5.6060 c3        1 0UF      0.080000
     35 C6         -7.0140    6.5990   -6.6340 c3        1 0UF     -0.094400
     36 C16        -8.2680    7.4470   -6.6730 c3        1 0UF     -0.076400
     37 C22        -8.1390    8.5670   -7.6730 c3        1 0UF     -0.091100
     38 H1          2.8250    0.7990   -1.4670 h1        1 0UF      0.074700
     39 H2          2.1020    0.1350    0.0310 h1        1 0UF      0.074700
     40 H3          0.7420    2.0250   -0.3530 hc        1 0UF      0.042700
     41 H4          1.9560    2.6150    0.8520 hc        1 0UF      0.042700
     42 H5          1.8020    3.1100   -2.2090 h1        1 0UF      0.092700
     43 H6          3.3980    3.2880   -1.3030 h1        1 0UF      0.092700
     44 H7          4.5150    4.3540    0.5200 ha        1 0UF      0.237000
     45 H8          5.3350    6.1930    2.0190 ha        1 0UF      0.143000
     46 H9          4.0030    8.2450    2.4140 ha        1 0UF      0.130000
     47 H10         1.7620    8.5630    1.3200 ha        1 0UF      0.146000
     48 H11        -0.2870    4.0120   -2.4050 ha        1 0UF      0.159000
     49 H13        -1.4330    6.7820   -1.4950 ha        1 0UF      0.128000
     50 H15        -3.3330    6.3740   -2.8670 ha        1 0UF      0.165000
     51 H17        -1.9250    3.6890   -3.6380 ha        1 0UF      0.148000
     52 H20        -5.4470    1.4320   -7.7290 h1        1 0UF      0.082700
     53 H21        -3.7260    1.1970   -7.1300 h1        1 0UF      0.082700
     54 H22        -6.3000    0.2510   -5.6570 hc        1 0UF      0.055450
     55 H23        -4.5940    0.0260   -5.0830 hc        1 0UF      0.055450
     56 H24        -5.7590   -1.0160   -7.7610 hc        1 0UF      0.039950
     57 H25        -4.0580   -1.2400   -7.1910 hc        1 0UF      0.039950
     58 H26        -5.4430   -3.2590   -6.7150 hc        1 0UF      0.031533
     59 H27        -6.6000   -2.2600   -5.7400 hc        1 0UF      0.031533
     60 H28        -4.8960   -2.4840   -5.1710 hc        1 0UF      0.031533
     61 H29        -7.3660    5.9420   -4.5920 h1        1 0UF      0.082700
     62 H30        -8.0770    4.8490   -5.8850 h1        1 0UF      0.082700
     63 H31        -6.1330    7.2370   -6.3570 hc        1 0UF      0.055450
     64 H32        -6.8210    6.1640   -7.6490 hc        1 0UF      0.055450
     65 H33        -8.4660    7.8730   -5.6540 hc        1 0UF      0.039950
     66 H34        -9.1480    6.8030   -6.9410 hc        1 0UF      0.039950
     67 H35        -7.2810    9.2320   -7.4100 hc        1 0UF      0.031533
     68 H36        -7.9660    8.1610   -8.6990 hc        1 0UF      0.031533
     69 H37        -9.0710    9.1820   -7.6890 hc        1 0UF      0.031533
@<TRIPOS>BOND
     1    1    2 1   
     2    2    3 1   
     3    2    4 1   
     4    2    5 1   
     5    5    6 1   
     6    5   38 1   
     7    5   39 1   
     8    6    7 1   
     9    6   40 1   
    10    6   41 1   
    11    7    8 1   
    12    7   42 1   
    13    7   43 1   
    14    8    9 1   
    15    8   16 1   
    16    9   10 ar  
    17    9   14 ar  
    18   10   11 ar  
    19   10   44 1   
    20   11   12 ar  
    21   11   45 1   
    22   12   13 ar  
    23   12   46 1   
    24   13   14 ar  
    25   13   47 1   
    26   14   15 1   
    27   15   16 1   
    28   16   17 2   
    29   17   18 1   
    30   17   48 1   
    31   18   19 2   
    32   18   49 1   
    33   19   20 1   
    34   19   50 1   
    35   20   21 2   
    36   20   51 1   
    37   21   22 1   
    38   21   24 1   
    39   22   23 2   
    40   22   33 1   
    41   24   25 2   
    42   24   26 1   
    43   26   27 1   
    44   26   31 1   
    45   27   28 1   
    46   27   52 1   
    47   27   53 1   
    48   28   29 1   
    49   28   54 1   
    50   28   55 1   
    51   29   30 1   
    52   29   56 1   
    53   29   57 1   
    54   30   58 1   
    55   30   59 1   
    56   30   60 1   
    57   31   32 2   
    58   31   33 1   
    59   33   34 1   
    60   34   35 1   
    61   34   61 1   
    62   34   62 1   
    63   35   36 1   
    64   35   63 1   
    65   35   64 1   
    66   36   37 1   
    67   36   65 1   
    68   36   66 1   
    69   37   67 1   
    70   37   68 1   
    71   37   69 1   
@<TRIPOS>SUBSTRUCTURE
     1 0UF         1 TEMP              0 ****  ****    0 ROOT
