@<TRIPOS>MOLECULE
0UF
   69    71     1     0     0
SMALL
bcc


@<TRIPOS>ATOM
      1 O5          7.3240    2.8490   -0.6990 o         1 0UF     -0.750533
      2 S1          6.7620    2.8720    0.5940 s6        1 0UF      1.432800
      3 O4          7.0190    1.6790    1.3290 o         1 0UF     -0.750533
      4 O6          6.9900    4.0530    1.3260 o         1 0UF     -0.750533
      5 C13         4.9940    2.8550    0.3300 c3        1 0UF     -0.298600
      6 C4          4.4740    1.5580   -0.2220 c3        1 0UF     -0.045400
      7 C1          4.2760    0.5470    0.9130 c3        1 0UF      0.021300
      8 N1          4.2680   -0.8380    0.5110 na        1 0UF     -0.090400
      9 C8          5.4390   -1.5970    0.2650 ca        1 0UF     -0.051200
     10 C17         6.7920   -1.3510    0.4860 ca        1 0UF     -0.085000
     11 C23         7.6800   -2.3760    0.1340 ca        1 0UF     -0.125000
     12 C26         7.2480   -3.5860   -0.4130 ca        1 0UF     -0.136000
     13 C20         5.8910   -3.8460   -0.6480 ca        1 0UF     -0.115000
     14 C14         5.0130   -2.8380   -0.3030 ca        1 0UF      0.027100
     15 O1          3.6110   -2.8270   -0.4340 os        1 0UF     -0.223200
     16 C9          3.1820   -1.5680    0.0480 cc        1 0UF      0.266000
     17 C18         1.8320   -1.2670    0.0540 cf        1 0UF     -0.351000
     18 C24         0.8630   -2.1780   -0.4060 cf        1 0UF      0.077000
     19 C25        -0.4970   -2.0020   -0.4230 ce        1 0UF     -0.312000
     20 C19        -1.1610   -0.8500    0.0410 ce        1 0UF      0.128000
     21 C10        -2.5190   -0.6170    0.0560 cd        1 0UF     -0.374400
     22 C12        -3.5140   -1.5640   -0.4340 c         1 0UF      0.726200
     23 O3         -3.2580   -2.6970   -0.8840 o         1 0UF     -0.627000
     24 C11        -2.9740    0.6660    0.6020 c         1 0UF      0.726200
     25 O2         -2.1960    1.5290    1.0520 o         1 0UF     -0.627000
     26 N2         -4.3670    0.9340    0.6290 n         1 0UF     -0.451900
     27 C2         -4.7990    2.2140    1.1730 c3        1 0UF      0.080000
     28 C5         -4.7220    3.3740    0.1810 c3        1 0UF     -0.094400
     29 C15        -5.1700    4.6530    0.8560 c3        1 0UF     -0.076400
     30 C21        -5.1000    5.8240   -0.0900 c3        1 0UF     -0.091100
     31 C7         -5.3190    0.0470    0.1210 c         1 0UF      0.593400
     32 S2         -6.9060    0.4240    0.1500 s         1 0UF     -0.591400
     33 N3         -4.8820   -1.1680   -0.4090 n         1 0UF     -0.451900
     34 C3         -5.8660   -2.1090   -0.9280 c3        1 0UF      0.080000
     35 C6         -6.2950   -3.1820    0.0730 c3        1 0UF     -0.094400
     36 C16        -7.3000   -4.1100   -0.5750 c3        1 0UF     -0.076400
     37 C22        -7.7430   -5.1880    0.3810 c3        1 0UF     -0.091100
     38 H1          4.4790    3.1090    1.2870 h1        1 0UF      0.074700
     39 H2          4.7530    3.6760   -0.3900 h1        1 0UF      0.074700
     40 H3          3.4980    1.7110   -0.7530 hc        1 0UF      0.042700
     41 H4          5.2100    1.1680   -0.9770 hc        1 0UF      0.042700
     42 H5          5.1300    0.6600    1.6520 h1        1 0UF      0.092700
     43 H6          3.3020    0.7570    1.4380 h1        1 0UF      0.092700
     44 H7          7.1450   -0.3830    0.9030 ha        1 0UF      0.237000
     45 H8          8.7570   -2.2080    0.2920 ha        1 0UF      0.143000
     46 H9          7.9880   -4.3570   -0.6740 ha        1 0UF      0.130000
     47 H10         5.5460   -4.7920   -1.0820 ha        1 0UF      0.146000
     48 H11         1.5320   -0.2770    0.4300 ha        1 0UF      0.159000
     49 H13         1.2440   -3.1450   -0.7960 ha        1 0UF      0.128000
     50 H15        -1.1130   -2.8250   -0.8280 ha        1 0UF      0.165000
     51 H17        -0.5280   -0.0280    0.4460 ha        1 0UF      0.148000
     52 H20        -5.8620    2.1100    1.5430 h1        1 0UF      0.082700
     53 H21        -4.1290    2.4420    2.0520 h1        1 0UF      0.082700
     54 H22        -3.6680    3.4890   -0.1850 hc        1 0UF      0.055450
     55 H23        -5.3750    3.1670   -0.7070 hc        1 0UF      0.055450
     56 H24        -6.2220    4.5310    1.2280 hc        1 0UF      0.039950
     57 H25        -4.5220    4.8520    1.7500 hc        1 0UF      0.039950
     58 H26        -4.0540    5.9740   -0.4530 hc        1 0UF      0.031533
     59 H27        -5.7580    5.6540   -0.9770 hc        1 0UF      0.031533
     60 H28        -5.4330    6.7580    0.4230 hc        1 0UF      0.031533
     61 H29        -6.7770   -1.5320   -1.2670 h1        1 0UF      0.082700
     62 H30        -5.4020   -2.6130   -1.8250 h1        1 0UF      0.082700
     63 H31        -5.3980   -3.7670    0.4070 hc        1 0UF      0.055450
     64 H32        -6.7520   -2.7040    0.9790 hc        1 0UF      0.055450
     65 H33        -8.1910   -3.5190   -0.9150 hc        1 0UF      0.039950
     66 H34        -6.8440   -4.5800   -1.4860 hc        1 0UF      0.039950
     67 H35        -6.8710   -5.8020    0.7140 hc        1 0UF      0.031533
     68 H36        -8.2220   -4.7400    1.2850 hc        1 0UF      0.031533
     69 H37        -8.4830   -5.8640   -0.1130 hc        1 0UF      0.031533
@<TRIPOS>BOND
     1    1    2 1   
     2    2    3 1   
     3    2    4 1   
     4    2    5 1   
     5    5    6 1   
     6    5   38 1   
     7    5   39 1   
     8    6    7 1   
     9    6   40 1   
    10    6   41 1   
    11    7    8 1   
    12    7   42 1   
    13    7   43 1   
    14    8    9 1   
    15    8   16 1   
    16    9   10 ar  
    17    9   14 ar  
    18   10   11 ar  
    19   10   44 1   
    20   11   12 ar  
    21   11   45 1   
    22   12   13 ar  
    23   12   46 1   
    24   13   14 ar  
    25   13   47 1   
    26   14   15 1   
    27   15   16 1   
    28   16   17 2   
    29   17   18 1   
    30   17   48 1   
    31   18   19 2   
    32   18   49 1   
    33   19   20 1   
    34   19   50 1   
    35   20   21 2   
    36   20   51 1   
    37   21   22 1   
    38   21   24 1   
    39   22   23 2   
    40   22   33 1   
    41   24   25 2   
    42   24   26 1   
    43   26   27 1   
    44   26   31 1   
    45   27   28 1   
    46   27   52 1   
    47   27   53 1   
    48   28   29 1   
    49   28   54 1   
    50   28   55 1   
    51   29   30 1   
    52   29   56 1   
    53   29   57 1   
    54   30   58 1   
    55   30   59 1   
    56   30   60 1   
    57   31   32 2   
    58   31   33 1   
    59   33   34 1   
    60   34   35 1   
    61   34   61 1   
    62   34   62 1   
    63   35   36 1   
    64   35   63 1   
    65   35   64 1   
    66   36   37 1   
    67   36   65 1   
    68   36   66 1   
    69   37   67 1   
    70   37   68 1   
    71   37   69 1   
@<TRIPOS>SUBSTRUCTURE
     1 0UF         1 TEMP              0 ****  ****    0 ROOT
