@<TRIPOS>MOLECULE
0UH
   35    34     1     0     0
SMALL
bcc


@<TRIPOS>ATOM
      1 P           2.4540   -1.8180    4.4360 p3        1 0UH      2.539000
      2 OP1         1.4910   -2.9800    4.3380 o         1 0UH     -1.256500
      3 OP2         3.8530   -2.3410    4.6240 os        1 0UH     -1.217000
      4 O5'         2.3850   -0.9570    3.1000 os        1 0UH     -0.730000
      5 C5'         1.2490   -0.1650    2.8710 c3        1 0UH      0.073000
      6 C4'         1.4590    0.6800    1.5830 c3        1 0UH     -0.049000
      7 O4'         0.8560    0.1560    0.6150 os        1 0UH     -0.296000
      8 C3'         0.8070    2.0990    1.7520 c3        1 0UH     -0.002000
      9 O3'         1.7800    3.0590    1.8450 oh        1 0UH     -0.383000
     10 C2'        -0.0130    2.3110    0.5250 c3        1 0UH     -0.196000
     11 C1'         0.3510    1.3580   -0.2940 c3        1 0UH      0.165000
     12 N9         -0.7660    0.9380   -1.0910 n3        1 0UH     -0.233000
     13 C8         -2.0830    0.6750   -0.6140 c2        1 0UH      0.041000
     14 N7         -2.7240   -0.2020   -1.3990 n1        1 0UH     -0.190000
     15 C6         -2.2590   -1.5280   -3.4960 c1        1 0UH      0.174000
     16 N6         -3.3540   -2.4380   -3.3330 n2        1 0UH     -0.322000
     17 C5         -1.9300   -0.6070   -2.4530 c1        1 0UH     -0.237000
     18 N1         -1.2240   -1.7960   -4.5030 n         1 0UH     -0.330000
     19 C2          0.1600   -1.0500   -4.3670 c2        1 0UH      0.345000
     20 O2          0.9250   -1.0220   -5.3020 o         1 0UH     -0.420000
     21 N3          0.3520   -0.1000   -3.2030 n2        1 0UH     -0.266000
     22 C4         -0.6990    0.0510   -2.3340 c2        1 0UH      0.155000
     23 H5'         1.1080    0.4320    3.6340 h1        1 0UH      0.036500
     24 H5''        0.4620   -0.7450    2.7590 h1        1 0UH      0.036500
     25 H4'         2.4160    0.7660    1.3830 h1        1 0UH      0.089000
     26 H3'         0.2380    2.1160    2.5450 h1        1 0UH      0.188000
     27 H3          1.6570    3.5390    2.5940 ho        1 0UH      0.280000
     28 H2'         0.1800    3.1890    0.1340 hc        1 0UH      0.091000
     29 H2''       -0.9590    2.2330    0.7330 hc        1 0UH      0.091000
     30 H1'         1.0820    1.6730   -0.8750 h2        1 0UH      0.118000
     31 H8         -2.5810    1.3700   -0.1580 h5        1 0UH      0.355000
     32 HN61       -3.9750   -2.2970   -2.6660 hn        1 0UH      0.189500
     33 HN62       -3.4770   -3.1300   -3.9430 hn        1 0UH      0.189500
     34 HN1        -1.3000   -2.5180   -5.0550 hn        1 0UH      0.230000
     35 OP3         2.0790   -0.9520    5.6120 o         1 0UH     -1.256500
@<TRIPOS>BOND
     1    1    2 1   
     2    1    4 1   
     3    1   35 1   
     4    4    5 1   
     5    5    6 1   
     6    5   23 1   
     7    5   24 1   
     8    6    7 1   
     9    6    8 1   
    10    6   25 1   
    11    7   11 1   
    12    8    9 1   
    13    8   10 1   
    14    8   26 1   
    15    9   27 1   
    16   10   11 1   
    17   10   28 1   
    18   10   29 1   
    19   11   12 1   
    20   11   30 1   
    21   12   13 1   
    22   12   22 1   
    23   13   14 1   
    24   13   31 1   
    25   15   17 1   
    26   15   18 1   
    27   16   32 1   
    28   16   33 1   
    29   17   22 1   
    30   18   19 1   
    31   18   34 1   
    32   19   20 1   
    33   19   21 1   
    34   21   22 1   
@<TRIPOS>SUBSTRUCTURE
     1 0UH         1 TEMP              0 ****  ****    0 ROOT
