@<TRIPOS>MOLECULE
0UH
   35    37     1     0     0
SMALL
bcc


@<TRIPOS>ATOM
      1 P           4.4490   -0.0680   -1.1210 p5        1 0UH      1.330900
      2 OP1         3.9370   -1.4850   -1.2850 o         1 0UH     -0.929500
      3 OP2         3.8140    0.9180   -2.0590 o         1 0UH     -0.929500
      4 O5'         3.6210    0.3090    0.3730 os        1 0UH     -0.553200
      5 C5'         2.2600    0.3210    0.2490 c3        1 0UH      0.226400
      6 C4'         1.6410   -0.9610    0.8560 c3        1 0UH      0.050100
      7 O4'         0.3560   -0.6460    1.4580 os        1 0UH     -0.436600
      8 C3'         1.4140   -2.0910   -0.1690 c3        1 0UH      0.155100
      9 O3'         2.2580   -3.1900    0.0850 oh        1 0UH     -0.669800
     10 C2'        -0.0440   -2.5310    0.0360 c3        1 0UH     -0.130400
     11 C1'        -0.6870   -1.3950    0.8580 c3        1 0UH      0.254800
     12 N9         -1.5320   -0.5040    0.0590 na        1 0UH     -0.263900
     13 C8         -1.0780    0.5240   -0.8200 cc        1 0UH      0.521400
     14 N7         -2.0530    1.2680   -1.3420 nd        1 0UH     -0.695000
     15 C6         -4.5810    1.1110   -0.9570 cc        1 0UH      0.303600
     16 N6         -4.9720    2.0890   -1.8870 nh        1 0UH     -0.825600
     17 C5         -3.2470    0.7480   -0.7850 cd        1 0UH      0.061300
     18 N1         -5.5220    0.4140   -0.2110 n         1 0UH     -0.491100
     19 C2         -5.1560   -0.6820    0.6550 c         1 0UH      0.830900
     20 O2         -6.1360   -1.2150    1.2290 o         1 0UH     -0.677500
     21 N3         -3.8310   -1.0810    0.8280 nc        1 0UH     -0.399400
     22 C4         -2.9210   -0.3820    0.1310 cd        1 0UH      0.076400
     23 H5'         1.8300    1.1940    0.8260 h1        1 0UH     -0.005300
     24 H5''        1.9580    0.4160   -0.8350 h1        1 0UH     -0.005300
     25 H4'         2.2830   -1.3210    1.7030 h1        1 0UH      0.079700
     26 H3'         1.5860   -1.7190   -1.2170 h1        1 0UH      0.101700
     27 H3          3.1350   -2.9300   -0.2860 ho        1 0UH      0.501000
     28 H2'        -0.5530   -2.7110   -0.9380 hc        1 0UH      0.055200
     29 H2''       -0.0840   -3.4750    0.6340 hc        1 0UH      0.055200
     30 H1'        -1.3340   -1.7830    1.6990 h2        1 0UH      0.079700
     31 H8          0.0100    0.6440   -1.0050 h5        1 0UH      0.126100
     32 HN61       -5.7000    2.6970   -1.5830 hn        1 0UH      0.407300
     33 HN62       -4.1950    2.5700   -2.2910 hn        1 0UH      0.407300
     34 HN1        -6.4930    0.6020   -0.3210 hn        1 0UH      0.319500
     35 OP3         5.8960    0.1020   -0.7790 o         1 0UH     -0.929500
@<TRIPOS>BOND
     1    1    2 1   
     2    1    3 1   
     3    1    4 1   
     4    1   35 1   
     5    4    5 1   
     6    5    6 1   
     7    5   23 1   
     8    5   24 1   
     9    6    7 1   
    10    6    8 1   
    11    6   25 1   
    12    7   11 1   
    13    8    9 1   
    14    8   10 1   
    15    8   26 1   
    16    9   27 1   
    17   10   11 1   
    18   10   28 1   
    19   10   29 1   
    20   11   12 1   
    21   11   30 1   
    22   12   13 1   
    23   12   22 1   
    24   13   14 2   
    25   13   31 1   
    26   14   17 1   
    27   15   16 1   
    28   15   17 2   
    29   15   18 1   
    30   16   32 1   
    31   16   33 1   
    32   17   22 1   
    33   18   19 1   
    34   18   34 1   
    35   19   20 2   
    36   19   21 1   
    37   21   22 2   
@<TRIPOS>SUBSTRUCTURE
     1 0UH         1 TEMP              0 ****  ****    0 ROOT
