@<TRIPOS>MOLECULE
0UJ
   47    49     1     0     0
SMALL
bcc


@<TRIPOS>ATOM
      1 C4          0.2200    1.8690    0.3470 c3        1 0UJ      0.056000
      2 C14         2.3540   -1.2870    2.3560 c3        1 0UJ     -0.191000
      3 C5          1.6070    1.2710    0.2050 c2        1 0UJ     -0.030000
      4 C11         0.2180   -2.5520    1.8350 c3        1 0UJ     -0.249000
      5 C7          1.9170    0.1800    2.4010 c3        1 0UJ     -0.063000
      6 C9         -1.0660   -2.2400    2.4660 c2        1 0UJ      0.358000
      7 C12         1.3170   -2.2650    2.8720 c3        1 0UJ     -0.105000
      8 N3         -0.7850    1.1730   -0.4020 n3        1 0UJ     -0.896000
      9 S2         -1.9810    0.3300    0.2380 s6        1 0UJ      2.840000
     10 N6          2.4430    1.0620    1.3750 na        1 0UJ     -0.183000
     11 C15        -0.8920   -1.6940    3.8090 c3        1 0UJ     -0.247000
     12 C16         0.5940   -1.8140    4.1510 c3        1 0UJ     -0.172000
     13 C17         3.7540    0.7520    0.8210 c2        1 0UJ      0.039000
     14 C18         4.8880    0.7360    1.5400 c2        1 0UJ     -0.161000
     15 C19         4.9600    1.0550    3.0120 c3        1 0UJ     -0.147000
     16 C20         6.4570    1.0430    3.2650 c2        1 0UJ     -0.076000
     17 N21         7.1940    0.7380    2.2430 n2        1 0UJ     -0.067000
     18 C23         6.3140    0.4820    1.0960 c2        1 0UJ      0.043000
     19 N24         6.7930    0.0860   -0.0280 n2        1 0UJ     -0.152000
     20 C25         4.4730    0.3850   -1.5980 c1        1 0UJ      0.340000
     21 C26         3.5580    0.6850   -0.6660 c2        1 0UJ     -0.378000
     22 N27         2.2020    1.0730   -0.9570 n2        1 0UJ     -0.074000
     23 O28        -2.4770   -0.6330   -0.6530 o         1 0UJ     -0.977500
     24 O29        -1.5350   -0.2810    1.4810 o         1 0UJ     -0.977500
     25 H1         -0.0790    1.8930    1.4350 h1        1 0UJ      0.126500
     26 H2          0.2930    2.9390   -0.0180 h1        1 0UJ      0.126500
     27 H5          0.2430   -3.6230    1.4820 hc        1 0UJ      0.187500
     28 H6          0.3410   -1.9240    0.9030 hc        1 0UJ      0.187500
     29 H7          0.7890    0.2260    2.3710 h1        1 0UJ      0.101500
     30 H8          2.2540    0.6260    3.3830 h1        1 0UJ      0.101500
     31 H9          1.8570   -3.2310    3.0860 hc        1 0UJ      0.128000
     32 H10        -2.0440   -2.4720    2.0140 ha        1 0UJ      0.193000
     33 H11        -3.4800    2.1050   -0.2290 h1        1 0UJ      0.181667
     34 H12        -2.8640    2.1710    1.4470 h1        1 0UJ      0.181667
     35 H13        -4.0970    0.9610    0.9870 h1        1 0UJ      0.181667
     36 H14        -1.5570   -2.1870    4.5710 hc        1 0UJ      0.196500
     37 H15         0.9940   -0.8410    4.5300 hc        1 0UJ      0.122500
     38 H16        -1.2230   -0.6060    3.7650 hc        1 0UJ      0.196500
     39 H17         0.7410   -2.5710    4.9630 hc        1 0UJ      0.122500
     40 H18         4.4480    0.2850    3.6410 hc        1 0UJ      0.119000
     41 H19         4.5190    2.0580    3.2370 hc        1 0UJ      0.119000
     42 H20         6.8810    1.2830    4.2490 h4        1 0UJ      0.189000
     43 H21         6.1410   -0.0840   -0.7700 hn        1 0UJ      0.159000
     44 H3          2.6320   -1.5870    1.3090 hc        1 0UJ      0.113000
     45 C1         -3.1560    1.4620    0.6310 c3        1 0UJ     -0.962000
     46 H32        -0.6380    1.2110   -1.3900 hn        1 0UJ      0.286000
     47 H4          3.2840   -1.4000    2.9770 hc        1 0UJ      0.113000
@<TRIPOS>BOND
     1    1    3 1   
     2    1    8 1   
     3    1   25 1   
     4    1   26 1   
     5    2    5 1   
     6    2    7 1   
     7    2   44 1   
     8    2   47 1   
     9    3   10 1   
    10    3   22 1   
    11    4    6 1   
    12    4    7 1   
    13    4   27 1   
    14    4   28 1   
    15    5   10 1   
    16    5   29 1   
    17    5   30 1   
    18    6   11 1   
    19    6   32 1   
    20    7   12 1   
    21    7   31 1   
    22    8    9 1   
    23    8   46 1   
    24    9   23 1   
    25    9   24 1   
    26    9   45 1   
    27   10   13 1   
    28   11   12 1   
    29   11   36 1   
    30   11   38 1   
    31   12   37 1   
    32   12   39 1   
    33   13   14 1   
    34   13   21 1   
    35   14   15 1   
    36   14   18 1   
    37   15   16 1   
    38   15   40 1   
    39   15   41 1   
    40   16   17 1   
    41   16   42 1   
    42   17   18 1   
    43   18   19 1   
    44   19   43 1   
    45   20   21 1   
    46   21   22 1   
    47   33   45 1   
    48   34   45 1   
    49   35   45 1   
@<TRIPOS>SUBSTRUCTURE
     1 0UJ         1 TEMP              0 ****  ****    0 ROOT
