@<TRIPOS>MOLECULE
0UJ
   47    47     1     0     0
SMALL
bcc


@<TRIPOS>ATOM
      1 C4          0.1830   -0.6430    0.1940 c3        1 0UJ      0.064000
      2 C14         1.4080    0.8580    2.7890 c3        1 0UJ     -0.297000
      3 C5          1.6210   -0.3180   -0.2120 c2        1 0UJ     -0.004000
      4 C11        -0.5440   -2.1350    3.1400 c2        1 0UJ     -0.266000
      5 C7          2.5650    0.7530    1.8880 c2        1 0UJ      0.165000
      6 C9         -1.9030   -1.2670    5.8500 c3        1 0UJ     -0.208000
      7 C12         0.3700   -2.3880    4.0820 c2        1 0UJ     -0.114000
      8 N3         -0.7780    0.0330   -0.6050 n7        1 0UJ     -0.875000
      9 S2         -1.4630    1.4540   -0.1510 s6        1 0UJ      2.833000
     10 N6          2.6650    0.1940    0.7040 na        1 0UJ     -0.061000
     11 C15        -0.4540   -1.1790    6.1050 c2        1 0UJ     -0.099000
     12 C16         0.5240   -1.6640    5.3270 c2        1 0UJ     -0.205000
     13 C17         3.9060    0.1800   -0.0830 c2        1 0UJ      0.010000
     14 C18         5.1560    0.2860    0.3980 c2        1 0UJ     -0.102000
     15 C19         5.5990    0.2650    1.8360 c3        1 0UJ     -0.178000
     16 C20         7.0780   -0.0800    1.7020 c2        1 0UJ     -0.061000
     17 N21         7.5400   -0.0820    0.4910 n2        1 0UJ     -0.042000
     18 C23         6.4520    0.2880   -0.4160 c2        1 0UJ      0.037000
     19 N24         6.6700    0.6210   -1.6340 n2        1 0UJ     -0.118000
     20 C25         4.1910   -0.1890   -2.6020 c1        1 0UJ      0.439000
     21 C26         3.4620   -0.1480   -1.4690 c2        1 0UJ     -0.393000
     22 N27         2.0670   -0.4860   -1.4320 n2        1 0UJ     -0.002000
     23 O28        -2.7120    1.2400    0.4330 o         1 0UJ     -0.937500
     24 O29        -0.5050    2.1050    0.6660 o         1 0UJ     -0.937500
     25 H1          0.0190   -0.3940    1.2810 h1        1 0UJ      0.137000
     26 H2          0.0770   -1.7660    0.0800 h1        1 0UJ      0.137000
     27 H5         -1.3010   -1.3440    3.2400 ha        1 0UJ      0.116500
     28 H6         -0.6200   -2.7410    2.2280 ha        1 0UJ      0.116500
     29 H7         -2.2670   -0.3260    5.3640 hc        1 0UJ      0.096000
     30 H8          3.4970    1.2290    2.2850 h4        1 0UJ      0.186000
     31 H9          1.0960   -3.2120    3.9430 ha        1 0UJ      0.128000
     32 H10        -2.4580   -1.3950    6.8130 hc        1 0UJ      0.096000
     33 H11        -2.3260    1.7520   -2.3410 h1        1 0UJ      0.177667
     34 H12        -0.6800    2.4380   -2.1670 h1        1 0UJ      0.177667
     35 H13        -2.0850    3.2770   -1.4570 h1        1 0UJ      0.177667
     36 H14        -2.1560   -2.1280    5.1810 hc        1 0UJ      0.096000
     37 H15        -0.1820   -0.6710    7.0490 ha        1 0UJ      0.130000
     38 H16         0.5960    1.5000    2.3330 hc        1 0UJ      0.175333
     39 H17         1.5720   -1.5710    5.6670 ha        1 0UJ      0.120000
     40 H18         5.0610   -0.5080    2.4390 hc        1 0UJ      0.133000
     41 H19         5.5050    1.2670    2.3310 hc        1 0UJ      0.133000
     42 H20         7.6970   -0.3110    2.5810 h4        1 0UJ      0.208000
     43 H21         5.8900    0.9220   -2.1830 hn        1 0UJ      0.167000
     44 H3          1.7290    1.3500    3.7450 hc        1 0UJ      0.175333
     45 C1         -1.6370    2.2580   -1.6170 c3        1 0UJ     -0.966000
     46 H32        -0.9960   -0.4280   -1.4570 hn        1 0UJ      0.260000
     47 H4          0.9720   -0.1490    3.0500 hc        1 0UJ      0.175333
@<TRIPOS>BOND
     1    1    3 1   
     2    1    8 1   
     3    1   25 1   
     4    1   26 1   
     5    2    5 1   
     6    2   38 1   
     7    2   44 1   
     8    2   47 1   
     9    3   10 1   
    10    3   22 1   
    11    4    7 1   
    12    4   27 1   
    13    4   28 1   
    14    5   10 1   
    15    5   30 1   
    16    6   11 1   
    17    6   29 1   
    18    6   32 1   
    19    6   36 1   
    20    7   12 1   
    21    7   31 1   
    22    8    9 1   
    23    8   46 1   
    24    9   23 1   
    25    9   24 1   
    26    9   45 1   
    27   10   13 1   
    28   11   12 1   
    29   11   37 1   
    30   12   39 1   
    31   13   14 1   
    32   13   21 1   
    33   14   15 1   
    34   14   18 1   
    35   15   16 1   
    36   15   40 1   
    37   15   41 1   
    38   16   17 1   
    39   16   42 1   
    40   17   18 1   
    41   18   19 1   
    42   19   43 1   
    43   20   21 1   
    44   21   22 1   
    45   33   45 1   
    46   34   45 1   
    47   35   45 1   
@<TRIPOS>SUBSTRUCTURE
     1 0UJ         1 TEMP              0 ****  ****    0 ROOT
