@<TRIPOS>MOLECULE
0UJ
   47    49     1     0     0
SMALL
bcc


@<TRIPOS>ATOM
      1 C4         -0.1470    0.3150   -1.0000 c3        1 0UJ      0.058000
      2 C14         1.1470   -1.8450    1.9330 c3        1 0UJ     -0.188000
      3 C5          1.3110    0.0560   -0.6430 c2        1 0UJ     -0.017000
      4 C11        -0.0780   -1.8830    4.2170 c3        1 0UJ     -0.171000
      5 C7          1.0560   -0.3170    1.7940 c3        1 0UJ     -0.050000
      6 C9          0.4500   -1.6090    5.6260 c3        1 0UJ     -0.177000
      7 C12         1.1350   -2.3150    3.3760 c3        1 0UJ     -0.187000
      8 N3         -0.5910    1.6250   -0.6710 n3        1 0UJ     -0.878000
      9 S2         -0.8670    2.8240   -1.7610 s6        1 0UJ      2.820000
     10 N6          1.8010    0.2750    0.7130 na        1 0UJ     -0.198000
     11 C15         1.9760   -1.5700    5.5210 c3        1 0UJ     -0.264000
     12 C16         2.3190   -1.9680    4.1650 c2        1 0UJ      0.287000
     13 C17         3.2270    0.0280    0.6360 c2        1 0UJ      0.085000
     14 C18         4.1070    0.2740    1.6240 c2        1 0UJ     -0.236000
     15 C19         3.7800    0.9990    2.9030 c3        1 0UJ     -0.127000
     16 C20         5.1620    1.2840    3.4670 c2        1 0UJ     -0.097000
     17 N21         6.1490    0.7740    2.8020 n2        1 0UJ     -0.051000
     18 C23         5.6030    0.0480    1.6470 c2        1 0UJ      0.038000
     19 N24         6.3650   -0.6630    0.8980 n2        1 0UJ     -0.151000
     20 C25         4.6620   -0.6380   -1.3720 c1        1 0UJ      0.375000
     21 C26         3.4870   -0.3610   -0.7870 c2        1 0UJ     -0.396000
     22 N27         2.2410   -0.2900   -1.5100 n2        1 0UJ     -0.045000
     23 O28        -0.3510    4.0170   -1.2300 o         1 0UJ     -0.915000
     24 O29        -0.4390    2.4030   -3.0300 o         1 0UJ     -0.915000
     25 H1         -0.7630   -0.4610   -0.4560 h1        1 0UJ      0.124500
     26 H2         -0.2710    0.1480   -2.1150 h1        1 0UJ      0.124500
     27 H5         -0.8590   -2.6830    4.2250 hc        1 0UJ      0.131000
     28 H6         -0.5420   -0.9630    3.7790 hc        1 0UJ      0.131000
     29 H7         -0.0270   -0.0310    1.6530 h1        1 0UJ      0.105000
     30 H8          1.4050    0.1680    2.7500 h1        1 0UJ      0.105000
     31 H9          1.1530   -3.4640    3.3360 hc        1 0UJ      0.212000
     32 H10         0.0530   -0.6410    6.0220 hc        1 0UJ      0.135000
     33 H11        -3.0700    2.0060   -2.1250 h1        1 0UJ      0.162000
     34 H12        -2.8920    3.7510   -2.4530 h1        1 0UJ      0.162000
     35 H13        -3.0010    3.1780   -0.7680 h1        1 0UJ      0.162000
     36 H14         0.1300   -2.4160    6.3340 hc        1 0UJ      0.135000
     37 H15         2.4820   -2.2350    6.2870 hc        1 0UJ      0.212000
     38 H16         2.3910   -0.5370    5.7420 hc        1 0UJ      0.212000
     39 H17         3.3530   -2.0260    3.7760 ha        1 0UJ      0.204000
     40 H18         3.2020    0.3610    3.6220 hc        1 0UJ      0.094000
     41 H19         3.2090    1.9430    2.7130 hc        1 0UJ      0.094000
     42 H20         5.3070    1.9020    4.3640 h4        1 0UJ      0.190000
     43 H21         5.9340   -1.1440    0.1340 hn        1 0UJ      0.162000
     44 H3          0.2700   -2.3130    1.4090 hc        1 0UJ      0.129500
     45 C1         -2.5580    2.9310   -1.7630 c3        1 0UJ     -0.952000
     46 H32        -0.5730    1.8320    0.2990 hn        1 0UJ      0.233000
     47 H4          2.0760   -2.2360    1.4350 hc        1 0UJ      0.129500
@<TRIPOS>BOND
     1    1    3 1   
     2    1    8 1   
     3    1   25 1   
     4    1   26 1   
     5    2    5 1   
     6    2    7 1   
     7    2   44 1   
     8    2   47 1   
     9    3   10 1   
    10    3   22 1   
    11    4    6 1   
    12    4    7 1   
    13    4   27 1   
    14    4   28 1   
    15    5   10 1   
    16    5   29 1   
    17    5   30 1   
    18    6   11 1   
    19    6   32 1   
    20    6   36 1   
    21    7   12 1   
    22    7   31 1   
    23    8    9 1   
    24    8   46 1   
    25    9   23 1   
    26    9   24 1   
    27    9   45 1   
    28   10   13 1   
    29   11   12 1   
    30   11   37 1   
    31   11   38 1   
    32   12   39 1   
    33   13   14 1   
    34   13   21 1   
    35   14   15 1   
    36   14   18 1   
    37   15   16 1   
    38   15   40 1   
    39   15   41 1   
    40   16   17 1   
    41   16   42 1   
    42   17   18 1   
    43   18   19 1   
    44   19   43 1   
    45   20   21 1   
    46   21   22 1   
    47   33   45 1   
    48   34   45 1   
    49   35   45 1   
@<TRIPOS>SUBSTRUCTURE
     1 0UJ         1 TEMP              0 ****  ****    0 ROOT
