@<TRIPOS>MOLECULE
0UJ
   46    50     1     0     0
SMALL
bcc


@<TRIPOS>ATOM
      1 C4          1.8910    0.3700    1.1210 c3        1 0UJ      0.219500
      2 C14        -0.9130   -2.3050    1.7460 c3        1 0UJ     -0.093400
      3 C5          0.5530    0.6420    0.4650 cc        1 0UJ      0.361800
      4 C11         1.4010   -2.8380    1.5970 c3        1 0UJ     -0.090400
      5 C7         -0.4180   -1.7930    0.3530 c3        1 0UJ      0.043000
      6 C9          0.9200   -2.5740    0.1490 c3        1 0UJ     -0.082700
      7 C12         0.0600   -3.4510    2.0670 c3        1 0UJ     -0.078700
      8 N3          2.8220    1.4490    1.0420 n3        1 0UJ     -0.898100
      9 S2          4.0840    1.5030    0.0260 s6        1 0UJ      1.461900
     10 N6         -0.4110   -0.3640    0.1780 na        1 0UJ     -0.128300
     11 C15         0.4860   -4.0010   -0.2600 c3        1 0UJ     -0.083400
     12 C16        -0.1510   -4.5670    1.0240 c3        1 0UJ     -0.084400
     13 C17        -1.5080    0.3150   -0.3710 ca        1 0UJ     -0.010200
     14 C18        -2.7700   -0.0700   -0.8430 ca        1 0UJ     -0.189100
     15 C19        -3.5340   -1.2790   -0.9720 cc        1 0UJ     -0.178200
     16 C20        -4.7590   -0.9310   -1.5440 cd        1 0UJ     -0.116100
     17 N21        -4.8100    0.4410   -1.7810 na        1 0UJ     -0.269100
     18 C23        -3.6010    1.0100   -1.3570 ca        1 0UJ      0.417800
     19 N24        -3.2630    2.3460   -1.4100 nb        1 0UJ     -0.679000
     20 C25        -2.0660    2.6700   -0.9430 ca        1 0UJ      0.480200
     21 C26        -1.1480    1.7170   -0.4130 ca        1 0UJ     -0.081900
     22 N27         0.1360    1.8790    0.1150 nd        1 0UJ     -0.562100
     23 O28         5.1200    2.2530    0.6210 o         1 0UJ     -0.656300
     24 O29         4.4040    0.1940   -0.4010 o         1 0UJ     -0.656300
     25 H1          1.6800    0.1440    2.2090 h1        1 0UJ      0.082200
     26 H2          2.3590   -0.5430    0.6420 h1        1 0UJ      0.082200
     27 H4         -1.9680   -2.6560    1.6740 hc        1 0UJ      0.058200
     28 H5          2.2480   -3.5580    1.6360 hc        1 0UJ      0.056200
     29 H6          1.6710   -1.9240    2.1670 hc        1 0UJ      0.056200
     30 H7         -1.1500   -2.1670   -0.4300 h1        1 0UJ      0.076700
     31 H8          1.6450   -2.1060   -0.5430 hc        1 0UJ      0.088700
     32 H9          0.0220   -3.7950    3.1190 hc        1 0UJ      0.075700
     33 H10         2.5700    2.2360    1.5950 hn        1 0UJ      0.458800
     34 H11         4.1960    3.2410   -1.5480 h1        1 0UJ      0.124700
     35 H12         3.5040    1.7380   -2.2400 h1        1 0UJ      0.124700
     36 H13         2.4950    2.8050   -1.2280 h1        1 0UJ      0.124700
     37 H14        -0.2300   -3.9950   -1.1150 hc        1 0UJ      0.052200
     38 H15         1.3810   -4.5970   -0.5600 hc        1 0UJ      0.052200
     39 H16         0.3620   -5.5040    1.3450 hc        1 0UJ      0.047700
     40 H17        -1.2340   -4.7900    0.8810 hc        1 0UJ      0.047700
     41 H18        -3.2290   -2.2770   -0.6730 ha        1 0UJ      0.154000
     42 H19        -5.6070   -1.5680   -1.8010 h4        1 0UJ      0.170000
     43 H20        -5.5650    0.9400   -2.1730 hn        1 0UJ      0.311700
     44 H21        -1.7960    3.7410   -0.9800 h4        1 0UJ      0.036100
     45 H3         -0.8550   -1.5140    2.5310 hc        1 0UJ      0.058200
     46 C1          3.5230    2.3750   -1.3200 c3        1 0UJ     -0.386300
@<TRIPOS>BOND
     1    1    3 1   
     2    1    8 1   
     3    1   25 1   
     4    1   26 1   
     5    2    5 1   
     6    2    7 1   
     7    2   27 1   
     8    2   45 1   
     9    3   10 1   
    10    3   22 2   
    11    4    6 1   
    12    4    7 1   
    13    4   28 1   
    14    4   29 1   
    15    5    6 1   
    16    5   10 1   
    17    5   30 1   
    18    6   11 1   
    19    6   31 1   
    20    7   12 1   
    21    7   32 1   
    22    8    9 1   
    23    8   33 1   
    24    9   23 2   
    25    9   24 2   
    26    9   46 1   
    27   10   13 1   
    28   11   12 1   
    29   11   37 1   
    30   11   38 1   
    31   12   39 1   
    32   12   40 1   
    33   13   14 ar  
    34   13   21 ar  
    35   14   15 1   
    36   14   18 ar  
    37   15   16 2   
    38   15   41 1   
    39   16   17 1   
    40   16   42 1   
    41   17   18 1   
    42   17   43 1   
    43   18   19 ar  
    44   19   20 ar  
    45   20   21 ar  
    46   20   44 1   
    47   21   22 1   
    48   34   46 1   
    49   35   46 1   
    50   36   46 1   
@<TRIPOS>SUBSTRUCTURE
     1 0UJ         1 TEMP              0 ****  ****    0 ROOT
