@<TRIPOS>MOLECULE
0UJ
   46    42     1     0     0
SMALL
bcc


@<TRIPOS>ATOM
      1 C4         -2.4950   -0.0240   -0.1910 c3        1 0UJ      0.054000
      2 C14         1.8000   -1.2020    1.6820 c3        1 0UJ     -0.174000
      3 C5         -0.9520   -0.0630   -0.1760 c2        1 0UJ     -0.037000
      4 C11        -0.2880   -1.6340    2.3490 c3        1 0UJ     -0.169000
      5 C7          0.9770   -0.0410    1.4400 c3        1 0UJ      0.027000
      6 C9         -0.0730   -0.0330    2.3980 c3        1 0UJ     -0.119000
      7 C12         1.2580   -1.9100    2.7850 c3        1 0UJ     -0.116000
      8 N3         -2.9420    1.1990   -0.8200 n3        1 0UJ     -0.884000
      9 C1         -4.4340    2.5600   -2.8100 c3        1 0UJ     -0.956000
     10 S2         -4.4140    1.2460   -1.5940 s6        1 0UJ      2.823000
     11 N6          0.3900   -0.1110    0.0380 n3        1 0UJ     -0.152000
     12 C15         0.3200   -0.0290    3.7290 c3        1 0UJ     -0.162000
     13 C16         1.1540   -1.2060    3.9660 c3        1 0UJ     -0.163000
     14 C17         1.0140   -0.0710   -1.1790 c1        1 0UJ      0.031000
     15 C18         2.3790   -0.0440   -1.5430 c1        1 0UJ     -0.151500
     16 C19         3.5380   -0.0470   -0.7920 c1        1 0UJ     -0.151500
     17 C20         4.6120    0.0510   -1.6620 c1        1 0UJ     -0.031500
     18 N21         4.1180    0.1150   -2.9400 n2        1 0UJ     -0.183000
     19 C23         2.7340    0.0570   -2.8700 c1        1 0UJ     -0.031500
     20 N24         1.7510    0.1310   -3.8490 n1        1 0UJ     -0.152000
     21 C25         0.4270    0.1040   -3.4970 c1        1 0UJ      0.016000
     22 C26         0.0580    0.0010   -2.1360 c1        1 0UJ     -0.157000
     23 N27        -1.1610    0.0060   -1.5160 n1        1 0UJ     -0.127000
     24 O28        -4.7300   -0.0250   -2.1940 o         1 0UJ     -0.934500
     25 O29        -5.4960    1.3880   -0.6520 o         1 0UJ     -0.934500
     26 H1         -2.8330   -0.0600    0.7320 h1        1 0UJ      0.123500
     27 H2         -2.8380   -0.7960   -0.6950 h1        1 0UJ      0.123500
     28 H3          2.7210   -0.9190    1.8890 hc        1 0UJ      0.101000
     29 H4          1.8020   -1.7790    0.8860 hc        1 0UJ      0.101000
     30 H5         -0.4870   -1.9580    1.4440 hc        1 0UJ      0.097000
     31 H6         -0.9320   -1.9480    3.0240 hc        1 0UJ      0.097000
     32 H7          1.5180    0.7770    1.5340 h1        1 0UJ      0.112000
     33 H8         -0.8760    0.4860    2.1720 hc        1 0UJ      0.115000
     34 H9          1.4900   -2.8650    2.8570 hc        1 0UJ      0.117000
     35 H10        -2.4440    1.9650   -0.7360 hn        1 0UJ      0.243000
     36 H11        -3.6630    2.4630   -3.4090 h1        1 0UJ      0.162000
     37 H12        -4.3860    3.4280   -2.3530 h1        1 0UJ      0.162000
     38 H13        -5.2650    2.5100   -3.3330 h1        1 0UJ      0.162000
     39 H14        -0.4760   -0.0630    4.3100 hc        1 0UJ      0.091000
     40 H15         0.8360    0.7870    3.9210 hc        1 0UJ      0.091000
     41 H16         2.0490   -0.9240    4.2640 hc        1 0UJ      0.088500
     42 H17         0.7380   -1.7740    4.6550 hc        1 0UJ      0.088500
     43 H18         3.5910   -0.1090    0.1830 DU        1 0UJ      0.195333
     44 H19         5.5610    0.0460   -1.4100 DU        1 0UJ      0.195333
     45 H20         4.6170    0.1850   -3.7070 DU        1 0UJ      0.195333
     46 H21        -0.2660    0.1330   -4.1930 ha        1 0UJ      0.175000
@<TRIPOS>BOND
     1    1    3 1   
     2    1    8 1   
     3    1   26 1   
     4    1   27 1   
     5    2    5 1   
     6    2    7 1   
     7    2   28 1   
     8    2   29 1   
     9    3   11 1   
    10    3   23 1   
    11    4    6 1   
    12    4    7 1   
    13    4   30 1   
    14    4   31 1   
    15    5    6 1   
    16    5   11 1   
    17    5   32 1   
    18    6   12 1   
    19    6   33 1   
    20    7   13 1   
    21    7   34 1   
    22    8   10 1   
    23    8   35 1   
    24    9   10 1   
    25    9   36 1   
    26    9   37 1   
    27    9   38 1   
    28   10   24 1   
    29   10   25 1   
    30   11   14 1   
    31   12   13 1   
    32   12   39 1   
    33   12   40 1   
    34   13   41 1   
    35   13   42 1   
    36   14   22 1   
    37   15   19 1   
    38   16   17 1   
    39   17   18 1   
    40   18   19 1   
    41   20   21 1   
    42   21   46 1   
@<TRIPOS>SUBSTRUCTURE
     1 0UJ         1 TEMP              0 ****  ****    0 ROOT
