@<TRIPOS>MOLECULE
0UL
   26    28     1     0     0
SMALL
bcc


@<TRIPOS>ATOM
      1 CAE        -0.0130   -0.4390    0.0750 ca        1 0UL     -0.087000
      2 CAC         1.3790   -0.5090    0.0940 ca        1 0UL     -0.129000
      3 CAB         2.0900   -0.0950    1.2200 ca        1 0UL     -0.085000
      4 CAD         1.4060    0.3950    2.3350 ca        1 0UL     -0.129000
      5 CAF         0.0160    0.4660    2.3280 ca        1 0UL     -0.087000
      6 CAM        -0.7030    0.0420    1.1980 ca        1 0UL     -0.191500
      7 CAN        -2.1680    0.1120    1.2000 cc        1 0UL      0.499800
      8 NAI        -2.8240    0.4460    0.0190 nc        1 0UL     -0.599000
      9 CAG        -4.1320    0.5250    0.0080 cd        1 0UL      0.477200
     10 CAO        -4.9320    0.2730    1.1920 cd        1 0UL     -0.139600
     11 NAJ        -6.2760    0.2910    1.4360 nc        1 0UL     -0.303300
     12 CAL        -6.3380   -0.0570    2.7940 cc        1 0UL      0.477200
     13 NAA        -7.5980   -0.1690    3.5170 n4        1 0UL     -0.733600
     14 NAK        -5.0920   -0.2890    3.3990 nd        1 0UL     -0.506100
     15 NAP        -4.2360   -0.0830    2.4070 na        1 0UL      0.235000
     16 CAH        -2.8450   -0.1670    2.3930 cd        1 0UL     -0.188600
     17 H1         -0.5620   -0.7630   -0.8230 ha        1 0UL      0.142000
     18 H2          1.9170   -0.8910   -0.7880 ha        1 0UL      0.151500
     19 H3          3.1890   -0.1500    1.2300 ha        1 0UL      0.152000
     20 H4          1.9660    0.7320    3.2210 ha        1 0UL      0.151500
     21 H5         -0.5130    0.8740    3.2020 ha        1 0UL      0.142000
     22 H6         -4.6470    0.7950   -0.9360 h4        1 0UL      0.083100
     23 H7         -7.6970   -1.1280    3.8780 hn        1 0UL      0.483467
     24 H8         -8.3800    0.0430    2.8800 hn        1 0UL      0.483467
     25 H9         -2.3370   -0.4580    3.3310 h4        1 0UL      0.215000
     26 HAA3       -7.6000    0.4980    4.3010 hn        1 0UL      0.483467
@<TRIPOS>BOND
     1    1    2 ar  
     2    1    6 ar  
     3    1   17 1   
     4    2    3 ar  
     5    2   18 1   
     6    3    4 ar  
     7    3   19 1   
     8    4    5 ar  
     9    4   20 1   
    10    5    6 ar  
    11    5   21 1   
    12    6    7 1   
    13    7    8 1   
    14    7   16 2   
    15    8    9 2   
    16    9   10 1   
    17    9   22 1   
    18   10   11 2   
    19   10   15 1   
    20   11   12 1   
    21   12   13 1   
    22   12   14 2   
    23   13   23 1   
    24   13   24 1   
    25   13   26 1   
    26   14   15 1   
    27   15   16 1   
    28   16   25 1   
@<TRIPOS>SUBSTRUCTURE
     1 0UL         1 TEMP              0 ****  ****    0 ROOT
