@<TRIPOS>MOLECULE
0UL
   25    20     1     0     0
SMALL
bcc


@<TRIPOS>ATOM
      1 CAE         2.4760   -1.2430   -0.2290 c1        1 0UL     -0.090000
      2 CAC         3.8620   -1.2240   -0.2210 c1        1 0UL     -0.126500
      3 CAB         4.5390   -0.0150   -0.2300 c1        1 0UL     -0.126500
      4 CAD         3.8300    1.1760   -0.2450 c1        1 0UL     -0.126500
      5 CAF         2.4440    1.1580   -0.2530 c1        1 0UL     -0.126500
      6 CAM         1.7670   -0.0520   -0.2450 c1        1 0UL     -0.030000
      7 CAN         0.2560   -0.0710   -0.1950 c2        1 0UL     -0.046000
      8 NAI        -0.2240   -0.1120   -1.4520 n1        1 0UL     -0.093000
      9 CAG        -1.5510   -0.0800   -1.6660 c1        1 0UL     -0.035000
     10 CAO        -2.4370   -0.0040   -0.5780 c1        1 0UL     -0.034000
     11 NAJ        -3.7980    0.0420   -0.5110 n1        1 0UL     -0.178000
     12 CAL        -4.1480    0.1120    0.7860 c1        1 0UL      0.042000
     13 NAA        -5.5000    0.1280    1.2170 n2        1 0UL     -0.289000
     14 NAK        -3.0240    0.1080    1.5200 n2        1 0UL     -0.153000
     15 NAP        -1.9620    0.0360    0.6650 n2        1 0UL     -0.038000
     16 CAH        -0.6180    0.0040    0.8810 c2        1 0UL     -0.042000
     17 H1          1.9990   -2.0950   -0.2230 ha        1 0UL      0.149000
     18 H2          4.3610   -2.0630   -0.2100 ha        1 0UL      0.134250
     19 H3          5.5150   -0.0020   -0.2240 ha        1 0UL      0.134250
     20 H4          4.3070    2.0270   -0.2510 ha        1 0UL      0.134250
     21 H5          1.9450    1.9960   -0.2640 ha        1 0UL      0.134250
     22 H6         -1.8990   -0.1100   -2.5780 ha        1 0UL      0.193000
     23 H7         -5.6970    0.2630    2.0990 hn        1 0UL      0.211500
     24 H8         -6.1730   -0.0010    0.6120 hn        1 0UL      0.211500
     25 H9         -0.2700    0.0240    1.7930 h4        1 0UL      0.190000
@<TRIPOS>BOND
     1    1    6 1   
     2    1   17 1   
     3    2    3 1   
     4    2   18 1   
     5    3   19 1   
     6    4    5 1   
     7    4   20 1   
     8    5   21 1   
     9    6    7 1   
    10    7    8 1   
    11    7   16 1   
    12    9   10 1   
    13    9   22 1   
    14   11   12 1   
    15   12   14 1   
    16   13   23 1   
    17   13   24 1   
    18   14   15 1   
    19   15   16 1   
    20   16   25 1   
@<TRIPOS>SUBSTRUCTURE
     1 0UL         1 TEMP              0 ****  ****    0 ROOT
