@<TRIPOS>MOLECULE
0UL
   25    27     1     0     0
SMALL
bcc


@<TRIPOS>ATOM
      1 CAE        -0.0350   -0.4080    0.0650 ca        1 0UL     -0.106000
      2 CAC         1.3560   -0.5060    0.0750 ca        1 0UL     -0.133000
      3 CAB         2.0790   -0.1370    1.2090 ca        1 0UL     -0.119000
      4 CAD         1.4080    0.3370    2.3370 ca        1 0UL     -0.133000
      5 CAF         0.0190    0.4380    2.3340 ca        1 0UL     -0.106000
      6 CAM        -0.7120    0.0590    1.1990 ca        1 0UL     -0.137500
      7 CAN        -2.1790    0.1540    1.2100 cc        1 0UL      0.389800
      8 NAI        -2.8270    0.5980    0.0660 nc        1 0UL     -0.619000
      9 CAG        -4.1380    0.6920    0.0790 cd        1 0UL      0.430200
     10 CAO        -4.9370    0.3460    1.2330 cd        1 0UL     -0.123600
     11 NAJ        -6.2710    0.3550    1.4830 nc        1 0UL     -0.397300
     12 CAL        -6.3540   -0.1060    2.8310 cc        1 0UL      0.701200
     13 NAA        -7.5500   -0.1500    3.5450 nh        1 0UL     -0.850800
     14 NAK        -5.1010   -0.4090    3.3890 nd        1 0UL     -0.620100
     15 NAP        -4.2350   -0.1230    2.4050 na        1 0UL      0.190000
     16 CAH        -2.8580   -0.2130    2.3770 cd        1 0UL     -0.131600
     17 H1         -0.5980   -0.6960   -0.8360 ha        1 0UL      0.140500
     18 H2          1.8830   -0.8750   -0.8180 ha        1 0UL      0.135500
     19 H3          3.1760   -0.2150    1.2130 ha        1 0UL      0.134000
     20 H4          1.9760    0.6360    3.2300 ha        1 0UL      0.135500
     21 H5         -0.5030    0.8280    3.2210 ha        1 0UL      0.140500
     22 H6         -4.6500    1.0520   -0.8320 h4        1 0UL      0.056100
     23 H7         -8.3660   -0.1920    2.9750 hn        1 0UL      0.416300
     24 H8         -7.5500   -0.7830    4.3140 hn        1 0UL      0.416300
     25 H9         -2.3460   -0.5800    3.2830 h4        1 0UL      0.190000
@<TRIPOS>BOND
     1    1    2 ar  
     2    1    6 ar  
     3    1   17 1   
     4    2    3 ar  
     5    2   18 1   
     6    3    4 ar  
     7    3   19 1   
     8    4    5 ar  
     9    4   20 1   
    10    5    6 ar  
    11    5   21 1   
    12    6    7 1   
    13    7    8 1   
    14    7   16 2   
    15    8    9 2   
    16    9   10 1   
    17    9   22 1   
    18   10   11 2   
    19   10   15 1   
    20   11   12 1   
    21   12   13 1   
    22   12   14 2   
    23   13   23 1   
    24   13   24 1   
    25   14   15 1   
    26   15   16 1   
    27   16   25 1   
@<TRIPOS>SUBSTRUCTURE
     1 0UL         1 TEMP              0 ****  ****    0 ROOT
