@<TRIPOS>MOLECULE
0UL
   25    27     1     0     0
SMALL
bcc


@<TRIPOS>ATOM
      1 CAE        -2.9670    0.9940   -0.4170 ca        1 0UL     -0.105500
      2 CAC        -4.3270    0.6980   -0.4910 ca        1 0UL     -0.133000
      3 CAB        -4.7980   -0.5520   -0.0910 ca        1 0UL     -0.119000
      4 CAD        -3.9050   -1.5100    0.3890 ca        1 0UL     -0.133000
      5 CAF        -2.5440   -1.2220    0.4670 ca        1 0UL     -0.105500
      6 CAM        -2.0660    0.0320    0.0580 ca        1 0UL     -0.137500
      7 CAN        -0.6270    0.3230    0.1270 cc        1 0UL      0.389800
      8 NAI        -0.2210    1.5830    0.5400 nc        1 0UL     -0.619000
      9 CAG         1.0670    1.8420    0.6090 cd        1 0UL      0.430200
     10 CAO         2.0800    0.8670    0.2700 cd        1 0UL     -0.123600
     11 NAJ         3.4370    0.8950    0.2630 nc        1 0UL     -0.397300
     12 CAL         3.7870   -0.4110   -0.1940 cc        1 0UL      0.701200
     13 NAA         5.1010   -0.7930   -0.4610 nh        1 0UL     -0.850800
     14 NAK         2.6710   -1.2270   -0.4430 nd        1 0UL     -0.620100
     15 NAP         1.6270   -0.4340   -0.1610 na        1 0UL      0.190000
     16 CAH         0.2720   -0.6890   -0.2320 cd        1 0UL     -0.131600
     17 H1         -2.6040    1.9850   -0.7300 ha        1 0UL      0.140500
     18 H2         -5.0310    1.4570   -0.8650 ha        1 0UL      0.135500
     19 H3         -5.8720   -0.7820   -0.1510 ha        1 0UL      0.134000
     20 H4         -4.2740   -2.4940    0.7120 ha        1 0UL      0.135500
     21 H5         -1.8470   -1.9760    0.8610 ha        1 0UL      0.140500
     22 H6          1.3860    2.8470    0.9390 h4        1 0UL      0.056100
     23 H7          5.7900   -0.2530    0.0150 hn        1 0UL      0.416300
     24 H8          5.2580   -1.7770   -0.4400 hn        1 0UL      0.416300
     25 H9         -0.0490   -1.6860   -0.5790 h4        1 0UL      0.190000
@<TRIPOS>BOND
     1    1    2 ar  
     2    1    6 ar  
     3    1   17 1   
     4    2    3 ar  
     5    2   18 1   
     6    3    4 ar  
     7    3   19 1   
     8    4    5 ar  
     9    4   20 1   
    10    5    6 ar  
    11    5   21 1   
    12    6    7 1   
    13    7    8 1   
    14    7   16 2   
    15    8    9 2   
    16    9   10 1   
    17    9   22 1   
    18   10   11 2   
    19   10   15 1   
    20   11   12 1   
    21   12   13 1   
    22   12   14 2   
    23   13   23 1   
    24   13   24 1   
    25   14   15 1   
    26   15   16 1   
    27   16   25 1   
@<TRIPOS>SUBSTRUCTURE
     1 0UL         1 TEMP              0 ****  ****    0 ROOT
