@<TRIPOS>MOLECULE
0UL
   25    27     1     0     0
SMALL
bcc


@<TRIPOS>ATOM
      1 CAE        -0.0270   -0.4470    0.0860 ca        1 0UL     -0.106000
      2 CAC         1.3650   -0.5230    0.1010 ca        1 0UL     -0.133000
      3 CAB         2.0810   -0.0900    1.2170 ca        1 0UL     -0.119000
      4 CAD         1.4020    0.4260    2.3210 ca        1 0UL     -0.133000
      5 CAF         0.0110    0.5050    2.3130 ca        1 0UL     -0.106000
      6 CAM        -0.7120    0.0630    1.1970 ca        1 0UL     -0.137500
      7 CAN        -2.1810    0.1350    1.2030 cc        1 0UL      0.389800
      8 NAI        -2.8340    0.5160    0.0400 nc        1 0UL     -0.619000
      9 CAG        -4.1470    0.5900    0.0480 cd        1 0UL      0.430200
     10 CAO        -4.9410    0.2860    1.2170 cd        1 0UL     -0.123600
     11 NAJ        -6.2760    0.2870    1.4660 nc        1 0UL     -0.397300
     12 CAL        -6.3530   -0.1120    2.8340 cc        1 0UL      0.701200
     13 NAA        -7.5490   -0.1410    3.5490 nv        1 0UL     -0.850800
     14 NAK        -5.0960   -0.3700    3.4050 nd        1 0UL     -0.620100
     15 NAP        -4.2340   -0.1160    2.4100 na        1 0UL      0.190000
     16 CAH        -2.8550   -0.1870    2.3860 cd        1 0UL     -0.131600
     17 H1         -0.5850   -0.7850   -0.8000 ha        1 0UL      0.140500
     18 H2          1.8980   -0.9250   -0.7730 ha        1 0UL      0.135500
     19 H3          3.1790   -0.1510    1.2250 ha        1 0UL      0.134000
     20 H4          1.9640    0.7750    3.2000 ha        1 0UL      0.135500
     21 H5         -0.5170    0.9280    3.1810 ha        1 0UL      0.140500
     22 H6         -4.6630    0.9000   -0.8790 h4        1 0UL      0.056100
     23 H7         -7.5400   -0.7380    4.3470 hn        1 0UL      0.416300
     24 H8         -8.3640   -0.2220    2.9810 hn        1 0UL      0.416300
     25 H9         -2.3390   -0.5030    3.3090 h4        1 0UL      0.190000
@<TRIPOS>BOND
     1    1    2 ar  
     2    1    6 ar  
     3    1   17 1   
     4    2    3 ar  
     5    2   18 1   
     6    3    4 ar  
     7    3   19 1   
     8    4    5 ar  
     9    4   20 1   
    10    5    6 ar  
    11    5   21 1   
    12    6    7 1   
    13    7    8 1   
    14    7   16 2   
    15    8    9 2   
    16    9   10 1   
    17    9   22 1   
    18   10   11 2   
    19   10   15 1   
    20   11   12 1   
    21   12   13 1   
    22   12   14 2   
    23   13   23 1   
    24   13   24 1   
    25   14   15 1   
    26   15   16 1   
    27   16   25 1   
@<TRIPOS>SUBSTRUCTURE
     1 0UL         1 TEMP              0 ****  ****    0 ROOT
