@<TRIPOS>MOLECULE
0UM
   58    57     1     0     0
SMALL
bcc


@<TRIPOS>ATOM
      1 C4         -0.2840    0.2220    0.0000 c2        1 0UM      0.078000
      2 C5          0.9850   -0.4620   -0.1740 c2        1 0UM     -0.263000
      3 C6          1.8270   -0.6160    0.9900 c2        1 0UM      0.266000
      4 C8          0.0230   -0.4280   -2.1350 c2        1 0UM     -0.043000
      5 N1          1.3990   -0.1120    2.1940 n2        1 0UM     -0.317000
      6 N3         -0.6490    0.7050    1.2360 nh        1 0UM     -0.200000
      7 C          -2.4130   -3.9960  -11.4340 c1        1 0UM      0.448000
      8 CA         -0.4660   -2.0410   -9.0470 c3        1 0UM     -0.114000
      9 N          -1.8100   -2.5290   -9.2830 n3        1 0UM     -0.351000
     10 CB         -0.2450   -1.3830   -7.6680 c3        1 0UM      0.009000
     11 CAM        -1.3130   -0.4790   -7.2960 c2        1 0UM     -0.831000
     12 CAY        -2.1510   -0.7100   -6.1360 c3        1 0UM      0.137000
     13 NAR        -3.5450   -1.1720   -6.4150 n3        1 0UM     -0.354000
     14 CAK        -4.2520   -0.3480   -7.3630 c3        1 0UM     -0.126000
     15 CAJ        -6.8270   -1.9430   -5.6710 c3        1 0UM     -0.310000
     16 CAA        -7.7760   -1.7250   -6.7280 c1        1 0UM     -0.081000
     17 CBB        -2.7680    0.2550   -3.8640 c3        1 0UM     -0.012000
     18 OAS        -2.1840    1.2140   -2.9520 os        1 0UM     -0.273000
     19 CAZ        -4.2930    0.4010   -3.7950 c3        1 0UM     -0.036000
     20 OAF        -4.9050   -0.8120   -3.3980 oh        1 0UM     -0.361000
     21 CBA        -2.5190    1.9570   -0.6700 c1        1 0UM     -0.021000
     22 OAG        -3.2140    2.8880   -1.2760 oh        1 0UM     -0.179000
     23 CBC        -2.1790    0.7920   -1.5990 c3        1 0UM      0.083000
     24 N9         -0.8980    0.2070   -1.2550 na        1 0UM     -0.203000
     25 N7          1.1350   -0.8450   -1.5170 n2        1 0UM     -0.118000
     26 C2          0.2220    0.5190    2.3000 c1        1 0UM     -0.040000
     27 N6          3.0260   -1.2620    0.8650 n3        1 0UM     -0.360000
     28 H1         -0.2060   -0.5260   -3.2080 h5        1 0UM      0.234000
     29 H3          0.2480   -2.9020   -9.1790 h1        1 0UM      0.049500
     30 H5         -2.0380   -3.2040   -8.5730 hn        1 0UM      0.133000
     31 H7          0.7530   -0.8580   -7.7370 hc        1 0UM      0.006000
     32 H8         -0.2400   -1.2830   -9.8480 h1        1 0UM      0.049500
     33 H9         -1.4130    0.4580   -7.8380 ha        1 0UM      0.083000
     34 H10        -0.1190   -2.2070   -6.9110 hc        1 0UM      0.006000
     35 H11        -1.7240   -1.5530   -5.5020 h1        1 0UM      0.031000
     36 H12        -3.4610   -2.0910   -6.8190 hn        1 0UM      0.121000
     37 H14        -3.6690   -0.1480   -8.3050 h1        1 0UM      0.049333
     38 H15        -4.4840    0.6430   -6.8910 h1        1 0UM      0.049333
     39 H16        -6.0210   -2.6960   -5.8670 hc        1 0UM      0.119667
     40 H17        -5.2240   -0.8420   -7.6390 h1        1 0UM      0.049333
     41 H18        -7.4370   -1.9820   -7.7450 ha        1 0UM      0.032000
     42 H19        -7.3370   -2.1940   -4.7060 hc        1 0UM      0.119667
     43 H20        -6.3130   -0.9420   -5.5210 hc        1 0UM      0.119667
     44 H23        -2.4790   -0.7860   -3.5420 h1        1 0UM      0.090000
     45 H24        -4.7050    0.7380   -4.7820 h1        1 0UM      0.089500
     46 H25        -4.7130   -1.4640   -4.0870 ho        1 0UM      0.224000
     47 H26        -4.5810    1.1420   -3.0000 h1        1 0UM      0.089500
     48 H27        -3.4320    3.5710   -0.6130 ho        1 0UM      0.253000
     49 H28        -2.9870    0.0070   -1.4160 h2        1 0UM      0.133000
     50 H29        -1.4940    1.2230    1.3440 hn        1 0UM      0.266000
     51 H30         3.6260   -1.3640    1.6430 hn        1 0UM      0.239000
     52 H31         3.3090   -1.5920   -0.0230 hn        1 0UM      0.239000
     53 O          -2.1110   -3.1660  -12.2310 o         1 0UM     -0.230500
     54 OXT        -2.7480   -4.8920  -10.7230 o         1 0UM     -0.230500
     55 CAN        -2.1750    0.5490   -5.2340 c3        1 0UM     -0.156000
     56 H4         -2.4420   -1.7530   -9.1490 hn        1 0UM      0.133000
     57 H21        -2.7270    1.3850   -5.7280 hc        1 0UM      0.090000
     58 H22        -1.1110    0.8760   -5.1050 hc        1 0UM      0.090000
@<TRIPOS>BOND
     1    1    2 1   
     2    1    6 1   
     3    1   24 1   
     4    2    3 1   
     5    2   25 1   
     6    3    5 1   
     7    3   27 1   
     8    4   24 1   
     9    4   25 1   
    10    4   28 1   
    11    5   26 1   
    12    6   26 1   
    13    6   50 1   
    14    7   53 1   
    15    7   54 1   
    16    8    9 1   
    17    8   10 1   
    18    8   29 1   
    19    8   32 1   
    20    9   30 1   
    21    9   56 1   
    22   10   11 1   
    23   10   31 1   
    24   10   34 1   
    25   11   12 1   
    26   11   33 1   
    27   12   13 1   
    28   12   35 1   
    29   12   55 1   
    30   13   14 1   
    31   13   36 1   
    32   14   37 1   
    33   14   38 1   
    34   14   40 1   
    35   15   16 1   
    36   15   39 1   
    37   15   42 1   
    38   15   43 1   
    39   16   41 1   
    40   17   18 1   
    41   17   19 1   
    42   17   44 1   
    43   17   55 1   
    44   18   23 1   
    45   19   20 1   
    46   19   45 1   
    47   19   47 1   
    48   20   46 1   
    49   21   22 1   
    50   21   23 1   
    51   22   48 1   
    52   23   24 1   
    53   23   49 1   
    54   27   51 1   
    55   27   52 1   
    56   55   57 1   
    57   55   58 1   
@<TRIPOS>SUBSTRUCTURE
     1 0UM         1 TEMP              0 ****  ****    0 ROOT
