@<TRIPOS>MOLECULE
0UM
   58    60     1     0     0
SMALL
bcc


@<TRIPOS>ATOM
      1 C4          3.6940    0.6040    0.1860 ca        1 0UM      0.446800
      2 C5          3.3750    1.9910    0.5020 ca        1 0UM     -0.224200
      3 C6          4.4230    2.7990    1.0560 ca        1 0UM      0.755200
      4 C8          1.5530    1.1150   -0.3140 cc        1 0UM      0.435700
      5 N1          5.6650    2.2360    1.2410 nb        1 0UM     -0.804000
      6 N3          4.9280    0.0470    0.3880 nb        1 0UM     -0.740000
      7 C          -4.5300    3.3640   -0.8540 c         1 0UM      0.889600
      8 CA         -3.9030    2.3650    0.1760 c3        1 0UM      0.013500
      9 N          -4.7900    2.0010    1.2750 n3        1 0UM     -0.893800
     10 CB         -3.3700    1.1550   -0.5940 c3        1 0UM     -0.061400
     11 CAM        -2.4460    0.3140    0.2590 c3        1 0UM     -0.070400
     12 CAY        -1.8280   -0.8630   -0.5120 c3        1 0UM      0.174500
     13 NAR        -2.7950   -1.8200   -1.0230 n3        1 0UM     -0.804200
     14 CAK        -3.7960   -2.2710   -0.0760 c3        1 0UM      0.154800
     15 CAJ        -4.6020   -3.4680   -0.5790 c3        1 0UM     -0.084400
     16 CAA        -5.6650   -3.8390    0.4230 c3        1 0UM     -0.091100
     17 CBB         0.2690   -2.3040   -0.4310 c3        1 0UM      0.103100
     18 OAS         1.0160   -1.4690   -1.3370 os        1 0UM     -0.403600
     19 CAZ         1.2850   -3.0360    0.4710 c3        1 0UM      0.082100
     20 OAF         1.3050   -4.4280    0.2380 oh        1 0UM     -0.593800
     21 CBA         2.6580   -2.4050    0.1470 c3        1 0UM      0.075100
     22 OAG         3.4750   -3.3370   -0.5380 oh        1 0UM     -0.589800
     23 CBC         2.3530   -1.2680   -0.8780 c3        1 0UM      0.264800
     24 N9          2.5060    0.0610   -0.3260 na        1 0UM     -0.297000
     25 N7          2.0380    2.2640    0.1750 nd        1 0UM     -0.538100
     26 C2          5.8160    0.9280    0.9030 ca        1 0UM      0.674900
     27 N6          4.1700    4.0970    1.4200 nh        1 0UM     -0.957500
     28 H1          0.5270    0.9520   -0.6830 h5        1 0UM      0.106800
     29 H3         -3.0250    2.9030    0.6410 h1        1 0UM      0.039700
     30 H5         -5.5190    1.4120    0.9100 hn        1 0UM      0.329800
     31 H7         -4.2230    0.5370   -0.9740 hc        1 0UM      0.055200
     32 H8         -2.8170    1.5470   -1.4900 hc        1 0UM      0.055200
     33 H9         -1.6050    0.9630    0.6220 hc        1 0UM      0.039200
     34 H10        -2.9860   -0.0660    1.1640 hc        1 0UM      0.039200
     35 H11        -1.3210   -0.4400   -1.4350 h1        1 0UM      0.067700
     36 H12        -2.3130   -2.6060   -1.4190 hn        1 0UM      0.340800
     37 H14        -3.3470   -2.5450    0.9250 h1        1 0UM      0.038700
     38 H15        -4.4980   -1.4050    0.1000 h1        1 0UM      0.038700
     39 H16        -5.0810   -3.2160   -1.5610 hc        1 0UM      0.039200
     40 H17        -3.9240   -4.3450   -0.7520 hc        1 0UM      0.039200
     41 H18        -5.2060   -4.1150    1.4040 hc        1 0UM      0.031367
     42 H19        -6.3620   -2.9830    0.5920 hc        1 0UM      0.031367
     43 H20        -6.2570   -4.7110    0.0540 hc        1 0UM      0.031367
     44 H23        -0.2600   -3.0370   -1.1020 h1        1 0UM      0.080700
     45 H24         1.0250   -2.9320    1.5580 h1        1 0UM      0.098700
     46 H25         1.5440   -4.5630   -0.6900 ho        1 0UM      0.415000
     47 H26         3.1740   -2.0350    1.0700 h1        1 0UM      0.083700
     48 H27         3.7340   -4.0030    0.1140 ho        1 0UM      0.417000
     49 H28         3.0120   -1.3630   -1.7930 h2        1 0UM      0.114700
     50 H29         6.8360    0.5230    1.0760 h5        1 0UM      0.042100
     51 H30         3.2970    4.4930    1.1700 hn        1 0UM      0.446300
     52 H31         4.9100    4.6900    1.7010 hn        1 0UM      0.446300
     53 O          -3.8040    3.7410   -1.8140 o         1 0UM     -0.843300
     54 OXT        -5.7160    3.7550   -0.6550 o         1 0UM     -0.843300
     55 CAN        -0.7190   -1.4760    0.3710 c3        1 0UM     -0.142400
     56 H4         -5.2430    2.8460    1.5820 hn        1 0UM      0.329800
     57 H21        -0.1650   -0.6470    0.8840 hc        1 0UM      0.057200
     58 H22        -1.1730   -2.1250    1.1640 hc        1 0UM      0.057200
@<TRIPOS>BOND
     1    1    2 ar  
     2    1    6 ar  
     3    1   24 1   
     4    2    3 ar  
     5    2   25 1   
     6    3    5 ar  
     7    3   27 1   
     8    4   24 1   
     9    4   25 2   
    10    4   28 1   
    11    5   26 ar  
    12    6   26 ar  
    13    7    8 1   
    14    7   53 1   
    15    7   54 1   
    16    8    9 1   
    17    8   10 1   
    18    8   29 1   
    19    9   30 1   
    20    9   56 1   
    21   10   11 1   
    22   10   31 1   
    23   10   32 1   
    24   11   12 1   
    25   11   33 1   
    26   11   34 1   
    27   12   13 1   
    28   12   35 1   
    29   12   55 1   
    30   13   14 1   
    31   13   36 1   
    32   14   15 1   
    33   14   37 1   
    34   14   38 1   
    35   15   16 1   
    36   15   39 1   
    37   15   40 1   
    38   16   41 1   
    39   16   42 1   
    40   16   43 1   
    41   17   18 1   
    42   17   19 1   
    43   17   44 1   
    44   17   55 1   
    45   18   23 1   
    46   19   20 1   
    47   19   21 1   
    48   19   45 1   
    49   20   46 1   
    50   21   22 1   
    51   21   23 1   
    52   21   47 1   
    53   22   48 1   
    54   23   24 1   
    55   23   49 1   
    56   26   50 1   
    57   27   51 1   
    58   27   52 1   
    59   55   57 1   
    60   55   58 1   
@<TRIPOS>SUBSTRUCTURE
     1 0UM         1 TEMP              0 ****  ****    0 ROOT
