@<TRIPOS>MOLECULE
0UM
   58    53     1     0     0
SMALL
bcc


@<TRIPOS>ATOM
      1 C4          1.4630    4.3630    1.0290 c1        1 0UM      0.054000
      2 C5          2.0770    5.2760    0.2490 c1        1 0UM     -0.230000
      3 C6          2.8270    6.2910    0.8290 c1        1 0UM      0.227000
      4 C8          0.9950    3.8870   -1.0620 c1        1 0UM     -0.017000
      5 N1          2.9400    6.3610    2.1630 n2        1 0UM     -0.275000
      6 N3          1.5800    4.4370    2.3830 n1        1 0UM     -0.205000
      7 OXT         3.7440   -3.8320   -3.4720 o         1 0UM     -0.577500
      8 C           3.0640   -4.4850   -2.6340 c1        1 0UM      0.307000
      9 CA          1.5630   -4.3350   -2.6040 c2        1 0UM     -0.131000
     10 N           0.9640   -5.6090   -2.5030 n3        1 0UM     -0.324000
     11 CB          1.1560   -3.4790   -1.3920 c3        1 0UM     -0.147000
     12 CAM        -0.1410   -2.6940   -1.7250 c3        1 0UM     -0.155000
     13 CAY        -0.4880   -1.7670   -0.5650 c3        1 0UM     -0.020000
     14 NAR        -1.7620   -2.1080   -0.0530 n3        1 0UM     -0.309000
     15 CAK        -1.6240   -3.1670    0.9270 c3        1 0UM     -0.076000
     16 CAJ        -3.0160   -3.6890    1.3160 c3        1 0UM     -0.168000
     17 CAA        -3.0830   -3.8830    2.8250 c3        1 0UM     -0.209000
     18 CAN        -0.5060   -0.3150   -1.0570 c3        1 0UM     -0.182000
     19 CBB        -0.6250    0.6170    0.1260 c3        1 0UM      0.019000
     20 OAS         0.5030    1.2130    0.3400 os        1 0UM     -0.267000
     21 CAZ        -1.7260    1.8060   -0.1970 c3        1 0UM     -0.038000
     22 OAF        -3.0870    1.3230    0.0840 oh        1 0UM     -0.327000
     23 CBA        -1.4450    2.7470    0.5590 c3        1 0UM     -0.035000
     24 OAG        -2.2190    2.6370    1.8330 oh        1 0UM     -0.309000
     25 CBC         0.1250    2.5910    0.8480 c3        1 0UM      0.139000
     26 N9          0.7910    3.5010    0.2160 n2        1 0UM     -0.207000
     27 N7          1.7880    4.9830   -1.0470 n1        1 0UM     -0.119000
     28 C2          2.3180    5.4360    2.9520 c1        1 0UM      0.010000
     29 N6          3.6840    7.3150    0.3440 n2        1 0UM     -0.351000
     30 O           3.6230   -5.3410   -1.9040 o         1 0UM     -0.577500
     31 H1          0.5930    3.4840   -1.8510 DU        1 0UM      0.233000
     32 H3          1.2630   -3.8980   -3.4260 h4        1 0UM      0.081000
     33 H4          0.3960   -5.7360   -3.2090 hn        1 0UM      0.126000
     34 H5          1.6210   -6.2600   -2.5140 hn        1 0UM      0.126000
     35 H7          0.9970   -4.0590   -0.6220 hc        1 0UM      0.086000
     36 H8          1.8750   -2.8480   -1.1820 hc        1 0UM      0.086000
     37 H9         -0.8740   -3.3240   -1.8680 hc        1 0UM      0.088500
     38 H10        -0.0040   -2.1630   -2.5370 hc        1 0UM      0.088500
     39 H11         0.1820   -1.8640    0.1410 h1        1 0UM      0.058000
     40 H12        -2.1370   -1.3760    0.3400 hn        1 0UM      0.148000
     41 H14        -1.0950   -3.8990    0.5450 h1        1 0UM      0.078500
     42 H15        -1.1720   -2.8190    1.7200 h1        1 0UM      0.078500
     43 H16        -3.6960   -3.0420    1.0390 hc        1 0UM      0.077500
     44 H17        -3.1790   -4.5450    0.8700 hc        1 0UM      0.077500
     45 H18        -3.0590   -3.0050    3.2700 hc        1 0UM      0.071000
     46 H19        -2.3220   -4.4160    3.1190 hc        1 0UM      0.071000
     47 H20        -3.9160   -4.3450    3.0590 hc        1 0UM      0.071000
     48 H21        -1.2670   -0.1830   -1.6520 hc        1 0UM      0.112500
     49 H22         0.3250   -0.1230   -1.5410 hc        1 0UM      0.112500
     50 H23        -0.8960    0.1160    0.9210 h1        1 0UM      0.129000
     51 H24        -1.6530    2.0890   -1.1300 h1        1 0UM      0.126000
     52 H25        -3.6670    1.7430   -0.4490 ho        1 0UM      0.214000
     53 H26        -1.6280    3.6040    0.1210 h1        1 0UM      0.152000
     54 H27        -2.7650    3.3410    1.9120 ho        1 0UM      0.213000
     55 H28         0.2980    2.6540    1.8100 h2        1 0UM      0.144000
     56 H29         2.4010    5.4880    3.9270 ha        1 0UM      0.180000
     57 H30         3.9520    7.9940    0.9040 hn        1 0UM      0.236500
     58 H31         3.9450    7.3130   -0.5250 hn        1 0UM      0.236500
@<TRIPOS>BOND
     1    1    6 1   
     2    2    3 1   
     3    3    5 1   
     4    4   26 1   
     5    4   27 1   
     6    5   28 1   
     7    7    8 1   
     8    8   30 1   
     9    9   10 1   
    10    9   11 1   
    11    9   32 1   
    12   10   33 1   
    13   10   34 1   
    14   11   12 1   
    15   11   35 1   
    16   11   36 1   
    17   12   13 1   
    18   12   37 1   
    19   12   38 1   
    20   13   14 1   
    21   13   18 1   
    22   13   39 1   
    23   14   15 1   
    24   14   40 1   
    25   15   16 1   
    26   15   41 1   
    27   15   42 1   
    28   16   17 1   
    29   16   43 1   
    30   16   44 1   
    31   17   45 1   
    32   17   46 1   
    33   17   47 1   
    34   18   19 1   
    35   18   48 1   
    36   18   49 1   
    37   19   20 1   
    38   19   21 1   
    39   19   50 1   
    40   20   25 1   
    41   21   22 1   
    42   21   23 1   
    43   21   51 1   
    44   22   52 1   
    45   23   24 1   
    46   23   25 1   
    47   23   53 1   
    48   24   54 1   
    49   25   26 1   
    50   25   55 1   
    51   28   56 1   
    52   29   57 1   
    53   29   58 1   
@<TRIPOS>SUBSTRUCTURE
     1 0UM         1 TEMP              0 ****  ****    0 ROOT
