@<TRIPOS>MOLECULE
0UM
   60    60     1     0     0
SMALL
bcc


@<TRIPOS>ATOM
      1 C4         -1.4150   -0.5800   -3.2020 c2        1 0UM      0.101000
      2 C5         -0.4760   -0.6990   -2.0990 c2        1 0UM     -0.229000
      3 C6          0.4600   -1.7910   -2.1090 c2        1 0UM      0.295000
      4 C8         -1.7140    1.0520   -1.6910 c2        1 0UM     -0.007000
      5 N1          0.4300   -2.6730   -3.1950 n2        1 0UM     -0.238000
      6 N3         -1.3940   -1.4700   -4.2530 na        1 0UM     -0.173000
      7 C          -1.8330   -3.6310   -7.4640 c2        1 0UM      0.329000
      8 CA         -2.4750   -4.2560   -8.6950 c3        1 0UM     -0.048000
      9 N          -3.8190   -4.6880   -8.3790 n8        1 0UM     -0.339000
     10 CB         -2.3300   -3.2550   -9.8430 c3        1 0UM     -0.261000
     11 CAM         0.1460    3.7930   -5.1770 cx        1 0UM     -0.194000
     12 CAY         0.3160    2.3060   -5.1980 cx        1 0UM     -0.194000
     13 NAR        -2.9350   -4.0610   -3.9310 n8        1 0UM     -0.376000
     14 CAK        -4.0140   -3.9820   -2.9710 c3        1 0UM     -0.113000
     15 CAJ        -4.7940   -2.6690   -3.0460 c3        1 0UM     -0.251000
     16 CAA        -5.7630   -2.4190   -2.0030 c1        1 0UM     -0.049000
     17 CBB        -2.2390    2.7990   -5.1540 c3        1 0UM      0.019000
     18 OAS        -2.8500    1.5150   -5.0000 os        1 0UM     -0.263000
     19 CAZ        -3.1390    3.9520   -4.6990 c3        1 0UM     -0.057000
     20 OAF        -4.5110    3.6490   -4.8580 oh        1 0UM     -0.338000
     21 CBA        -4.0530    2.1490   -2.9330 c1        1 0UM      0.031000
     22 OAG        -5.3260    2.0650   -3.2190 oh        1 0UM     -0.185000
     23 CBC        -3.2890    1.0610   -3.7320 c3        1 0UM      0.064000
     24 N9         -2.2090    0.5280   -2.9200 na        1 0UM     -0.177000
     25 N7         -0.6990    0.3390   -1.1820 n2        1 0UM     -0.095000
     26 C2         -0.4610   -2.4880   -4.1630 c2        1 0UM      0.168000
     27 N6          1.3450   -1.9610   -1.1050 nv        1 0UM     -0.286000
     28 H1         -2.1780    1.9500   -1.2480 h5        1 0UM      0.249000
     29 H3         -0.1730   -4.5790   -7.7680 ho        1 0UM      0.253000
     30 H7         -2.7380   -3.6940  -10.7850 hc        1 0UM      0.100667
     31 H8         -1.2530   -3.0110  -10.0030 hc        1 0UM      0.100667
     32 H9          0.8050    4.4050   -4.5350 hc        1 0UM      0.118750
     33 H10        -2.8820   -2.3100   -9.6200 hc        1 0UM      0.100667
     34 H11         1.1050    1.8480   -4.5750 hc        1 0UM      0.118750
     35 H12        -2.5100   -4.9670   -3.8900 hn        1 0UM      0.153500
     36 H14        -0.1170    4.3180   -6.1130 hc        1 0UM      0.118750
     37 H15        -4.7510   -4.8320   -3.0770 h1        1 0UM      0.078000
     38 H16        -3.2760   -3.9070   -4.8630 hn        1 0UM      0.153500
     39 H17        -3.5560   -4.0730   -1.9440 h1        1 0UM      0.078000
     40 H18        -5.9950   -3.2440   -1.3140 ha        1 0UM      0.055000
     41 H19        -4.0820   -1.7940   -3.0570 hc        1 0UM      0.135500
     42 H20        -5.3780   -2.6120   -4.0140 hc        1 0UM      0.135500
     43 H23        -2.1370    2.8310   -6.2850 h1        1 0UM      0.126000
     44 H24        -2.8710    4.8730   -5.2820 h1        1 0UM      0.116000
     45 H25        -4.6560    3.3960   -5.7770 ho        1 0UM      0.217000
     46 H26        -3.0210    4.1620   -3.5990 h1        1 0UM      0.116000
     47 H27        -5.7920    2.8130   -2.7910 ho        1 0UM      0.292000
     48 H28        -3.9590    0.1820   -4.0170 h2        1 0UM      0.136000
     49 H29        -2.0660   -1.4470   -5.0000 hn        1 0UM      0.312000
     50 H30         1.9910   -2.7180   -1.1070 hn        1 0UM      0.272000
     51 H31         1.3490   -1.3200   -0.3430 hn        1 0UM      0.272000
     52 O          -0.5460   -3.9450   -7.1380 oh        1 0UM     -0.315000
     53 OXT        -2.3350   -2.8240   -6.6740 o         1 0UM     -0.372000
     54 H4         -1.8890   -5.1890   -8.9630 h1        1 0UM      0.119000
     55 H2         -4.4060   -3.9080   -8.1560 hn        1 0UM      0.170500
     56 HAR2       -0.4650   -3.2160   -5.0170 h5        1 0UM      0.250000
     57 CAN        -0.8850    2.9110   -4.5170 cx        1 0UM     -0.215000
     58 H5         -4.2100   -5.1990   -9.1460 hn        1 0UM      0.170500
     59 H21         0.1730    1.7640   -6.1500 hc        1 0UM      0.118750
     60 H22        -0.9240    2.9010   -3.4090 hc        1 0UM      0.128000
@<TRIPOS>BOND
     1    1    2 1   
     2    1    6 1   
     3    1   24 1   
     4    2    3 1   
     5    2   25 1   
     6    3    5 1   
     7    3   27 1   
     8    4   24 1   
     9    4   25 1   
    10    4   28 1   
    11    5   26 1   
    12    6   26 1   
    13    6   49 1   
    14    7    8 1   
    15    7   52 1   
    16    7   53 1   
    17    8    9 1   
    18    8   10 1   
    19    8   54 1   
    20    9   55 1   
    21    9   58 1   
    22   10   30 1   
    23   10   31 1   
    24   10   33 1   
    25   11   12 1   
    26   11   32 1   
    27   11   36 1   
    28   11   57 1   
    29   12   34 1   
    30   12   57 1   
    31   12   59 1   
    32   13   14 1   
    33   13   35 1   
    34   13   38 1   
    35   14   15 1   
    36   14   37 1   
    37   14   39 1   
    38   15   16 1   
    39   15   41 1   
    40   15   42 1   
    41   16   40 1   
    42   17   18 1   
    43   17   19 1   
    44   17   43 1   
    45   17   57 1   
    46   18   23 1   
    47   19   20 1   
    48   19   44 1   
    49   19   46 1   
    50   20   45 1   
    51   21   22 1   
    52   21   23 1   
    53   22   47 1   
    54   23   24 1   
    55   23   48 1   
    56   26   56 1   
    57   27   50 1   
    58   27   51 1   
    59   29   52 1   
    60   57   60 1   
@<TRIPOS>SUBSTRUCTURE
     1 0UM         1 TEMP              0 ****  ****    0 ROOT
