@<TRIPOS>MOLECULE
0UM
   60    57     1     0     0
SMALL
bcc


@<TRIPOS>ATOM
      1 C4         -0.3980   -0.3220   -2.7350 c2        1 0UM      0.108000
      2 C5          0.4710   -0.5270   -1.5860 c2        1 0UM     -0.235000
      3 C6          0.9640   -1.8530   -1.3210 c2        1 0UM      0.294000
      4 C8         -0.0520    1.5890   -1.6180 c2        1 0UM     -0.033000
      5 N1          0.5670   -2.8810   -2.1830 n2        1 0UM     -0.235000
      6 N3         -0.7520   -1.3720   -3.5540 na        1 0UM     -0.164000
      7 C          -2.2660   -6.3150   -7.6780 c1        1 0UM      0.444000
      8 CA         -0.4860   -1.7980   -7.1350 c2        1 0UM     -0.094000
      9 N          -0.6790   -2.9420   -6.3490 n3        1 0UM     -0.346000
     10 CB          0.6600   -1.4230   -7.7240 c2        1 0UM     -0.290000
     11 CAM        -4.8760    4.4600   -3.2670 c2        1 0UM     -0.183000
     12 CAY        -4.2050    3.3990   -3.7100 c2        1 0UM     -0.206000
     13 NAR        -4.1790   -4.2960   -7.9020 n3        1 0UM     -0.366000
     14 CAK        -4.1750   -3.0660   -7.1620 c3        1 0UM     -0.068000
     15 CAJ        -5.4500   -2.2110   -7.2210 c3        1 0UM     -0.286000
     16 CAA        -5.3900   -1.1130   -6.2850 c1        1 0UM     -0.103000
     17 CBB        -3.7410    0.9490   -3.8930 c3        1 0UM     -0.017000
     18 OAS        -2.4090    1.0220   -4.4280 os        1 0UM     -0.271000
     19 CAZ        -3.9080   -0.3980   -3.1780 c3        1 0UM     -0.030000
     20 OAF        -3.5630   -1.4650   -4.0310 oh        1 0UM     -0.396000
     21 CBA        -0.5620    2.3730   -4.9150 c1        1 0UM      0.079000
     22 OAG         0.3370    1.5360   -5.3620 oh        1 0UM     -0.216000
     23 CBC        -1.4300    1.7980   -3.7700 c3        1 0UM      0.063000
     24 N9         -0.7290    1.0300   -2.7410 na        1 0UM     -0.201000
     25 N7          0.6580    0.6910   -0.9200 n2        1 0UM     -0.080000
     26 C2         -0.2420   -2.6070   -3.2010 c2        1 0UM      0.151000
     27 N6          1.7790   -2.1020   -0.2760 nh        1 0UM     -0.282000
     28 H1         -0.1370    2.6590   -1.3790 h5        1 0UM      0.231000
     29 H3          0.7370   -0.4640   -8.2490 ha        1 0UM      0.123000
     30 H7         -4.8670    5.4200   -3.8010 ha        1 0UM      0.125000
     31 H8         -3.5580   -0.0670   -7.1440 ha        1 0UM      0.012000
     32 H9         -5.4780    4.4460   -2.3480 ha        1 0UM      0.125000
     33 H10         1.5700   -2.0340   -7.7280 ha        1 0UM      0.123000
     34 H11        -3.3410   -0.1240   -6.5000 ha        1 0UM      0.012000
     35 H12        -3.6180    3.4420   -4.6430 ha        1 0UM      0.132000
     36 H14        -3.3260   -2.4310   -7.5490 h1        1 0UM      0.097500
     37 H15        -4.8940   -4.9200   -7.5830 hn        1 0UM      0.159500
     38 H16        -4.2980   -4.1380   -8.8830 hn        1 0UM      0.159500
     39 H17        -3.9620   -3.3050   -6.0800 h1        1 0UM      0.097500
     40 H18        -6.0080   -0.2320   -6.5050 ha        1 0UM      0.066000
     41 H19        -5.6650   -1.9140   -8.2850 hc        1 0UM      0.130500
     42 H20        -6.3400   -2.8240   -6.8710 hc        1 0UM      0.130500
     43 H23        -4.3610    0.9330   -4.8440 h1        1 0UM      0.137000
     44 H24        -4.9700   -0.4970   -2.8300 h1        1 0UM      0.091500
     45 H25        -4.1860   -1.4450   -4.7960 ho        1 0UM      0.264000
     46 H26        -3.2160   -0.4770   -2.2990 h1        1 0UM      0.091500
     47 H27         0.8380    1.9690   -6.0850 ho        1 0UM      0.289000
     48 H28        -1.8650    2.7030   -3.2410 h2        1 0UM      0.160000
     49 H29        -1.4290   -1.2610   -4.2990 hn        1 0UM      0.328000
     50 H30         2.1170   -3.0200   -0.0910 hn        1 0UM      0.273500
     51 H31         2.0480   -1.3540    0.3240 hn        1 0UM      0.273500
     52 O          -1.4550   -5.6260   -7.1390 o         1 0UM     -0.223500
     53 OXT        -3.0630   -7.0180   -8.2070 o         1 0UM     -0.223500
     54 H4          0.0370   -3.6320   -6.4790 hn        1 0UM      0.179000
     55 H2         -1.5780   -3.3600   -6.5110 hn        1 0UM      0.179000
     56 HAR2       -1.3840   -1.1460   -7.1810 h4        1 0UM      0.126000
     57 CAN        -4.1940    2.0930   -3.0050 c3        1 0UM     -0.159000
     58 H5         -0.5410   -3.4670   -3.8510 h5        1 0UM      0.245000
     59 H21        -3.5480    2.1510   -2.0880 hc        1 0UM      0.105000
     60 H22        -5.2330    1.8490   -2.6450 hc        1 0UM      0.105000
@<TRIPOS>BOND
     1    1    2 1   
     2    1    6 1   
     3    1   24 1   
     4    2    3 1   
     5    2   25 1   
     6    3    5 1   
     7    3   27 1   
     8    4   24 1   
     9    4   25 1   
    10    4   28 1   
    11    5   26 1   
    12    6   26 1   
    13    6   49 1   
    14    7   52 1   
    15    7   53 1   
    16    8    9 1   
    17    8   10 1   
    18    8   56 1   
    19    9   54 1   
    20    9   55 1   
    21   10   29 1   
    22   10   33 1   
    23   11   12 1   
    24   11   30 1   
    25   11   32 1   
    26   12   35 1   
    27   12   57 1   
    28   13   14 1   
    29   13   37 1   
    30   13   38 1   
    31   14   15 1   
    32   14   36 1   
    33   14   39 1   
    34   15   16 1   
    35   15   41 1   
    36   15   42 1   
    37   16   40 1   
    38   17   18 1   
    39   17   19 1   
    40   17   43 1   
    41   17   57 1   
    42   18   23 1   
    43   19   20 1   
    44   19   44 1   
    45   19   46 1   
    46   20   45 1   
    47   21   22 1   
    48   21   23 1   
    49   22   47 1   
    50   23   24 1   
    51   23   48 1   
    52   26   58 1   
    53   27   50 1   
    54   27   51 1   
    55   31   34 1   
    56   57   59 1   
    57   57   60 1   
@<TRIPOS>SUBSTRUCTURE
     1 0UM         1 TEMP              0 ****  ****    0 ROOT
