@<TRIPOS>MOLECULE
0UN
   62    65     1     0     0
SMALL
bcc


@<TRIPOS>ATOM
      1 CAT        -6.3790    1.3770   -0.5670 c3        1 0UN      0.186800
      2 CAR        -7.7600    1.6600    0.0580 c3        1 0UN      0.164800
      3 NBN        -8.6150    0.4820    0.1020 n3        1 0UN     -0.732600
      4 CAB        -9.8990    0.7540    0.7060 c3        1 0UN      0.157100
      5 CAS        -7.9450   -0.6600    0.7070 c3        1 0UN      0.164800
      6 CAU        -6.5650   -0.9490    0.0810 c3        1 0UN      0.186800
      7 NBO        -5.7180    0.2320    0.0420 nh        1 0UN     -0.637000
      8 CBH        -4.3700    0.0270   -0.3420 ca        1 0UN      0.169600
      9 CAO        -3.4370    1.0770   -0.1760 ca        1 0UN     -0.224000
     10 CBK        -2.0880    0.8740   -0.4560 ca        1 0UN      0.123100
     11 OBA        -1.1360    1.8730   -0.3380 os        1 0UN     -0.341900
     12 CAA        -1.5180    3.0350    0.3880 c3        1 0UN      0.119700
     13 CAK        -3.8930   -1.2140   -0.8130 ca        1 0UN     -0.207000
     14 CAL        -2.5470   -1.4090   -1.0970 ca        1 0UN     -0.047000
     15 CBJ        -1.6060   -0.3810   -0.9280 ca        1 0UN      0.059600
     16 NAZ        -0.2470   -0.5620   -1.2920 nh        1 0UN     -0.671300
     17 C2          0.5670   -1.4570   -0.5620 ca        1 0UN      0.892900
     18 N3          1.9380   -1.2540   -0.6620 nb        1 0UN     -0.788000
     19 N1         -0.0220   -2.5100    0.1290 nb        1 0UN     -0.744000
     20 C6          0.8100   -3.3860    0.7060 ca        1 0UN      0.481200
     21 C5          2.2150   -3.2920    0.6520 ca        1 0UN     -0.291200
     22 CL5         3.1830   -4.4450    1.4060 cl        1 0UN     -0.046400
     23 C4          2.7280   -2.1750   -0.0670 ca        1 0UN      0.699600
     24 OBB         4.1050   -2.0760   -0.1360 os        1 0UN     -0.354400
     25 CBG         4.6570   -0.9550   -0.7710 ca        1 0UN      0.125100
     26 CAN         4.5750    0.3020   -0.1680 ca        1 0UN     -0.147000
     27 CAJ         5.3870   -1.1860   -1.9410 ca        1 0UN     -0.149000
     28 CAH         6.0680   -0.1120   -2.5090 ca        1 0UN     -0.096000
     29 CAI         6.0170    1.1520   -1.9350 ca        1 0UN     -0.188000
     30 CBF         5.2680    1.3820   -0.7530 ca        1 0UN      0.081600
     31 NAY         5.2450    2.6820   -0.2260 n         1 0UN     -0.468100
     32 CBD         4.7150    3.0950    0.9920 c         1 0UN      0.666300
     33 OAE         4.1540    2.3120    1.7830 o         1 0UN     -0.588100
     34 CAQ         4.8560    4.5450    1.3040 ce        1 0UN     -0.245200
     35 CAP         4.5120    5.0200    2.5010 c2        1 0UN     -0.126000
     36 HAT        -6.5090    1.2250   -1.6780 h1        1 0UN      0.045450
     37 HATA       -5.7430    2.2910   -0.4130 h1        1 0UN      0.045450
     38 HAR        -7.6090    2.1060    1.0840 h1        1 0UN      0.039200
     39 HARA       -8.2720    2.4310   -0.5830 h1        1 0UN      0.039200
     40 HAB       -10.3960    1.5840    0.1390 h1        1 0UN      0.033367
     41 HABA      -10.5350   -0.1670    0.6300 h1        1 0UN      0.033367
     42 HABB       -9.8300    1.0520    1.7890 h1        1 0UN      0.033367
     43 HAS        -7.8160   -0.5270    1.8210 h1        1 0UN      0.039200
     44 HASA       -8.5910   -1.5660    0.5380 h1        1 0UN      0.039200
     45 HAU        -6.0580   -1.7260    0.7180 h1        1 0UN      0.045450
     46 HAUA       -6.7220   -1.3810   -0.9500 h1        1 0UN      0.045450
     47 HAO        -3.7720    2.0540    0.2010 ha        1 0UN      0.143000
     48 HAA        -2.2680    3.6250   -0.1920 h1        1 0UN      0.046367
     49 HAAA       -1.9210    2.7640    1.3940 h1        1 0UN      0.046367
     50 HAAB       -0.5590    3.6050    0.4860 h1        1 0UN      0.046367
     51 HAK        -4.5800   -2.0600   -0.9700 ha        1 0UN      0.138000
     52 HAL        -2.2190   -2.3970   -1.4620 ha        1 0UN      0.155000
     53 HNAZ        0.2110    0.2980   -1.5360 hn        1 0UN      0.445800
     54 H6          0.3230   -4.2170    1.2520 h4        1 0UN      0.039100
     55 HAN         3.9720    0.4280    0.7470 ha        1 0UN      0.188000
     56 HAJ         5.4240   -2.1900   -2.3850 ha        1 0UN      0.151000
     57 HAH         6.6540   -0.2660   -3.4280 ha        1 0UN      0.136000
     58 HAI         6.5660    1.9770   -2.4150 ha        1 0UN      0.130000
     59 HNAY        5.7080    3.3720   -0.7760 hn        1 0UN      0.316500
     60 HAQ         5.2470    5.2030    0.5120 ha        1 0UN      0.131000
     61 HAP         4.6040    6.0850    2.7540 ha        1 0UN      0.132000
     62 HAPA        4.1170    4.3700    3.2970 ha        1 0UN      0.132000
@<TRIPOS>BOND
     1    1    2 1   
     2    1    7 1   
     3    1   36 1   
     4    1   37 1   
     5    2    3 1   
     6    2   38 1   
     7    2   39 1   
     8    3    4 1   
     9    3    5 1   
    10    4   40 1   
    11    4   41 1   
    12    4   42 1   
    13    5    6 1   
    14    5   43 1   
    15    5   44 1   
    16    6    7 1   
    17    6   45 1   
    18    6   46 1   
    19    7    8 1   
    20    8    9 ar  
    21    8   13 ar  
    22    9   10 ar  
    23    9   47 1   
    24   10   11 1   
    25   10   15 ar  
    26   11   12 1   
    27   12   48 1   
    28   12   49 1   
    29   12   50 1   
    30   13   14 ar  
    31   13   51 1   
    32   14   15 ar  
    33   14   52 1   
    34   15   16 1   
    35   16   17 1   
    36   16   53 1   
    37   17   18 ar  
    38   17   19 ar  
    39   18   23 ar  
    40   19   20 ar  
    41   20   21 ar  
    42   20   54 1   
    43   21   22 1   
    44   21   23 ar  
    45   23   24 1   
    46   24   25 1   
    47   25   26 ar  
    48   25   27 ar  
    49   26   30 ar  
    50   26   55 1   
    51   27   28 ar  
    52   27   56 1   
    53   28   29 ar  
    54   28   57 1   
    55   29   30 ar  
    56   29   58 1   
    57   30   31 1   
    58   31   32 1   
    59   31   59 1   
    60   32   33 2   
    61   32   34 1   
    62   34   35 2   
    63   34   60 1   
    64   35   61 1   
    65   35   62 1   
@<TRIPOS>SUBSTRUCTURE
     1 0UN         1 TEMP              0 ****  ****    0 ROOT
