@<TRIPOS>MOLECULE
0UN
   62    65     1     0     0
SMALL
bcc


@<TRIPOS>ATOM
      1 CAT         0.0840   -0.0710   -0.1450 c3        1 0UN      0.186800
      2 CAR         1.5990   -0.3070   -0.3050 c3        1 0UN      0.164800
      3 NBN         2.3260   -0.2010    0.9520 n3        1 0UN     -0.732600
      4 CAB         3.7420   -0.4410    0.7950 c3        1 0UN      0.157100
      5 CAS         1.7340   -1.0210    1.9990 c3        1 0UN      0.164800
      6 CAU         0.2190   -0.7840    2.1650 c3        1 0UN      0.186800
      7 NBO        -0.4980   -0.8930    0.9060 nh        1 0UN     -0.637000
      8 CBH        -1.9130   -0.8760    0.9830 ca        1 0UN      0.169600
      9 CAO        -2.6710   -1.2140   -0.1620 ca        1 0UN     -0.223000
     10 CBK        -4.0600   -1.2980   -0.0900 ca        1 0UN      0.123100
     11 OBA        -4.8540   -1.5970   -1.1850 os        1 0UN     -0.341900
     12 CAA        -4.1930   -2.1330   -2.3240 c3        1 0UN      0.119700
     13 CAK        -2.6060   -0.6150    2.1830 ca        1 0UN     -0.207000
     14 CAL        -3.9920   -0.6940    2.2480 ca        1 0UN     -0.047000
     15 CBJ        -4.7600   -1.0370    1.1230 ca        1 0UN      0.059600
     16 NAZ        -6.1770   -1.0410    1.1760 nh        1 0UN     -0.671300
     17 C2         -6.8530   -2.0040    1.9580 ca        1 0UN      0.892900
     18 N3         -8.1800   -2.2430    1.6190 nb        1 0UN     -0.788000
     19 N1         -6.2040   -2.5830    3.0430 nb        1 0UN     -0.744000
     20 C6         -6.9350   -3.4020    3.8100 ca        1 0UN      0.481200
     21 C5         -8.2920   -3.7000    3.5750 ca        1 0UN     -0.291200
     22 CL5        -9.1330   -4.7400    4.5980 cl        1 0UN     -0.046400
     23 C4         -8.8690   -3.0710    2.4340 ca        1 0UN      0.699600
     24 OBB       -10.2030   -3.3480    2.1980 os        1 0UN     -0.354400
     25 CBG       -10.7960   -2.8090    1.0480 ca        1 0UN      0.125100
     26 CAN       -10.4490   -3.2980   -0.2130 ca        1 0UN     -0.147000
     27 CAJ       -11.8210   -1.8770    1.2420 ca        1 0UN     -0.149000
     28 CAH       -12.5260   -1.4380    0.1240 ca        1 0UN     -0.096000
     29 CAI       -12.2150   -1.9060   -1.1470 ca        1 0UN     -0.188000
     30 CBF       -11.1690   -2.8450   -1.3380 ca        1 0UN      0.081600
     31 NAY       -10.8940   -3.2720   -2.6460 n         1 0UN     -0.468100
     32 CBD       -10.0350   -4.2920   -3.0420 c         1 0UN      0.666300
     33 OAE        -9.3630   -4.9590   -2.2330 o         1 0UN     -0.588100
     34 CAQ        -9.9600   -4.5440   -4.5100 ce        1 0UN     -0.245200
     35 CAP        -9.2800   -5.5870   -4.9860 c2        1 0UN     -0.126000
     36 HAT        -0.4050   -0.3290   -1.1250 h1        1 0UN      0.045450
     37 HATA       -0.0930    1.0260    0.0550 h1        1 0UN      0.045450
     38 HAR         1.9960    0.4860   -0.9990 h1        1 0UN      0.039200
     39 HARA        1.7600   -1.3110   -0.7970 h1        1 0UN      0.039200
     40 HAB         3.9820   -1.4870    0.4570 h1        1 0UN      0.033367
     41 HABA        4.1480    0.2800    0.0380 h1        1 0UN      0.033367
     42 HABB        4.2490   -0.2590    1.7780 h1        1 0UN      0.033367
     43 HAS         1.9100   -2.1210    1.8180 h1        1 0UN      0.039200
     44 HASA        2.2290   -0.7460    2.9720 h1        1 0UN      0.039200
     45 HAU         0.0640    0.2270    2.6440 h1        1 0UN      0.045450
     46 HAUA       -0.1750   -1.5730    2.8650 h1        1 0UN      0.045450
     47 HAO        -2.1630   -1.4360   -1.1110 ha        1 0UN      0.143000
     48 HAA        -3.5690   -3.0170   -2.0460 h1        1 0UN      0.046367
     49 HAAA       -3.5680   -1.3480   -2.8150 h1        1 0UN      0.046367
     50 HAAB       -5.0380   -2.4390   -2.9920 h1        1 0UN      0.046367
     51 HAK        -2.0630   -0.3380    3.1000 ha        1 0UN      0.138000
     52 HAL        -4.4920   -0.4820    3.2080 ha        1 0UN      0.155000
     53 HNAZ       -6.6030   -0.8730    0.2810 hn        1 0UN      0.445800
     54 H6         -6.4010   -3.8530    4.6680 h4        1 0UN      0.039100
     55 HAN        -9.6220   -4.0210   -0.3070 ha        1 0UN      0.188000
     56 HAJ       -12.0610   -1.5160    2.2510 ha        1 0UN      0.151000
     57 HAH       -13.3400   -0.7080    0.2480 ha        1 0UN      0.136000
     58 HAI       -12.7930   -1.5340   -2.0070 ha        1 0UN      0.130000
     59 HNAY      -11.4190   -2.8180   -3.3600 hn        1 0UN      0.316500
     60 HAQ       -10.4780   -3.8390   -5.1770 ha        1 0UN      0.131000
     61 HAP        -8.7560   -6.2950   -4.3260 ha        1 0UN      0.132000
     62 HAPA       -9.2080   -5.7930   -6.0630 ha        1 0UN      0.132000
@<TRIPOS>BOND
     1    1    2 1   
     2    1    7 1   
     3    1   36 1   
     4    1   37 1   
     5    2    3 1   
     6    2   38 1   
     7    2   39 1   
     8    3    4 1   
     9    3    5 1   
    10    4   40 1   
    11    4   41 1   
    12    4   42 1   
    13    5    6 1   
    14    5   43 1   
    15    5   44 1   
    16    6    7 1   
    17    6   45 1   
    18    6   46 1   
    19    7    8 1   
    20    8    9 ar  
    21    8   13 ar  
    22    9   10 ar  
    23    9   47 1   
    24   10   11 1   
    25   10   15 ar  
    26   11   12 1   
    27   12   48 1   
    28   12   49 1   
    29   12   50 1   
    30   13   14 ar  
    31   13   51 1   
    32   14   15 ar  
    33   14   52 1   
    34   15   16 1   
    35   16   17 1   
    36   16   53 1   
    37   17   18 ar  
    38   17   19 ar  
    39   18   23 ar  
    40   19   20 ar  
    41   20   21 ar  
    42   20   54 1   
    43   21   22 1   
    44   21   23 ar  
    45   23   24 1   
    46   24   25 1   
    47   25   26 ar  
    48   25   27 ar  
    49   26   30 ar  
    50   26   55 1   
    51   27   28 ar  
    52   27   56 1   
    53   28   29 ar  
    54   28   57 1   
    55   29   30 ar  
    56   29   58 1   
    57   30   31 1   
    58   31   32 1   
    59   31   59 1   
    60   32   33 2   
    61   32   34 1   
    62   34   35 2   
    63   34   60 1   
    64   35   61 1   
    65   35   62 1   
@<TRIPOS>SUBSTRUCTURE
     1 0UN         1 TEMP              0 ****  ****    0 ROOT
