@<TRIPOS>MOLECULE
0UN
   62    65     1     0     0
SMALL
bcc


@<TRIPOS>ATOM
      1 CAT         0.0820   -0.0680   -0.1500 c3        1 0UN      0.186800
      2 CAR         1.5980   -0.3020   -0.3110 c3        1 0UN      0.164800
      3 NBN         2.3250   -0.1960    0.9450 n3        1 0UN     -0.732600
      4 CAB         3.7410   -0.4350    0.7870 c3        1 0UN      0.157100
      5 CAS         1.7350   -1.0160    1.9930 c3        1 0UN      0.164800
      6 CAU         0.2200   -0.7800    2.1600 c3        1 0UN      0.186800
      7 NBO        -0.4980   -0.8900    0.9010 nh        1 0UN     -0.637000
      8 CBH        -1.9130   -0.8740    0.9800 ca        1 0UN      0.169600
      9 CAO        -2.6720   -1.2120   -0.1640 ca        1 0UN     -0.224000
     10 CBK        -4.0610   -1.2970   -0.0910 ca        1 0UN      0.123100
     11 OBA        -4.8560   -1.5960   -1.1850 os        1 0UN     -0.341900
     12 CAA        -4.1950   -2.1310   -2.3250 c3        1 0UN      0.119700
     13 CAK        -2.6050   -0.6130    2.1810 ca        1 0UN     -0.207000
     14 CAL        -3.9910   -0.6930    2.2470 ca        1 0UN     -0.047000
     15 CBJ        -4.7600   -1.0360    1.1230 ca        1 0UN      0.059600
     16 NAZ        -6.1770   -1.0410    1.1770 nu        1 0UN     -0.671300
     17 C2         -6.8510   -2.0040    1.9600 ca        1 0UN      0.892900
     18 N3         -8.1780   -2.2440    1.6220 nb        1 0UN     -0.788000
     19 N1         -6.2010   -2.5820    3.0450 nb        1 0UN     -0.744000
     20 C6         -6.9310   -3.4010    3.8120 ca        1 0UN      0.481200
     21 C5         -8.2880   -3.7000    3.5780 ca        1 0UN     -0.291200
     22 Cl5        -9.1280   -4.7400    4.6020 cl        1 0UN     -0.046400
     23 C4         -8.8670   -3.0720    2.4380 ca        1 0UN      0.699600
     24 OBB       -10.2000   -3.3500    2.2030 os        1 0UN     -0.354400
     25 CBG       -10.7950   -2.8120    1.0530 ca        1 0UN      0.125100
     26 CAN       -10.4490   -3.3020   -0.2080 ca        1 0UN     -0.147000
     27 CAJ       -11.8190   -1.8800    1.2470 ca        1 0UN     -0.149000
     28 CAH       -12.5250   -1.4420    0.1290 ca        1 0UN     -0.096000
     29 CAI       -12.2150   -1.9100   -1.1420 ca        1 0UN     -0.188000
     30 CBF       -11.1700   -2.8500   -1.3330 ca        1 0UN      0.081600
     31 NAY       -10.8960   -3.2790   -2.6410 ns        1 0UN     -0.468100
     32 CBD       -10.0370   -4.2980   -3.0370 c         1 0UN      0.666300
     33 OAE        -9.3640   -4.9650   -2.2280 o         1 0UN     -0.588100
     34 CAQ        -9.9630   -4.5520   -4.5040 ce        1 0UN     -0.245200
     35 CAP        -9.2820   -5.5950   -4.9800 c2        1 0UN     -0.126000
     36 HAT        -0.4070   -0.3260   -1.1290 h1        1 0UN      0.045450
     37 HATA       -0.0950    1.0290    0.0500 h1        1 0UN      0.045450
     38 HAR         1.7580   -1.3060   -0.8030 h1        1 0UN      0.039200
     39 HARA        1.9930    0.4910   -1.0050 h1        1 0UN      0.039200
     40 HAB         4.2500   -0.2530    1.7700 h1        1 0UN      0.033367
     41 HABA        3.9820   -1.4810    0.4480 h1        1 0UN      0.033367
     42 HABB        4.1460    0.2860    0.0300 h1        1 0UN      0.033367
     43 HAS         1.9120   -2.1160    1.8120 h1        1 0UN      0.039200
     44 HASA        2.2300   -0.7410    2.9660 h1        1 0UN      0.039200
     45 HAU         0.0640    0.2310    2.6390 h1        1 0UN      0.045450
     46 HAUA       -0.1730   -1.5690    2.8610 h1        1 0UN      0.045450
     47 HAO        -2.1650   -1.4340   -1.1140 ha        1 0UN      0.143000
     48 HAA        -3.5710   -3.0150   -2.0490 h1        1 0UN      0.046367
     49 HAAA       -5.0410   -2.4370   -2.9930 h1        1 0UN      0.046367
     50 HAAB       -3.5710   -1.3450   -2.8160 h1        1 0UN      0.046367
     51 HAK        -2.0620   -0.3360    3.0970 ha        1 0UN      0.138000
     52 HAL        -4.4910   -0.4810    3.2070 ha        1 0UN      0.155000
     53 HNAZ       -6.6030   -0.8730    0.2820 hn        1 0UN      0.445800
     54 H6         -6.3960   -3.8520    4.6700 h4        1 0UN      0.039100
     55 HAN        -9.6220   -4.0250   -0.3020 ha        1 0UN      0.188000
     56 HAJ       -12.0580   -1.5170    2.2560 ha        1 0UN      0.151000
     57 HAH       -13.3390   -0.7110    0.2530 ha        1 0UN      0.136000
     58 HAI       -12.7930   -1.5390   -2.0020 ha        1 0UN      0.130000
     59 HNAY      -11.4210   -2.8250   -3.3550 hn        1 0UN      0.316500
     60 HAQ       -10.4830   -3.8490   -5.1720 ha        1 0UN      0.131000
     61 HAP        -8.7550   -6.3010   -4.3190 ha        1 0UN      0.132000
     62 HAPA       -9.2110   -5.8020   -6.0560 ha        1 0UN      0.132000
@<TRIPOS>BOND
     1    1    2 1   
     2    1    7 1   
     3    1   36 1   
     4    1   37 1   
     5    2    3 1   
     6    2   38 1   
     7    2   39 1   
     8    3    4 1   
     9    3    5 1   
    10    4   40 1   
    11    4   41 1   
    12    4   42 1   
    13    5    6 1   
    14    5   43 1   
    15    5   44 1   
    16    6    7 1   
    17    6   45 1   
    18    6   46 1   
    19    7    8 1   
    20    8    9 ar  
    21    8   13 ar  
    22    9   10 ar  
    23    9   47 1   
    24   10   11 1   
    25   10   15 ar  
    26   11   12 1   
    27   12   48 1   
    28   12   49 1   
    29   12   50 1   
    30   13   14 ar  
    31   13   51 1   
    32   14   15 ar  
    33   14   52 1   
    34   15   16 1   
    35   16   17 1   
    36   16   53 1   
    37   17   18 ar  
    38   17   19 ar  
    39   18   23 ar  
    40   19   20 ar  
    41   20   21 ar  
    42   20   54 1   
    43   21   22 1   
    44   21   23 ar  
    45   23   24 1   
    46   24   25 1   
    47   25   26 ar  
    48   25   27 ar  
    49   26   30 ar  
    50   26   55 1   
    51   27   28 ar  
    52   27   56 1   
    53   28   29 ar  
    54   28   57 1   
    55   29   30 ar  
    56   29   58 1   
    57   30   31 1   
    58   31   32 1   
    59   31   59 1   
    60   32   33 2   
    61   32   34 1   
    62   34   35 2   
    63   34   60 1   
    64   35   61 1   
    65   35   62 1   
@<TRIPOS>SUBSTRUCTURE
     1 0UN         1 TEMP              0 ****  ****    0 ROOT
