@<TRIPOS>MOLECULE
0UN
   62    58     1     0     0
SMALL
bcc


@<TRIPOS>ATOM
      1 CAT         6.2180   -2.0000    1.2420 c3        1 0UN     -0.082500
      2 CAR         7.7240   -1.9030    1.3580 c3        1 0UN     -0.077000
      3 NBN         8.1950   -0.5720    1.1960 n3        1 0UN     -0.245000
      4 CAB         7.8180    0.2050    2.3280 c3        1 0UN     -0.129000
      5 CAS         7.7020    0.0430    0.0140 c3        1 0UN     -0.077000
      6 CAU         6.1960   -0.0540   -0.1020 c3        1 0UN     -0.082500
      7 NBO         5.7250   -1.3850    0.0590 n3        1 0UN     -0.237000
      8 CBH         4.2990   -1.3860    0.0820 c2        1 0UN      0.092000
      9 CAO         3.5950   -2.3310   -0.6490 c2        1 0UN     -0.228000
     10 CBK         2.2080   -2.3010   -0.6690 c1        1 0UN      0.081000
     11 OBA         1.4930   -3.3090   -1.3400 o         1 0UN     -0.225000
     12 CAA         1.9160   -3.5210   -2.6690 c3        1 0UN     -0.071000
     13 CAK         3.6170   -0.4090    0.7920 c1        1 0UN     -0.210000
     14 CAL         2.2300   -0.3790    0.7720 c1        1 0UN     -0.045000
     15 CBJ         1.5250   -1.3240    0.0420 c2        1 0UN     -0.026000
     16 NAZ         0.0990   -1.3490    0.0960 n3        1 0UN     -0.192000
     17 C2         -0.6560   -0.2990   -0.5070 c2        1 0UN      0.174000
     18 N3         -1.9870   -0.4730   -0.7520 n2        1 0UN     -0.265000
     19 N1         -0.0300    0.8380   -0.9190 n1        1 0UN     -0.217000
     20 C6         -0.7210    1.7900   -1.5670 c1        1 0UN      0.017000
     21 C5         -2.0540    1.6180   -1.8130 c1        1 0UN     -0.242000
     22 CL5        -2.9160    2.7820   -2.7840 cl        1 0UN      0.032000
     23 C4         -2.6820    0.4770   -1.4000 c1        1 0UN      0.199000
     24 OBB        -4.0200    0.2300   -1.7860 os        1 0UN     -0.141000
     25 CBG        -4.8850    1.0940   -1.0720 c2        1 0UN      0.081000
     26 CAN        -6.0260    0.5840   -0.4670 c2        1 0UN     -0.185000
     27 CAJ        -4.6750    2.4650   -1.1060 c1        1 0UN     -0.147000
     28 CAH        -5.6030    3.3240   -0.5360 c1        1 0UN     -0.127000
     29 CAI        -6.7420    2.8130    0.0680 c1        1 0UN     -0.127000
     30 CBF        -6.9530    1.4440    0.1030 c1        1 0UN      0.090000
     31 NAY        -8.1050    0.9190    0.7500 n         1 0UN     -0.322000
     32 CBD        -9.3290    1.6410    0.7200 c2        1 0UN      0.342000
     33 OAE        -9.3910    2.7070    0.1410 o         1 0UN     -0.354000
     34 CAQ       -10.5730    1.0500    1.3520 c2        1 0UN     -0.226000
     35 CAP       -11.7110    1.7720    1.4040 c1        1 0UN     -0.124000
     36 HAT         5.9610   -2.9460    1.2380 h1        1 0UN      0.081250
     37 HATA        5.8120   -1.5640    2.0190 h1        1 0UN      0.081250
     38 HAR         8.1320   -2.4690    0.6700 h1        1 0UN      0.100250
     39 HARA        7.9960   -2.2310    2.2400 h1        1 0UN      0.100250
     40 HAB         6.8510    0.3700    2.3050 h1        1 0UN      0.072333
     41 HABA        8.2970    1.0620    2.3110 h1        1 0UN      0.072333
     42 HABB        8.0470   -0.2810    3.1500 h1        1 0UN      0.072333
     43 HAS         7.9590    0.9880    0.0180 h1        1 0UN      0.100250
     44 HASA        8.1080   -0.3930   -0.7630 h1        1 0UN      0.100250
     45 HAU         5.9240    0.2740   -0.9840 h1        1 0UN      0.081250
     46 HAUA        5.7890    0.5110    0.5850 h1        1 0UN      0.081250
     47 HAO         4.0760   -3.0190   -1.1480 ha        1 0UN      0.144000
     48 HAA         2.6450   -4.1780   -2.6800 h1        1 0UN      0.086333
     49 HAAA        1.1630   -3.8580   -3.2020 h1        1 0UN      0.086333
     50 HAAB        2.2330   -2.6730   -3.0500 h1        1 0UN      0.086333
     51 HAK         4.1120    0.2560    1.3060 ha        1 0UN      0.138000
     52 HAL         1.7500    0.3080    1.2720 ha        1 0UN      0.155000
     53 HNAZ       -0.3300   -2.0540    0.4840 hn        1 0UN      0.241000
     54 H6         -0.2720    2.6040   -1.8620 ha        1 0UN      0.177000
     55 HAN        -6.1750   -0.3800   -0.4420 ha        1 0UN      0.146000
     56 HAJ        -3.8760    2.8240   -1.5290 ha        1 0UN      0.151000
     57 HAH        -5.4540    4.2890   -0.5600 ha        1 0UN      0.158000
     58 HAI        -7.3950    3.4190    0.4690 ha        1 0UN      0.158000
     59 HNAY       -8.0530    0.1290    1.2040 hn        1 0UN      0.231000
     60 HAQ       -10.5510    0.1460    1.7200 ha        1 0UN      0.132000
     61 HAP       -11.7340    2.6760    1.0350 DU        1 0UN      0.142000
     62 HAPA      -12.5150    1.3900    1.8120 ha        1 0UN      0.121000
@<TRIPOS>BOND
     1    1    2 1   
     2    1    7 1   
     3    1   36 1   
     4    1   37 1   
     5    2    3 1   
     6    2   38 1   
     7    2   39 1   
     8    3    4 1   
     9    3    5 1   
    10    4   40 1   
    11    4   41 1   
    12    4   42 1   
    13    5    6 1   
    14    5   43 1   
    15    5   44 1   
    16    6    7 1   
    17    6   45 1   
    18    6   46 1   
    19    7    8 1   
    20    8    9 1   
    21    8   13 1   
    22    9   10 1   
    23    9   47 1   
    24   10   15 1   
    25   11   12 1   
    26   12   48 1   
    27   12   49 1   
    28   12   50 1   
    29   13   51 1   
    30   14   15 1   
    31   14   52 1   
    32   15   16 1   
    33   16   17 1   
    34   16   53 1   
    35   17   18 1   
    36   17   19 1   
    37   18   23 1   
    38   20   21 1   
    39   20   54 1   
    40   21   22 1   
    41   23   24 1   
    42   24   25 1   
    43   25   26 1   
    44   25   27 1   
    45   26   30 1   
    46   26   55 1   
    47   27   56 1   
    48   28   29 1   
    49   28   57 1   
    50   29   58 1   
    51   30   31 1   
    52   31   32 1   
    53   31   59 1   
    54   32   33 1   
    55   32   34 1   
    56   34   35 1   
    57   34   60 1   
    58   35   62 1   
@<TRIPOS>SUBSTRUCTURE
     1 0UN         1 TEMP              0 ****  ****    0 ROOT
