@<TRIPOS>MOLECULE
0UN
   64    67     1     0     0
SMALL
bcc


@<TRIPOS>ATOM
      1 CAT         0.3100   -0.4830    0.0940 c3        1 0UN      0.200300
      2 CAR         1.8250   -0.7680    0.0790 c3        1 0UN      0.157800
      3 NBN         2.5100   -0.2070    1.2300 n3        1 0UN     -0.728600
      4 CAB         3.9480   -0.3330    1.1550 c3        1 0UN      0.152100
      5 CAS         1.9510   -0.7450    2.4580 c3        1 0UN      0.157800
      6 CAU         0.4430   -0.4630    2.5980 c3        1 0UN      0.200300
      7 NBO        -0.3420   -0.6170    1.3850 nh        1 0UN     -0.618000
      8 CBH        -1.7070   -0.5080    1.4570 ca        1 0UN      0.291600
      9 CAO        -2.5180   -0.4670    0.2830 ca        1 0UN     -0.298000
     10 CBK        -3.9020   -0.4390    0.3680 ca        1 0UN      0.231100
     11 OBA        -4.7390   -0.4030   -0.7260 os        1 0UN     -0.371900
     12 CAA        -4.1270   -0.2550   -2.0090 c3        1 0UN      0.118700
     13 CAK        -2.3890   -0.4650    2.7210 ca        1 0UN     -0.227000
     14 CAL        -3.7590   -0.4370    2.8000 ca        1 0UN     -0.002000
     15 CBJ        -4.5540   -0.4230    1.6320 ca        1 0UN     -0.213400
     16 NAZ        -6.0040   -0.3570    1.7230 n4        1 0UN     -0.563100
     17 C2         -6.6350   -1.6700    2.0860 ca        1 0UN      0.741900
     18 N3         -7.5590   -2.1710    1.2020 nb        1 0UN     -0.728000
     19 N1         -6.2340   -2.2400    3.2650 nb        1 0UN     -0.650000
     20 C6         -6.7930   -3.4250    3.5690 ca        1 0UN      0.474200
     21 C5         -7.7470   -4.0660    2.7450 ca        1 0UN     -0.189200
     22 CL5        -8.3960   -5.5410    3.1820 cl        1 0UN      0.052600
     23 C4         -8.1000   -3.3670    1.5500 ca        1 0UN      0.662600
     24 OBB        -9.0000   -4.0180    0.7250 os        1 0UN     -0.332400
     25 CBG        -9.6750   -3.3140   -0.2720 ca        1 0UN      0.125100
     26 CAN        -9.7760   -3.9950   -1.4930 ca        1 0UN     -0.102000
     27 CAJ       -10.3490   -2.1110   -0.0390 ca        1 0UN     -0.092000
     28 CAH       -11.1440   -1.5770   -1.0530 ca        1 0UN     -0.083000
     29 CAI       -11.2850   -2.2340   -2.2750 ca        1 0UN     -0.106000
     30 CBF       -10.6040   -3.4460   -2.4880 ca        1 0UN     -0.029400
     31 NAY       -10.7480   -4.1520   -3.7640 n4        1 0UN     -0.553200
     32 CBD       -11.4380   -5.5130   -3.5860 c         1 0UN      0.570300
     33 OAE       -10.6620   -6.4410   -3.4120 o         1 0UN     -0.424100
     34 CAQ       -12.8900   -5.4990   -3.6740 ce        1 0UN     -0.302200
     35 CAP       -13.5840   -6.6490   -3.6660 c2        1 0UN     -0.002000
     36 HAT        -0.1610   -1.2180   -0.6210 h1        1 0UN      0.058450
     37 HATA        0.1350    0.5620   -0.2940 h1        1 0UN      0.058450
     38 HAR         2.2430   -0.2910   -0.8520 h1        1 0UN      0.056200
     39 HARA        1.9800   -1.8840   -0.0030 h1        1 0UN      0.056200
     40 HAB         4.4000    0.1880    2.0390 h1        1 0UN      0.048367
     41 HABA        4.3040    0.1720    0.2180 h1        1 0UN      0.048367
     42 HABB        4.3000   -1.4010    1.1460 h1        1 0UN      0.048367
     43 HAS         2.1190   -1.8590    2.5450 h1        1 0UN      0.056200
     44 HASA        2.4640   -0.2480    3.3300 h1        1 0UN      0.056200
     45 HAU         0.0530   -1.1880    3.3700 h1        1 0UN      0.058450
     46 HAUA        0.3060    0.5880    2.9860 h1        1 0UN      0.058450
     47 HAO        -2.0490   -0.4480   -0.7120 ha        1 0UN      0.164000
     48 HAA        -3.5100   -1.1550   -2.2470 h1        1 0UN      0.063700
     49 HAAA       -3.5110    0.6760   -2.0450 h1        1 0UN      0.063700
     50 HAAB       -5.0050   -0.1780   -2.7000 h1        1 0UN      0.063700
     51 HAK        -1.8170   -0.4470    3.6630 ha        1 0UN      0.167000
     52 HAL        -4.2360   -0.4160    3.7960 ha        1 0UN      0.160000
     53 HNAZ       -6.3760   -0.0440    0.8120 hn        1 0UN      0.477300
     54 H6         -6.4600   -3.8830    4.5270 h4        1 0UN      0.090100
     55 HAN        -9.2390   -4.9490   -1.6340 ha        1 0UN      0.189000
     56 HAJ       -10.2690   -1.5980    0.9330 ha        1 0UN      0.174000
     57 HAH       -11.6840   -0.6290   -0.8840 ha        1 0UN      0.182000
     58 HAI       -11.9310   -1.7910   -3.0520 ha        1 0UN      0.166000
     59 HNAY      -11.2910   -3.5760   -4.4160 hn        1 0UN      0.465800
     60 HAQ       -13.3970   -4.5210   -3.7370 ha        1 0UN      0.169000
     61 HAP       -13.1050   -7.6410   -3.5990 ha        1 0UN      0.169000
     62 HAPA      -14.6860   -6.6510   -3.7300 ha        1 0UN      0.169000
     63 HAZ2       -6.2580    0.3210    2.4560 hn        1 0UN      0.477300
     64 HAY2       -9.8090   -4.3110   -4.1550 hn        1 0UN      0.465800
@<TRIPOS>BOND
     1    1    2 1   
     2    1    7 1   
     3    1   36 1   
     4    1   37 1   
     5    2    3 1   
     6    2   38 1   
     7    2   39 1   
     8    3    4 1   
     9    3    5 1   
    10    4   40 1   
    11    4   41 1   
    12    4   42 1   
    13    5    6 1   
    14    5   43 1   
    15    5   44 1   
    16    6    7 1   
    17    6   45 1   
    18    6   46 1   
    19    7    8 1   
    20    8    9 ar  
    21    8   13 ar  
    22    9   10 ar  
    23    9   47 1   
    24   10   11 1   
    25   10   15 ar  
    26   11   12 1   
    27   12   48 1   
    28   12   49 1   
    29   12   50 1   
    30   13   14 ar  
    31   13   51 1   
    32   14   15 ar  
    33   14   52 1   
    34   15   16 1   
    35   16   17 1   
    36   16   53 1   
    37   16   63 1   
    38   17   18 ar  
    39   17   19 ar  
    40   18   23 ar  
    41   19   20 ar  
    42   20   21 ar  
    43   20   54 1   
    44   21   22 1   
    45   21   23 ar  
    46   23   24 1   
    47   24   25 1   
    48   25   26 ar  
    49   25   27 ar  
    50   26   30 ar  
    51   26   55 1   
    52   27   28 ar  
    53   27   56 1   
    54   28   29 ar  
    55   28   57 1   
    56   29   30 ar  
    57   29   58 1   
    58   30   31 1   
    59   31   32 1   
    60   31   59 1   
    61   31   64 1   
    62   32   33 2   
    63   32   34 1   
    64   34   35 2   
    65   34   60 1   
    66   35   61 1   
    67   35   62 1   
@<TRIPOS>SUBSTRUCTURE
     1 0UN         1 TEMP              0 ****  ****    0 ROOT
