@<TRIPOS>MOLECULE
0UO
   30    23     1     0     0
SMALL
bcc


@<TRIPOS>ATOM
      1 O3         -2.4930    0.0520    0.0140 os        1 0UO     -0.192000
      2 C11         2.0330   -0.2030    0.4670 c1        1 0UO     -0.077000
      3 C13         0.5870   -0.1360    2.1590 c1        1 0UO     -0.044500
      4 C14        -0.0780   -0.0920    3.3960 c1        1 0UO     -0.143000
      5 C15        -1.4630   -0.0540    3.4390 c1        1 0UO     -0.143000
      6 C16        -2.1950   -0.0580    2.2580 c1        1 0UO     -0.259000
      7 C17        -1.5400   -0.1010    1.0370 c1        1 0UO      0.125000
      8 C18        -0.1350   -0.1400    0.9930 c1        1 0UO     -0.044500
      9 C19        -3.3710   -1.0470   -0.1190 c3        1 0UO     -0.074000
     10 C           2.6010    0.3710   -3.0820 c1        1 0UO      0.303000
     11 CA          1.4750    0.8420   -2.1910 c2        1 0UO     -0.121000
     12 C9          0.7940   -0.3550   -1.5620 c3        1 0UO     -0.082000
     13 C10         0.7560   -0.1810   -0.0580 c1        1 0UO     -0.111000
     14 N           0.5320    1.5720   -2.9650 n3        1 0UO     -0.321000
     15 O           3.7020    0.9860   -3.0850 o         1 0UO     -0.582000
     16 N6          1.9310   -0.1750    1.8300 n1        1 0UO     -0.219000
     17 H7          2.8640   -0.2270   -0.0460 DU        1 0UO      0.240500
     18 H8          0.3530   -0.1920    4.2650 ha        1 0UO      0.113500
     19 H9         -1.8620   -0.1310    4.3260 ha        1 0UO      0.113500
     20 H10        -3.1230    0.1540    2.4870 ha        1 0UO      0.119000
     21 H11        -4.1240   -0.9420    0.5020 h1        1 0UO      0.073333
     22 H12        -3.7090   -1.0860   -1.0410 h1        1 0UO      0.073333
     23 H13        -2.8890   -1.8780    0.0880 h1        1 0UO      0.073333
     24 H28         1.8360    1.4190   -1.4870 h4        1 0UO      0.086000
     25 H29         1.2920   -1.1670   -1.7840 hc        1 0UO      0.092000
     26 H30        -0.1190   -0.4280   -1.9050 hc        1 0UO      0.092000
     27 H35         0.7820    1.5550   -3.8460 hn        1 0UO      0.125000
     28 H41         2.6260   -0.1790    2.4190 DU        1 0UO      0.240500
     29 OXT         2.4330   -0.6230   -3.8360 o         1 0UO     -0.582000
     30 H2          0.5030    2.4410   -2.6720 hn        1 0UO      0.125000
@<TRIPOS>BOND
     1    1    7 1   
     2    1    9 1   
     3    2   13 1   
     4    2   16 1   
     5    3    8 1   
     6    4    5 1   
     7    4   18 1   
     8    5   19 1   
     9    6    7 1   
    10    6   20 1   
    11    9   21 1   
    12    9   22 1   
    13    9   23 1   
    14   10   15 1   
    15   10   29 1   
    16   11   12 1   
    17   11   14 1   
    18   11   24 1   
    19   12   13 1   
    20   12   25 1   
    21   12   26 1   
    22   14   27 1   
    23   14   30 1   
@<TRIPOS>SUBSTRUCTURE
     1 0UO         1 TEMP              0 ****  ****    0 ROOT
