@<TRIPOS>MOLECULE
0UO
   30    31     1     0     0
SMALL
bcc


@<TRIPOS>ATOM
      1 O3         -0.6820    1.8380   -0.8020 os        1 0UO     -0.312900
      2 C11        -0.4220   -2.4690   -0.1610 cc        1 0UO     -0.159100
      3 C13        -2.3680   -1.3280    0.0720 ca        1 0UO     -0.035200
      4 C14        -3.6880   -0.9140    0.3130 ca        1 0UO     -0.186000
      5 C15        -3.9720    0.4380    0.2060 ca        1 0UO     -0.094000
      6 C16        -2.9910    1.3780   -0.1400 ca        1 0UO     -0.244000
      7 C17        -1.6770    0.9730   -0.3900 ca        1 0UO      0.181100
      8 C18        -1.3320   -0.3820   -0.2770 ca        1 0UO     -0.097800
      9 C19        -0.8070    3.1800   -0.3470 c3        1 0UO      0.114700
     10 C           3.5550   -0.0830    0.0080 c         1 0UO      0.890600
     11 CA          2.0770   -0.2790    0.4890 c3        1 0UO      0.032500
     12 C10        -0.0990   -1.1400   -0.4140 cd        1 0UO     -0.039400
     13 N           1.5460    0.8160    1.2880 n3        1 0UO     -0.898800
     14 N6         -1.8080   -2.6120    0.0670 na        1 0UO     -0.193400
     15 H7          0.2300   -3.3440   -0.1600 h4        1 0UO      0.167000
     16 H8         -4.4660   -1.6390    0.5820 ha        1 0UO      0.119000
     17 H9         -4.9960    0.7910    0.3990 ha        1 0UO      0.113000
     18 H10        -3.2640    2.4390   -0.2090 ha        1 0UO      0.124000
     19 H11         0.2040    3.6190   -0.5470 h1        1 0UO      0.039700
     20 H12        -1.5930    3.7140   -0.9350 h1        1 0UO      0.039700
     21 H13        -1.0450    3.2170    0.7430 h1        1 0UO      0.039700
     22 H28         2.0840   -1.1850    1.1650 h1        1 0UO      0.040700
     23 H29         1.1180    0.3070   -1.3850 hc        1 0UO      0.066700
     24 H30         1.8100   -1.3740   -1.3410 hc        1 0UO      0.066700
     25 H35         2.3300    1.2920    1.7080 hn        1 0UO      0.333800
     26 H41        -2.1880   -3.3540    0.5940 hn        1 0UO      0.271700
     27 H2          1.0950    1.4800    0.6820 hn        1 0UO      0.333800
     28 C9          1.2310   -0.6120   -0.7490 c3        1 0UO     -0.024200
     29 O           4.1450    0.9950    0.3060 o         1 0UO     -0.844300
     30 OXT         4.0810   -1.0290   -0.6410 o         1 0UO     -0.844300
@<TRIPOS>BOND
     1    1    7 1   
     2    1    9 1   
     3    2   12 2   
     4    2   14 1   
     5    2   15 1   
     6    3    4 ar  
     7    3    8 ar  
     8    3   14 1   
     9    4    5 ar  
    10    4   16 1   
    11    5    6 ar  
    12    5   17 1   
    13    6    7 ar  
    14    6   18 1   
    15    7    8 ar  
    16    8   12 1   
    17    9   19 1   
    18    9   20 1   
    19    9   21 1   
    20   10   11 1   
    21   10   29 1   
    22   10   30 1   
    23   11   13 1   
    24   11   22 1   
    25   11   28 1   
    26   12   28 1   
    27   13   25 1   
    28   13   27 1   
    29   14   26 1   
    30   23   28 1   
    31   24   28 1   
@<TRIPOS>SUBSTRUCTURE
     1 0UO         1 TEMP              0 ****  ****    0 ROOT
