@<TRIPOS>MOLECULE
0UP
   65    59     1     0     0
SMALL
bcc


@<TRIPOS>ATOM
      1 C1         -2.2970   -3.6190   -1.1150 c1        1 0UP     -0.132000
      2 C2         -0.4380    2.0370    2.2830 c1        1 0UP     -0.113333
      3 C3         -0.9300   -3.4490   -1.1470 c1        1 0UP     -0.113333
      4 C4         -0.5690    3.2690    2.9490 c1        1 0UP     -0.207000
      5 C5         -2.9430   -3.7640    0.0860 c1        1 0UP     -0.132000
      6 C6         -0.8530    3.1530    0.1560 c1        1 0UP     -0.113333
      7 C7         -0.8740   -3.5710    1.2240 c1        1 0UP     -0.156000
      8 C8         -0.5790    1.9760    0.8910 c1        1 0UP      0.001333
      9 C9         -0.2220   -3.4250    0.0130 c1        1 0UP      0.001333
     10 C10        -0.8380    4.4210    2.2300 c1        1 0UP      0.070000
     11 C11        -0.9810    4.3580    0.8090 c1        1 0UP      0.001333
     12 C12        -2.2290   -3.7400    1.2540 c1        1 0UP      0.092000
     13 C13         2.0790   -1.5910    1.2280 c3        1 0UP     -0.156000
     14 C14         2.0350   -1.6240   -1.2940 c3        1 0UP     -0.163000
     15 C15         3.5080   -3.0750   -0.0250 c3        1 0UP     -0.041000
     16 C16         0.8070   -0.7750    1.2330 c3        1 0UP     -0.079000
     17 C17         0.7550   -0.7970   -1.2720 c3        1 0UP     -0.020000
     18 C18         2.2150   -2.4390   -0.0220 c3        1 0UP      0.090000
     19 C19         0.7310    0.1200   -2.4790 c3        1 0UP     -0.214000
     20 C20        -3.4350    6.8100    0.5470 c3        1 0UP     -0.225000
     21 C21        -2.4350    6.4440   -1.7600 c3        1 0UP     -0.225000
     22 C22         4.3730   -5.2790   -1.3910 c3        1 0UP     -0.034000
     23 C23        -0.6510    0.6770   -0.0220 c2        1 0UP     -0.028000
     24 C24        -2.5660    5.8480   -0.3550 c3        1 0UP      0.031000
     25 N25         1.2050   -3.5650    0.0140 n2        1 0UP     -0.787000
     26 N26         3.3270   -4.5150   -0.7120 n3        1 0UP     -0.840000
     27 N27         0.6270    0.0290   -0.0370 n3        1 0UP     -0.247000
     28 O28         2.2070   -5.8190    0.8870 o         1 0UP     -0.929000
     29 O29         1.4690   -5.7780   -1.3300 o         1 0UP     -0.929000
     30 O30        -0.8410    5.6840    2.8900 oh        1 0UP     -0.234000
     31 O31        -1.2390    5.6990    0.2330 o         1 0UP     -0.214000
     32 F32        -3.1870   -3.7360    2.1930 f         1 0UP     -0.103000
     33 S33         2.0860   -5.0210   -0.2850 s6        1 0UP      2.825000
     34 H1         -2.8210   -3.6370   -1.9730 ha        1 0UP      0.147500
     35 H2         -0.2440    1.2050    2.8030 ha        1 0UP      0.149333
     36 H3         -0.4730   -3.3470   -1.9980 ha        1 0UP      0.149333
     37 H4         -0.4670    3.3130    3.9630 ha        1 0UP      0.136000
     38 H5         -3.9460   -3.8890    0.1090 ha        1 0UP      0.147500
     39 H6         -0.9560    3.1090   -0.8610 ha        1 0UP      0.149333
     40 H7         -0.3630   -3.5540    2.0610 ha        1 0UP      0.161000
     41 H8          2.0860   -2.1930    2.0340 hc        1 0UP      0.099000
     42 H9          2.8360   -0.9890    1.2800 hc        1 0UP      0.099000
     43 H10         2.0070   -2.2370   -2.0670 hc        1 0UP      0.099500
     44 H11         2.7850   -1.0320   -1.3930 hc        1 0UP      0.099500
     45 H12         3.8370   -3.1850    0.9230 h1        1 0UP      0.096500
     46 H13         4.1440   -2.5370   -0.5390 h1        1 0UP      0.096500
     47 H14         0.8270   -0.1600    1.9980 h1        1 0UP      0.085500
     48 H15         0.0680   -1.3620    1.3300 h1        1 0UP      0.085500
     49 H16        -0.0150   -1.4080   -1.3230 h1        1 0UP      0.071000
     50 H17        -0.2030    0.3980   -2.6650 hc        1 0UP      0.081000
     51 H18         1.0920   -0.3520   -3.2570 hc        1 0UP      0.081000
     52 H19         1.2850    0.9250   -2.2940 hc        1 0UP      0.081000
     53 H20        -3.5690    7.6750    0.0760 hc        1 0UP      0.085167
     54 H21        -4.2840    6.4050    0.7190 hc        1 0UP      0.085167
     55 H22        -2.9800    6.9660    1.3820 hc        1 0UP      0.085167
     56 H23        -1.9400    7.3030   -1.7100 hc        1 0UP      0.085167
     57 H24        -3.3320    6.6040   -2.1340 hc        1 0UP      0.085167
     58 H25        -1.9530    5.8260   -2.3310 hc        1 0UP      0.085167
     59 H26         5.2630   -4.9840   -1.0660 h1        1 0UP      0.080000
     60 H27         4.2550   -6.2470   -1.1970 h1        1 0UP      0.080000
     61 H28         4.3120   -5.1300   -2.3480 h1        1 0UP      0.080000
     62 H29        -0.8940    0.9320   -0.9280 h4        1 0UP      0.080500
     63 H30        -1.3220    0.0660    0.3360 h4        1 0UP      0.080500
     64 H31        -3.0160    4.9390   -0.4130 h1        1 0UP      0.080000
     65 H33        -1.3380    5.6360    3.6080 ho        1 0UP      0.215000
@<TRIPOS>BOND
     1    1    5 1   
     2    1   34 1   
     3    2    8 1   
     4    2   35 1   
     5    3    9 1   
     6    3   36 1   
     7    4   10 1   
     8    4   37 1   
     9    5   38 1   
    10    6   11 1   
    11    6   39 1   
    12    7   12 1   
    13    7   40 1   
    14   10   30 1   
    15   12   32 1   
    16   13   16 1   
    17   13   18 1   
    18   13   41 1   
    19   13   42 1   
    20   14   17 1   
    21   14   18 1   
    22   14   43 1   
    23   14   44 1   
    24   15   18 1   
    25   15   26 1   
    26   15   45 1   
    27   15   46 1   
    28   16   27 1   
    29   16   47 1   
    30   16   48 1   
    31   17   19 1   
    32   17   27 1   
    33   17   49 1   
    34   18   25 1   
    35   19   50 1   
    36   19   51 1   
    37   19   52 1   
    38   20   24 1   
    39   20   53 1   
    40   20   54 1   
    41   20   55 1   
    42   21   24 1   
    43   21   56 1   
    44   21   57 1   
    45   21   58 1   
    46   22   26 1   
    47   22   59 1   
    48   22   60 1   
    49   22   61 1   
    50   23   27 1   
    51   23   62 1   
    52   23   63 1   
    53   24   31 1   
    54   24   64 1   
    55   25   33 1   
    56   26   33 1   
    57   28   33 1   
    58   29   33 1   
    59   30   65 1   
@<TRIPOS>SUBSTRUCTURE
     1 0UP         1 TEMP              0 ****  ****    0 ROOT
