@<TRIPOS>MOLECULE
0UP
   65    64     1     0     0
SMALL
bcc


@<TRIPOS>ATOM
      1 C1         -1.3130   -3.1520    0.1810 c2        1 0UP     -0.048000
      2 C2          1.9190    6.1300    3.6640 ca        1 0UP     -0.097000
      3 C3         -1.3790   -3.7580   -1.1670 c3        1 0UP     -0.189000
      4 C4          2.2110    7.3960    4.1610 ca        1 0UP     -0.154000
      5 C5         -0.8300   -1.9730    0.4340 c1        1 0UP     -0.215000
      6 C6          2.0390    6.9460    1.3880 ca        1 0UP     -0.103000
      7 C7          1.0620   -0.6250    1.0080 c1        1 0UP     -0.184000
      8 C8          1.8260    5.8980    2.2870 ca        1 0UP     -0.098000
      9 C9          2.2370   -0.5150    1.2340 c1        1 0UP      0.030000
     10 C10         2.4180    8.4540    3.2630 ca        1 0UP      0.077000
     11 C11         2.3360    8.2210    1.8740 ca        1 0UP     -0.033000
     12 C12        -0.3080   -0.7900    0.7080 c2        1 0UP      0.242000
     13 C13         3.7460   -1.1480    3.8810 c2        1 0UP     -0.187000
     14 C14         4.2020    3.0760    3.4070 c1        1 0UP     -0.044000
     15 C15         5.5690    0.1280    2.7400 c3        1 0UP     -0.037000
     16 C16         3.1430   -2.3200    3.7080 c2        1 0UP     -0.192000
     17 C17         2.8250    3.4780    0.0980 c2        1 0UP     -0.042000
     18 C18         4.0140   -0.1070    2.8440 c3        1 0UP      0.029000
     19 C19         2.0150    3.8180   -1.1070 c3        1 0UP     -0.239000
     20 C20         0.8150   10.8130    1.2470 c3        1 0UP     -0.231000
     21 C21         2.0940   10.5200   -0.8950 c3        1 0UP     -0.231000
     22 C24         1.5240    9.8350    0.3320 c3        1 0UP      0.026000
     23 N25         3.5380   -0.3870    1.4860 n3        1 0UP     -0.668000
     24 N26         5.9870   -0.0860    1.3760 n3        1 0UP     -0.840000
     25 N27         2.6300    3.7760    1.3300 n2        1 0UP     -0.235000
     26 O30         2.7020    9.6900    3.7840 oh        1 0UP     -0.250000
     27 O31         2.6620    9.2660    1.0210 os        1 0UP     -0.236000
     28 F32        -1.0730    0.3410    0.7120 f         1 0UP     -0.104000
     29 S33         4.7550   -0.3300    0.3290 s6        1 0UP      2.830000
     30 H1         -0.7910   -4.7100   -1.1810 hc        1 0UP      0.091000
     31 H2          1.7550    5.2980    4.3680 ha        1 0UP      0.138000
     32 H3         -2.4420   -3.9960   -1.4220 hc        1 0UP      0.091000
     33 H4          2.2820    7.5840    5.2410 ha        1 0UP      0.152000
     34 H5         -1.7100   -3.7760    1.0040 ha        1 0UP      0.139000
     35 H6          1.9790    6.7770    0.3020 ha        1 0UP      0.143000
     36 H7         -0.9690   -3.0780   -1.9530 hc        1 0UP      0.091000
     37 H8          2.9810   -3.0130    4.5450 ha        1 0UP      0.120500
     38 H9          2.7640   -2.6750    2.7400 ha        1 0UP      0.120500
     39 H10         3.4530    3.6780    3.9440 ha        1 0UP      0.020500
     40 H11         3.5530    0.8750    3.1960 h1        1 0UP      0.169000
     41 H12         6.1110   -0.5710    3.4340 h1        1 0UP      0.109500
     42 H13         5.7770    1.1910    3.0570 h1        1 0UP      0.109500
     43 H14         3.7220    2.8480   -0.1110 h4        1 0UP      0.179000
     44 H15         4.1030   -0.8350    4.8790 ha        1 0UP      0.129000
     45 H16         4.9330    3.7120    2.8850 ha        1 0UP      0.020500
     46 H17         2.6110    3.6270   -2.0320 hc        1 0UP      0.094333
     47 H18         1.0970    3.1780   -1.1400 hc        1 0UP      0.094333
     48 H19         1.6990    4.8910   -1.1030 hc        1 0UP      0.094333
     49 H20         0.5300   10.3080    2.2030 hc        1 0UP      0.087000
     50 H21        -0.1060   11.2000    0.7490 hc        1 0UP      0.087000
     51 H22         1.4820   11.6750    1.4900 hc        1 0UP      0.087000
     52 H23         2.5980    9.7740   -1.5540 hc        1 0UP      0.087000
     53 H24         1.2660   11.0120   -1.4580 hc        1 0UP      0.087000
     54 H25         2.8440   11.2910   -0.5970 hc        1 0UP      0.087000
     55 H26         7.5250   -0.4230    0.0100 h1        1 0UP      0.081333
     56 H27         7.8870   -0.9170    1.7320 h1        1 0UP      0.081333
     57 H28         7.8640    0.8500    1.2810 h1        1 0UP      0.081333
     58 H29         0.6890    4.6420    0.9770 h1        1 0UP      0.091000
     59 H30         1.0260    3.9240    2.6130 h1        1 0UP      0.091000
     60 H31         0.8260    9.0070    0.0300 h1        1 0UP      0.089000
     61 H33         2.8330   10.3000    3.0380 ho        1 0UP      0.235000
     62 O28         4.8830   -1.5480   -0.3500 o         1 0UP     -0.927000
     63 C22         7.3800   -0.1460    1.0890 c3        1 0UP     -0.035000
     64 C23         1.4820    4.5290    1.7750 c3        1 0UP     -0.064000
     65 O29         4.5680    0.7750   -0.5190 o         1 0UP     -0.927000
@<TRIPOS>BOND
     1    1    3 1   
     2    1    5 1   
     3    1   34 1   
     4    2    4 1   
     5    2    8 1   
     6    2   31 1   
     7    3   30 1   
     8    3   32 1   
     9    3   36 1   
    10    4   10 1   
    11    4   33 1   
    12    5   12 1   
    13    6    8 1   
    14    6   11 1   
    15    6   35 1   
    16    7    9 1   
    17    7   12 1   
    18    8   64 1   
    19    9   23 1   
    20   10   11 1   
    21   10   26 1   
    22   11   27 1   
    23   12   28 1   
    24   13   16 1   
    25   13   18 1   
    26   13   44 1   
    27   14   39 1   
    28   14   45 1   
    29   15   18 1   
    30   15   24 1   
    31   15   41 1   
    32   15   42 1   
    33   16   37 1   
    34   16   38 1   
    35   17   19 1   
    36   17   25 1   
    37   17   43 1   
    38   18   23 1   
    39   18   40 1   
    40   19   46 1   
    41   19   47 1   
    42   19   48 1   
    43   20   22 1   
    44   20   49 1   
    45   20   50 1   
    46   20   51 1   
    47   21   22 1   
    48   21   52 1   
    49   21   53 1   
    50   21   54 1   
    51   22   27 1   
    52   22   60 1   
    53   23   29 1   
    54   24   29 1   
    55   24   63 1   
    56   25   64 1   
    57   26   61 1   
    58   29   62 1   
    59   29   65 1   
    60   55   63 1   
    61   56   63 1   
    62   57   63 1   
    63   58   64 1   
    64   59   64 1   
@<TRIPOS>SUBSTRUCTURE
     1 0UP         1 TEMP              0 ****  ****    0 ROOT
