@<TRIPOS>MOLECULE
0UP
   65    68     1     0     0
SMALL
bcc


@<TRIPOS>ATOM
      1 C1          3.0430    2.9720    1.6800 ca        1 0UP     -0.105000
      2 C2         -3.1940    1.9460    0.6600 ca        1 0UP     -0.100000
      3 C3          3.2040    1.6140    1.4230 ca        1 0UP     -0.142000
      4 C4         -4.3640    2.1970   -0.0500 ca        1 0UP     -0.154000
      5 C5          2.5830    3.8410    0.6960 ca        1 0UP     -0.159000
      6 C6         -3.4900   -0.4430    0.3870 ca        1 0UP     -0.094000
      7 C7          2.4460    1.9620   -0.8630 ca        1 0UP     -0.156000
      8 C8         -2.7530    0.6360    0.8850 ca        1 0UP     -0.116300
      9 C9          2.9060    1.0900    0.1440 ca        1 0UP      0.166600
     10 C10        -5.1100    1.1190   -0.5480 ca        1 0UP      0.122100
     11 C11        -4.6630   -0.2020   -0.3320 ca        1 0UP      0.005100
     12 C12         2.2850    3.3290   -0.5800 ca        1 0UP      0.127900
     13 C13         0.8280   -0.9490   -0.9570 c3        1 0UP     -0.077400
     14 C14         1.6160   -1.6900    1.2890 c3        1 0UP     -0.084400
     15 C15         2.7330   -2.5790   -0.7880 c3        1 0UP      0.195800
     16 C16        -0.1510   -0.0210   -0.2470 c3        1 0UP      0.157800
     17 C17         0.6460   -0.6880    1.9330 c3        1 0UP      0.176500
     18 C18         2.0740   -1.2860   -0.1250 c3        1 0UP      0.248200
     19 C19         0.3040   -1.2040    3.3310 c3        1 0UP     -0.096100
     20 C20        -7.4440   -1.3440    0.2920 c3        1 0UP     -0.112600
     21 C21        -6.3540   -3.3630   -0.7300 c3        1 0UP     -0.112600
     22 C24        -6.1340   -2.0390   -0.0230 c3        1 0UP      0.137100
     23 N25         3.1300   -0.2730   -0.1320 nh        1 0UP     -0.690900
     24 N26         4.1520   -2.3780   -0.9070 n3        1 0UP     -0.820500
     25 N27        -0.5360   -0.4830    1.0810 n3        1 0UP     -0.722600
     26 O30        -6.2600    1.4010   -1.2410 oh        1 0UP     -0.495100
     27 O31        -5.3650   -1.2310   -0.9430 os        1 0UP     -0.352900
     28 F32         1.8390    4.1620   -1.5510 f         1 0UP     -0.136900
     29 S33         4.6420   -0.8650   -0.4970 s6        1 0UP      1.594800
     30 H1          3.2880    3.3660    2.6790 ha        1 0UP      0.143000
     31 H2         -2.6110    2.7940    1.0500 ha        1 0UP      0.136000
     32 H3          3.5830    0.9510    2.2170 ha        1 0UP      0.155000
     33 H4         -4.7140    3.2240   -0.2280 ha        1 0UP      0.153000
     34 H5          2.4580    4.9140    0.8970 ha        1 0UP      0.153000
     35 H6         -3.1490   -1.4760    0.5490 ha        1 0UP      0.155000
     36 H7          2.2190    1.5930   -1.8750 ha        1 0UP      0.160000
     37 H8          0.3050   -1.9150   -1.1890 hc        1 0UP      0.059200
     38 H9          1.1200   -0.4730   -1.9290 hc        1 0UP      0.059200
     39 H10         2.5030   -1.8060    1.9640 hc        1 0UP      0.059700
     40 H11         1.1030   -2.6860    1.2180 hc        1 0UP      0.059700
     41 H12         2.5140   -3.4820   -0.1560 h1        1 0UP      0.056700
     42 H13         2.2810   -2.7500   -1.8060 h1        1 0UP      0.056700
     43 H14         0.2950    1.0180   -0.2100 h1        1 0UP      0.046700
     44 H15        -1.0910    0.0340   -0.8680 h1        1 0UP      0.046700
     45 H16         1.2030    0.2940    2.0620 h1        1 0UP      0.032700
     46 H17         1.2460   -1.5070    3.8490 hc        1 0UP      0.041367
     47 H18        -0.1850   -0.4070    3.9390 hc        1 0UP      0.041367
     48 H19        -0.3750   -2.0890    3.2810 hc        1 0UP      0.041367
     49 H20        -7.2470   -0.3150    0.6830 hc        1 0UP      0.047533
     50 H21        -8.0700   -1.2560   -0.6280 hc        1 0UP      0.047533
     51 H22        -8.0080   -1.9250    1.0590 hc        1 0UP      0.047533
     52 H23        -6.8780   -3.2020   -1.7020 hc        1 0UP      0.047533
     53 H24        -5.3750   -3.8570   -0.9350 hc        1 0UP      0.047533
     54 H25        -6.9750   -4.0270   -0.0840 hc        1 0UP      0.047533
     55 H26         4.6260   -3.7640   -2.4150 h1        1 0UP      0.040700
     56 H27         6.0270   -3.1070   -1.4420 h1        1 0UP      0.040700
     57 H28         4.8900   -4.3350   -0.7030 h1        1 0UP      0.040700
     58 H29        -1.0650    1.3910    1.9870 h1        1 0UP      0.041200
     59 H30        -1.8520   -0.1090    2.6620 h1        1 0UP      0.041200
     60 H31        -5.5370   -2.1930    0.9190 h1        1 0UP      0.050700
     61 H33        -6.6420    0.5540   -1.5290 ho        1 0UP      0.436000
     62 O28         5.2120   -0.1960   -1.5920 o         1 0UP     -0.649800
     63 C22         4.9570   -3.4460   -1.3890 c3        1 0UP      0.242100
     64 C23        -1.5210    0.3950    1.7070 c3        1 0UP      0.216100
     65 O29         5.4620   -0.8880    0.6440 o         1 0UP     -0.649800
@<TRIPOS>BOND
     1    1    3 ar  
     2    1    5 ar  
     3    1   30 1   
     4    2    4 ar  
     5    2    8 ar  
     6    2   31 1   
     7    3    9 ar  
     8    3   32 1   
     9    4   10 ar  
    10    4   33 1   
    11    5   12 ar  
    12    5   34 1   
    13    6    8 ar  
    14    6   11 ar  
    15    6   35 1   
    16    7    9 ar  
    17    7   12 ar  
    18    7   36 1   
    19    8   64 1   
    20    9   23 1   
    21   10   11 ar  
    22   10   26 1   
    23   11   27 1   
    24   12   28 1   
    25   13   16 1   
    26   13   18 1   
    27   13   37 1   
    28   13   38 1   
    29   14   17 1   
    30   14   18 1   
    31   14   39 1   
    32   14   40 1   
    33   15   18 1   
    34   15   24 1   
    35   15   41 1   
    36   15   42 1   
    37   16   25 1   
    38   16   43 1   
    39   16   44 1   
    40   17   19 1   
    41   17   25 1   
    42   17   45 1   
    43   18   23 1   
    44   19   46 1   
    45   19   47 1   
    46   19   48 1   
    47   20   22 1   
    48   20   49 1   
    49   20   50 1   
    50   20   51 1   
    51   21   22 1   
    52   21   52 1   
    53   21   53 1   
    54   21   54 1   
    55   22   27 1   
    56   22   60 1   
    57   23   29 1   
    58   24   29 1   
    59   24   63 1   
    60   25   64 1   
    61   26   61 1   
    62   29   62 2   
    63   29   65 2   
    64   55   63 1   
    65   56   63 1   
    66   57   63 1   
    67   58   64 1   
    68   59   64 1   
@<TRIPOS>SUBSTRUCTURE
     1 0UP         1 TEMP              0 ****  ****    0 ROOT
