@<TRIPOS>MOLECULE
0UP
   65    66     1     0     0
SMALL
bcc


@<TRIPOS>ATOM
      1 C1         -0.4840    0.2990    4.0450 c3        1 0UP     -0.180000
      2 C2         -0.7270    4.3110    1.6100 ca        1 0UP     -0.110000
      3 C3         -1.4830    1.2720    3.6540 c1        1 0UP     -0.041000
      4 C4         -0.9560    4.9010    2.8490 ca        1 0UP     -0.158000
      5 C5          0.9120    0.6050    3.8190 cu        1 0UP     -0.130000
      6 C6          1.2330    5.6900    1.2650 ca        1 0UP     -0.091000
      7 C7          2.0390    0.5190    2.9130 cu        1 0UP     -0.062000
      8 C8          0.3610    4.6940    0.8170 ca        1 0UP     -0.103000
      9 C9          2.5680    0.1160    1.7610 c2        1 0UP     -0.079000
     10 C10        -0.0760    5.8910    3.3100 ca        1 0UP      0.073000
     11 C11         1.0150    6.2880    2.5100 ca        1 0UP     -0.038000
     12 C12         2.0870    1.1180    4.2170 cu        1 0UP      0.104000
     13 C13         3.8150    2.3770    0.1070 c2        1 0UP     -0.192000
     14 C14         2.2740    4.7140   -3.0350 c3        1 0UP     -0.225500
     15 C15         5.9810    1.3050    0.7190 c3        1 0UP      0.003000
     16 C16         2.3350    2.5360    0.0290 c3        1 0UP     -0.028000
     17 C17         2.1630    3.4090   -2.2430 c3        1 0UP     -0.020000
     18 C18         4.4440    1.3650    0.7300 c2        1 0UP     -0.013000
     19 C19         1.1580    2.4970   -2.9500 c3        1 0UP     -0.225500
     20 C20         4.0080    8.1350    3.3410 c1        1 0UP     -0.025000
     21 C21         3.0630    6.4410    4.8180 c3        1 0UP     -0.213000
     22 C24         3.1270    6.9700    3.3920 c3        1 0UP     -0.066000
     23 N25         3.9170    0.2530    1.4130 n3        1 0UP     -0.701000
     24 N26         6.3830    0.0750    1.3590 n3        1 0UP     -0.840000
     25 N27         1.9110    3.6470   -0.8180 n3        1 0UP     -0.262000
     26 O30        -0.3220    6.4430    4.5430 oh        1 0UP     -0.249000
     27 O31         1.7950    7.3450    2.9490 os        1 0UP     -0.267000
     28 F32         2.8120    1.7250    5.1170 f         1 0UP     -0.015000
     29 S33         5.1080   -0.8330    1.8730 s6        1 0UP      2.819000
     30 H1         -0.7530   -0.6660    3.5100 hc        1 0UP      0.172000
     31 H2         -1.4220    3.5370    1.2490 ha        1 0UP      0.137000
     32 H3         -1.1370    2.2250    3.2230 ha        1 0UP      0.055000
     33 H4         -1.8150    4.6080    3.4700 ha        1 0UP      0.156000
     34 H5         -0.6650    0.0940    5.1470 hc        1 0UP      0.172000
     35 H6          2.0860    6.0090    0.6480 ha        1 0UP      0.155000
     36 H7          1.9380   -0.3820    0.9980 h4        1 0UP      0.155000
     37 H8          1.9460    2.7320    1.0730 h1        1 0UP      0.085000
     38 H9          1.8790    1.5580   -0.3150 h1        1 0UP      0.085000
     39 H10         1.2810    5.2110   -3.1420 hc        1 0UP      0.078500
     40 H11         2.9760    5.4250   -2.5380 hc        1 0UP      0.078500
     41 H12         6.3940    2.1970    1.2690 h1        1 0UP      0.103500
     42 H13         6.3490    1.3430   -0.3440 h1        1 0UP      0.103500
     43 H14         3.1750    2.9020   -2.2990 h1        1 0UP      0.097000
     44 H15         4.4320    3.1590   -0.3670 ha        1 0UP      0.146000
     45 H16         2.6630    4.4800   -4.0550 hc        1 0UP      0.078500
     46 H17         1.5120    2.2960   -3.9890 hc        1 0UP      0.078500
     47 H18         1.0570    1.5220   -2.4160 hc        1 0UP      0.078500
     48 H19         0.1530    2.9780   -3.0060 hc        1 0UP      0.078500
     49 H20         3.5370    9.0950    3.0750 ha        1 0UP      0.063000
     50 H21         5.0370    7.9760    1.3780 ha        1 0UP      0.013000
     51 H22         4.4060    7.9900    1.1190 ha        1 0UP      0.013000
     52 H23         2.3040    5.6220    4.8700 hc        1 0UP      0.095333
     53 H24         4.0610    6.0490    5.1230 hc        1 0UP      0.095333
     54 H25         2.7570    7.2500    5.5230 hc        1 0UP      0.095333
     55 H26         7.8960   -1.1740    2.0510 h1        1 0UP      0.080667
     56 H27         8.2600   -0.2940    0.4900 h1        1 0UP      0.080667
     57 H28         8.2860    0.6110    2.0730 h1        1 0UP      0.080667
     58 H29         0.2640    4.8470   -1.3090 h1        1 0UP      0.082000
     59 H30        -0.1810    3.2110   -0.6450 h1        1 0UP      0.082000
     60 H31         3.5340    6.1740    2.7010 h1        1 0UP      0.140000
     61 H33         0.3440    7.1360    4.6900 ho        1 0UP      0.234000
     62 O28         5.1300   -1.0080    3.2650 o         1 0UP     -0.924000
     63 C22         7.7690   -0.2050    1.4980 c3        1 0UP     -0.033000
     64 C23         0.5460    4.0710   -0.5370 c3        1 0UP     -0.025000
     65 O29         5.0070   -2.0310    1.1530 o         1 0UP     -0.924000
@<TRIPOS>BOND
     1    1    3 1   
     2    1    5 1   
     3    1   30 1   
     4    1   34 1   
     5    2    4 1   
     6    2    8 1   
     7    2   31 1   
     8    3   32 1   
     9    4   10 1   
    10    4   33 1   
    11    5    7 1   
    12    5   12 1   
    13    6    8 1   
    14    6   11 1   
    15    6   35 1   
    16    7    9 1   
    17    7   12 1   
    18    8   64 1   
    19    9   23 1   
    20    9   36 1   
    21   10   11 1   
    22   10   26 1   
    23   11   27 1   
    24   12   28 1   
    25   13   16 1   
    26   13   18 1   
    27   13   44 1   
    28   14   17 1   
    29   14   39 1   
    30   14   40 1   
    31   14   45 1   
    32   15   18 1   
    33   15   24 1   
    34   15   41 1   
    35   15   42 1   
    36   16   25 1   
    37   16   37 1   
    38   16   38 1   
    39   17   19 1   
    40   17   25 1   
    41   17   43 1   
    42   18   23 1   
    43   19   46 1   
    44   19   47 1   
    45   19   48 1   
    46   20   22 1   
    47   20   49 1   
    48   21   22 1   
    49   21   52 1   
    50   21   53 1   
    51   21   54 1   
    52   22   27 1   
    53   22   60 1   
    54   23   29 1   
    55   24   29 1   
    56   24   63 1   
    57   25   64 1   
    58   26   61 1   
    59   29   62 1   
    60   29   65 1   
    61   50   51 1   
    62   55   63 1   
    63   56   63 1   
    64   57   63 1   
    65   58   64 1   
    66   59   64 1   
@<TRIPOS>SUBSTRUCTURE
     1 0UP         1 TEMP              0 ****  ****    0 ROOT
