@<TRIPOS>MOLECULE
0UQ
   64    67     1     0     0
SMALL
bcc


@<TRIPOS>ATOM
      1 C1          0.3820    0.0160    0.3460 c3        1 0UQ     -0.078400
      2 C2          1.9030    0.0980    0.3860 c3        1 0UQ      0.157800
      3 N1          2.4580   -0.0650    1.7230 n3        1 0UQ     -0.719600
      4 C3          2.0310   -1.3410    2.3200 c3        1 0UQ      0.177500
      5 C4          0.4990   -1.4390    2.3680 c3        1 0UQ     -0.083400
      6 C5         -0.1830   -1.2540    1.0000 c3        1 0UQ      0.249200
      7 C6          2.5540   -1.5480    3.7420 c3        1 0UQ     -0.096100
      8 N2         -0.1570   -2.4520    0.1590 nh        1 0UQ     -0.690900
      9 C7         -1.7280   -0.9770    1.2840 c3        1 0UQ      0.195800
     10 C8          0.9990   -2.9150   -0.4990 ca        1 0UQ      0.165600
     11 C9          1.3650   -2.4070   -1.7650 ca        1 0UQ     -0.132000
     12 C10         2.4780   -2.9140   -2.4310 ca        1 0UQ     -0.105000
     13 C11         3.2500   -3.9260   -1.8720 ca        1 0UQ     -0.158000
     14 C12         2.8930   -4.4410   -0.6130 ca        1 0UQ      0.126900
     15 C13         1.7740   -3.9440    0.0760 ca        1 0UQ     -0.163000
     16 F1          3.6340   -5.4280   -0.0540 f         1 0UQ     -0.137900
     17 C14         3.9090    0.0930    1.7450 c3        1 0UQ      0.209100
     18 C15         4.4110    1.3740    1.1430 ca        1 0UQ     -0.058300
     19 C16         3.8930    2.5990    1.5600 ca        1 0UQ     -0.143000
     20 C17         4.4200    3.7920    1.0260 ca        1 0UQ      0.130100
     21 C18         5.4610    3.7560    0.0910 ca        1 0UQ     -0.207000
     22 C19         5.9660    2.5190   -0.3130 ca        1 0UQ     -0.097000
     23 C20         5.4490    1.3350    0.2030 ca        1 0UQ     -0.165000
     24 O1          3.8130    4.9350    1.5060 os        1 0UQ     -0.332900
     25 C21         4.2930    6.2000    1.0160 c3        1 0UQ      0.140100
     26 C22         3.1740    7.1840    1.3200 c3        1 0UQ     -0.110600
     27 C23         5.5760    6.5900    1.7220 c3        1 0UQ     -0.110600
     28 S1         -1.6270   -3.2150    0.0010 s6        1 0UQ      1.594800
     29 N3         -2.5060   -2.0910    0.8140 n3        1 0UQ     -0.820500
     30 O2         -1.6370   -4.4490    0.6720 o         1 0UQ     -0.649800
     31 C24        -3.9030   -2.1130    1.0790 c3        1 0UQ      0.242100
     32 O3         -2.0220   -3.2980   -1.3450 o         1 0UQ     -0.649800
     33 H1         -0.0420    0.8980    0.8980 hc        1 0UQ      0.058700
     34 H2          0.0530    0.0880   -0.7230 hc        1 0UQ      0.058700
     35 H3          2.2060    1.1220    0.0210 h1        1 0UQ      0.045700
     36 H4          2.3270   -0.6610   -0.3360 h1        1 0UQ      0.045700
     37 H6          2.4120   -2.2070    1.6900 h1        1 0UQ      0.032700
     38 H7          0.1150   -0.6400    3.0580 hc        1 0UQ      0.060200
     39 H8          0.2250   -2.4340    2.8050 hc        1 0UQ      0.060200
     40 H9          3.6530   -1.7440    3.7340 hc        1 0UQ      0.042367
     41 H10         2.0470   -2.4360    4.1920 hc        1 0UQ      0.042367
     42 H11         2.3500   -0.6580    4.3830 hc        1 0UQ      0.042367
     43 H12        -1.8890   -0.8220    2.3860 h1        1 0UQ      0.057200
     44 H13        -2.0440   -0.0350    0.7540 h1        1 0UQ      0.057200
     45 H14         0.7650   -1.6130   -2.2360 ha        1 0UQ      0.150000
     46 H15         2.7450   -2.5110   -3.4210 ha        1 0UQ      0.143000
     47 H16         4.1260   -4.3300   -2.3990 ha        1 0UQ      0.152000
     48 H17         1.5060   -4.3780    1.0530 ha        1 0UQ      0.166000
     49 H18         4.2240    0.0920    2.8290 h1        1 0UQ      0.044700
     50 H19         4.4250   -0.7770    1.2380 h1        1 0UQ      0.044700
     51 H20         3.0780    2.6480    2.2960 ha        1 0UQ      0.161000
     52 H21         5.8890    4.6770   -0.3250 ha        1 0UQ      0.137000
     53 H22         6.7840    2.4850   -1.0480 ha        1 0UQ      0.131000
     54 H23         5.8580    0.3680   -0.1260 ha        1 0UQ      0.133000
     55 H24         4.4520    6.1410   -0.0960 h1        1 0UQ      0.046700
     56 H25         2.9660    7.2080    2.4160 hc        1 0UQ      0.048033
     57 H26         2.2410    6.8820    0.7890 hc        1 0UQ      0.048033
     58 H27         3.4800    8.2010    0.9820 hc        1 0UQ      0.048033
     59 H28         5.9340    7.5740    1.3370 hc        1 0UQ      0.048033
     60 H29         5.4020    6.6730    2.8220 hc        1 0UQ      0.048033
     61 H30         6.3670    5.8210    1.5490 hc        1 0UQ      0.048033
     62 H31        -4.4100   -1.2240    0.6130 h1        1 0UQ      0.040700
     63 H32        -4.3460   -3.0510    0.6480 h1        1 0UQ      0.040700
     64 H33        -4.0990   -2.0920    2.1860 h1        1 0UQ      0.040700
@<TRIPOS>BOND
     1    1    2 1   
     2    1    6 1   
     3    1   33 1   
     4    1   34 1   
     5    2    3 1   
     6    2   35 1   
     7    2   36 1   
     8    3    4 1   
     9    3   17 1   
    10    4    5 1   
    11    4    7 1   
    12    4   37 1   
    13    5    6 1   
    14    5   38 1   
    15    5   39 1   
    16    6    8 1   
    17    6    9 1   
    18    7   40 1   
    19    7   41 1   
    20    7   42 1   
    21    8   10 1   
    22    8   28 1   
    23    9   29 1   
    24    9   43 1   
    25    9   44 1   
    26   10   11 ar  
    27   10   15 ar  
    28   11   12 ar  
    29   11   45 1   
    30   12   13 ar  
    31   12   46 1   
    32   13   14 ar  
    33   13   47 1   
    34   14   15 ar  
    35   14   16 1   
    36   15   48 1   
    37   17   18 1   
    38   17   49 1   
    39   17   50 1   
    40   18   19 ar  
    41   18   23 ar  
    42   19   20 ar  
    43   19   51 1   
    44   20   21 ar  
    45   20   24 1   
    46   21   22 ar  
    47   21   52 1   
    48   22   23 ar  
    49   22   53 1   
    50   23   54 1   
    51   24   25 1   
    52   25   26 1   
    53   25   27 1   
    54   25   55 1   
    55   26   56 1   
    56   26   57 1   
    57   26   58 1   
    58   27   59 1   
    59   27   60 1   
    60   27   61 1   
    61   28   29 1   
    62   28   30 2   
    63   28   32 2   
    64   29   31 1   
    65   31   62 1   
    66   31   63 1   
    67   31   64 1   
@<TRIPOS>SUBSTRUCTURE
     1 0UQ         1 TEMP              0 ****  ****    0 ROOT
