@<TRIPOS>MOLECULE
0UQ
   64    67     1     0     0
SMALL
bcc


@<TRIPOS>ATOM
      1 C1          0.3790    0.0150    0.3560 c3        1 0UQ     -0.078400
      2 C2          1.9000    0.1010    0.3860 c3        1 0UQ      0.157800
      3 N1          2.4650   -0.0700    1.7180 n3        1 0UQ     -0.719600
      4 C3          2.0450   -1.3500    2.3100 c3        1 0UQ      0.177500
      5 C4          0.5140   -1.4520    2.3690 c3        1 0UQ     -0.083400
      6 C5         -0.1790   -1.2610    1.0060 c3        1 0UQ      0.249200
      7 C6          2.5790   -1.5640    3.7270 c3        1 0UQ     -0.096100
      8 N2         -0.1550   -2.4530    0.1580 nh        1 0UQ     -0.690900
      9 C7         -1.7220   -0.9890    1.3030 c3        1 0UQ      0.195800
     10 C8          0.9970   -2.9090   -0.5100 ca        1 0UQ      0.165600
     11 C9          1.3530   -2.3930   -1.7760 ca        1 0UQ     -0.132000
     12 C10         2.4620   -2.8940   -2.4530 ca        1 0UQ     -0.105000
     13 C11         3.2410   -3.9070   -1.9050 ca        1 0UQ     -0.158000
     14 C12         2.8930   -4.4300   -0.6470 ca        1 0UQ      0.126900
     15 C13         1.7780   -3.9400    0.0530 ca        1 0UQ     -0.163000
     16 F1          3.6410   -5.4190   -0.0990 f         1 0UQ     -0.137900
     17 C14         3.9160    0.0920    1.7300 c3        1 0UQ      0.209100
     18 C15         4.4110    1.3780    1.1330 ca        1 0UQ     -0.058300
     19 C16         3.8930    2.5990    1.5600 ca        1 0UQ     -0.143000
     20 C17         4.4140    3.7970    1.0300 ca        1 0UQ      0.130100
     21 C18         5.4470    3.7680    0.0870 ca        1 0UQ     -0.207000
     22 C19         5.9520    2.5350   -0.3280 ca        1 0UQ     -0.097000
     23 C20         5.4420    1.3460    0.1840 ca        1 0UQ     -0.165000
     24 O1          3.8080    4.9350    1.5210 os        1 0UQ     -0.332900
     25 C21         4.2810    6.2040    1.0360 c3        1 0UQ      0.140100
     26 C22         3.1630    7.1840    1.3540 c3        1 0UQ     -0.110600
     27 C23         5.5690    6.5920    1.7350 c3        1 0UQ     -0.110600
     28 S1         -1.6250   -3.2190    0.0050 s6        1 0UQ      1.594800
     29 N3         -2.5000   -2.1020    0.8320 n3        1 0UQ     -0.820500
     30 O2         -1.6280   -4.4570    0.6680 o         1 0UQ     -0.649800
     31 C24        -3.8950   -2.1280    1.1060 c3        1 0UQ      0.242100
     32 O3         -2.0290   -3.2940   -1.3380 o         1 0UQ     -0.649800
     33 H1         -0.0430    0.8930    0.9170 hc        1 0UQ      0.058700
     34 H2          0.0430    0.0930   -0.7100 hc        1 0UQ      0.058700
     35 H3          2.1980    1.1270    0.0250 h1        1 0UQ      0.045700
     36 H4          2.3210   -0.6530   -0.3440 h1        1 0UQ      0.045700
     37 H6          2.4240   -2.2110    1.6720 h1        1 0UQ      0.032700
     38 H7          0.2450   -2.4500    2.8020 hc        1 0UQ      0.060200
     39 H8          0.1330   -0.6580    3.0650 hc        1 0UQ      0.060200
     40 H9          2.0780   -2.4560    4.1750 hc        1 0UQ      0.042033
     41 H10         2.3770   -0.6780    4.3750 hc        1 0UQ      0.042033
     42 H11         3.6780   -1.7570    3.7110 hc        1 0UQ      0.042033
     43 H12        -2.0440   -0.0440    0.7810 h1        1 0UQ      0.057200
     44 H13        -1.8750   -0.8410    2.4070 h1        1 0UQ      0.057200
     45 H14         0.7480   -1.5980   -2.2390 ha        1 0UQ      0.150000
     46 H15         2.7220   -2.4850   -3.4420 ha        1 0UQ      0.143000
     47 H16         4.1140   -4.3060   -2.4410 ha        1 0UQ      0.152000
     48 H17         1.5180   -4.3800    1.0290 ha        1 0UQ      0.166000
     49 H18         4.4300   -0.7740    1.2150 h1        1 0UQ      0.044700
     50 H19         4.2390    0.0860    2.8130 h1        1 0UQ      0.044700
     51 H20         3.0830    2.6420    2.3030 ha        1 0UQ      0.161000
     52 H21         5.8710    4.6930   -0.3270 ha        1 0UQ      0.137000
     53 H22         6.7650    2.5070   -1.0690 ha        1 0UQ      0.131000
     54 H23         5.8500    0.3830   -0.1530 ha        1 0UQ      0.133000
     55 H24         4.4330    6.1520   -0.0770 h1        1 0UQ      0.046700
     56 H25         2.9630    7.2010    2.4520 hc        1 0UQ      0.048033
     57 H26         3.4650    8.2040    1.0190 hc        1 0UQ      0.048033
     58 H27         2.2270    6.8830    0.8280 hc        1 0UQ      0.048033
     59 H28         5.9220    7.5790    1.3530 hc        1 0UQ      0.048033
     60 H29         6.3600    5.8260    1.5520 hc        1 0UQ      0.048033
     61 H30         5.4030    6.6680    2.8370 hc        1 0UQ      0.048033
     62 H31        -4.0830   -2.1160    2.2150 h1        1 0UQ      0.040700
     63 H32        -4.4080   -1.2380    0.6490 h1        1 0UQ      0.040700
     64 H33        -4.3390   -3.0650    0.6730 h1        1 0UQ      0.040700
@<TRIPOS>BOND
     1    1    2 1   
     2    1    6 1   
     3    1   33 1   
     4    1   34 1   
     5    2    3 1   
     6    2   35 1   
     7    2   36 1   
     8    3    4 1   
     9    3   17 1   
    10    4    5 1   
    11    4    7 1   
    12    4   37 1   
    13    5    6 1   
    14    5   38 1   
    15    5   39 1   
    16    6    8 1   
    17    6    9 1   
    18    7   40 1   
    19    7   41 1   
    20    7   42 1   
    21    8   10 1   
    22    8   28 1   
    23    9   29 1   
    24    9   43 1   
    25    9   44 1   
    26   10   11 ar  
    27   10   15 ar  
    28   11   12 ar  
    29   11   45 1   
    30   12   13 ar  
    31   12   46 1   
    32   13   14 ar  
    33   13   47 1   
    34   14   15 ar  
    35   14   16 1   
    36   15   48 1   
    37   17   18 1   
    38   17   49 1   
    39   17   50 1   
    40   18   19 ar  
    41   18   23 ar  
    42   19   20 ar  
    43   19   51 1   
    44   20   21 ar  
    45   20   24 1   
    46   21   22 ar  
    47   21   52 1   
    48   22   23 ar  
    49   22   53 1   
    50   23   54 1   
    51   24   25 1   
    52   25   26 1   
    53   25   27 1   
    54   25   55 1   
    55   26   56 1   
    56   26   57 1   
    57   26   58 1   
    58   27   59 1   
    59   27   60 1   
    60   27   61 1   
    61   28   29 1   
    62   28   30 2   
    63   28   32 2   
    64   29   31 1   
    65   31   62 1   
    66   31   63 1   
    67   31   64 1   
@<TRIPOS>SUBSTRUCTURE
     1 0UQ         1 TEMP              0 ****  ****    0 ROOT
