@<TRIPOS>MOLECULE
0UQ
   64    61     1     0     0
SMALL
bcc


@<TRIPOS>ATOM
      1 C1         -2.2630    0.1040   -1.6010 c3        1 0UQ     -0.157000
      2 C2         -0.7440    0.1260   -1.5330 c3        1 0UQ     -0.079000
      3 N1         -0.2310    0.1130   -0.1170 n3        1 0UQ     -0.245000
      4 C3         -0.8210   -1.0010    0.7110 c3        1 0UQ     -0.020000
      5 C4         -2.3310   -1.0280    0.6550 c3        1 0UQ     -0.162000
      6 C5         -2.8580   -1.0190   -0.7740 c3        1 0UQ      0.091000
      7 C6         -0.4000   -0.8260    2.1150 c3        1 0UQ     -0.214000
      8 N2         -2.5730   -2.3660   -1.4420 n3        1 0UQ     -0.787000
      9 C7         -4.2810   -0.8890   -0.7520 c3        1 0UQ     -0.041000
     10 C8         -1.2540   -2.9580   -1.6670 c1        1 0UQ      0.084000
     11 C9         -0.6240   -2.8030   -2.9030 c1        1 0UQ     -0.118500
     12 C10         0.5530   -3.5020   -3.1790 c1        1 0UQ     -0.118500
     13 C11         1.0960   -4.3480   -2.2280 c1        1 0UQ     -0.158000
     14 C12         0.4690   -4.5030   -0.9950 c1        1 0UQ      0.092000
     15 C13        -0.7090   -3.8050   -0.7160 c1        1 0UQ     -0.163000
     16 F1          0.9530   -5.3640   -0.1100 f         1 0UQ     -0.103000
     17 C14         1.2450   -0.0030   -0.1240 c3        1 0UQ     -0.035000
     18 C15         1.8700    1.4060   -0.1280 c2        1 0UQ     -0.051000
     19 C16         2.1130    2.0610    1.0790 c2        1 0UQ     -0.143000
     20 C17         2.8200    3.2660    1.0910 c1        1 0UQ      0.085000
     21 C18         3.2790    3.8100   -0.0990 c2        1 0UQ     -0.207000
     22 C19         3.0360    3.1550   -1.3080 c1        1 0UQ     -0.097000
     23 C20         2.3330    1.9550   -1.3210 c1        1 0UQ     -0.165000
     24 O1          2.9810    4.0010    2.3330 o         1 0UQ     -0.216000
     25 C21         4.2860    4.5900    2.5010 c3        1 0UQ      0.029000
     26 C22         4.1340    6.0380    2.9790 c3        1 0UQ     -0.228500
     27 C23         5.0780    3.7890    3.5410 c3        1 0UQ     -0.228500
     28 S1         -4.0790   -3.1840   -1.5410 s4        1 0UQ      2.041800
     29 N3         -4.8920   -2.3750   -0.7060 n2        1 0UQ     -0.840000
     30 O2         -3.9680   -4.5040   -1.0050 o         1 0UQ     -0.537400
     31 C24        -6.1610   -2.7620   -0.1100 c3        1 0UQ     -0.034000
     32 O3         -4.5770   -3.2390   -2.8880 o         1 0UQ     -0.537400
     33 H1         -2.5400   -0.0110   -2.5440 hc        1 0UQ      0.098000
     34 H2         -2.6120    0.9690   -1.2670 hc        1 0UQ      0.098000
     35 H3         -0.3890   -0.6710   -2.0110 h1        1 0UQ      0.085000
     36 H4         -0.4220    0.9270   -1.9750 h1        1 0UQ      0.085000
     37 H6         -0.4770   -1.8580    0.3820 h1        1 0UQ      0.072000
     38 H7         -2.6830   -0.2370    1.1300 hc        1 0UQ      0.099500
     39 H8         -2.6520   -1.8390    1.1070 hc        1 0UQ      0.099500
     40 H9          0.4560   -1.2480    2.2490 hc        1 0UQ      0.081667
     41 H10        -1.0710   -1.2410    2.7160 hc        1 0UQ      0.081667
     42 H11        -0.3280    0.1250    2.3150 hc        1 0UQ      0.081667
     43 H12        -4.5590   -0.3890    0.0430 h1        1 0UQ      0.096500
     44 H13        -4.5830   -0.4310   -1.5530 h1        1 0UQ      0.096500
     45 H14        -1.0060   -2.2070   -3.5740 ha        1 0UQ      0.146500
     46 H15         0.9940   -3.3930   -4.0470 ha        1 0UQ      0.146500
     47 H16         1.9260   -4.8400   -2.4240 ha        1 0UQ      0.152000
     48 H17        -1.1540   -3.9160    0.1600 ha        1 0UQ      0.166000
     49 H18         1.5410   -0.4900    0.6800 h1        1 0UQ      0.084000
     50 H19         1.5280   -0.4840   -0.9160 h1        1 0UQ      0.084000
     51 H20         1.7840    1.6720    1.9280 ha        1 0UQ      0.161000
     52 H21         3.7770    4.6590   -0.0920 ha        1 0UQ      0.137000
     53 H22         3.3610    3.5400   -2.1460 ha        1 0UQ      0.131000
     54 H23         2.1610    1.4910   -2.1790 ha        1 0UQ      0.133000
     55 H24         4.7660    4.5770    1.6390 h1        1 0UQ      0.086000
     56 H25         3.6270    6.0540    3.8360 hc        1 0UQ      0.087333
     57 H26         3.6490    6.5550    2.3030 hc        1 0UQ      0.087333
     58 H27         5.0150    6.4280    3.1160 hc        1 0UQ      0.087333
     59 H28         4.9610    2.8350    3.3740 hc        1 0UQ      0.087333
     60 H29         6.0420    4.0210    3.4740 hc        1 0UQ      0.087333
     61 H30         4.7500    4.0060    4.4390 hc        1 0UQ      0.087333
     62 H31        -6.7390   -1.9630   -0.0170 h1        1 0UQ      0.080000
     63 H32        -6.0010   -3.1550    0.7760 h1        1 0UQ      0.080000
     64 H33        -6.6030   -3.4210   -0.6840 h1        1 0UQ      0.080000
@<TRIPOS>BOND
     1    1    2 1   
     2    1    6 1   
     3    1   33 1   
     4    1   34 1   
     5    2    3 1   
     6    2   35 1   
     7    2   36 1   
     8    3    4 1   
     9    3   17 1   
    10    4    5 1   
    11    4    7 1   
    12    4   37 1   
    13    5    6 1   
    14    5   38 1   
    15    5   39 1   
    16    6    8 1   
    17    6    9 1   
    18    7   40 1   
    19    7   41 1   
    20    7   42 1   
    21    8   10 1   
    22    8   28 1   
    23    9   29 1   
    24    9   43 1   
    25    9   44 1   
    26   10   15 1   
    27   11   12 1   
    28   11   45 1   
    29   12   46 1   
    30   13   14 1   
    31   13   47 1   
    32   14   16 1   
    33   15   48 1   
    34   17   18 1   
    35   17   49 1   
    36   17   50 1   
    37   18   19 1   
    38   18   23 1   
    39   19   20 1   
    40   19   51 1   
    41   20   21 1   
    42   21   22 1   
    43   21   52 1   
    44   22   53 1   
    45   23   54 1   
    46   24   25 1   
    47   25   26 1   
    48   25   27 1   
    49   25   55 1   
    50   26   56 1   
    51   26   57 1   
    52   26   58 1   
    53   27   59 1   
    54   27   60 1   
    55   27   61 1   
    56   28   30 1   
    57   28   32 1   
    58   29   31 1   
    59   31   62 1   
    60   31   63 1   
    61   31   64 1   
@<TRIPOS>SUBSTRUCTURE
     1 0UQ         1 TEMP              0 ****  ****    0 ROOT
