@<TRIPOS>MOLECULE
0UQ
   64    67     1     0     0
SMALL
bcc


@<TRIPOS>ATOM
      1 C1          0.4800    1.3520    0.4150 c3        1 0UQ     -0.078400
      2 C2         -0.4460    0.1480    0.2900 c3        1 0UQ      0.157800
      3 N1         -0.7820   -0.1850   -1.0890 n3        1 0UQ     -0.719600
      4 C3          0.4320   -0.4300   -1.8830 c3        1 0UQ      0.177500
      5 C4          1.3680    0.7870   -1.8470 c3        1 0UQ     -0.083400
      6 C5          1.7610    1.2320   -0.4250 c3        1 0UQ      0.249200
      7 C6          0.1410   -0.7480   -3.3500 c3        1 0UQ     -0.096100
      8 N2          2.8260    0.4260    0.1730 nh        1 0UQ     -0.690900
      9 C7          2.3690    2.7020   -0.5500 c3        1 0UQ      0.195800
     10 C8          2.6330   -0.8830    0.6540 ca        1 0UQ      0.165600
     11 C9          2.1610   -1.1110    1.9660 ca        1 0UQ     -0.132000
     12 C10         2.0300   -2.4100    2.4500 ca        1 0UQ     -0.105000
     13 C11         2.3580   -3.5070    1.6620 ca        1 0UQ     -0.158000
     14 C12         2.8320   -3.2910    0.3550 ca        1 0UQ      0.126900
     15 C13         2.9720   -1.9890   -0.1530 ca        1 0UQ     -0.163000
     16 F1          3.1580   -4.3490   -0.4260 f         1 0UQ     -0.137900
     17 C14        -1.7290   -1.2920   -1.1770 c3        1 0UQ      0.209100
     18 C15        -2.9890   -1.1070   -0.3820 ca        1 0UQ     -0.058300
     19 C16        -3.7500    0.0520   -0.5270 ca        1 0UQ     -0.143000
     20 C17        -4.9610    0.1800    0.1840 ca        1 0UQ      0.130100
     21 C18        -5.4050   -0.8470    1.0240 ca        1 0UQ     -0.207000
     22 C19        -4.6290   -1.9990    1.1560 ca        1 0UQ     -0.097000
     23 C20        -3.4300   -2.1340    0.4640 ca        1 0UQ     -0.165000
     24 O1         -5.6110    1.3770   -0.0330 os        1 0UQ     -0.332900
     25 C21        -6.8590    1.5910    0.6510 c3        1 0UQ      0.140100
     26 C22        -7.0720    3.0950    0.6110 c3        1 0UQ     -0.110600
     27 C23        -7.9830    0.8570   -0.0540 c3        1 0UQ     -0.110600
     28 S1          4.2960    1.1990    0.2830 s6        1 0UQ      1.594800
     29 N3          3.7730    2.6630   -0.2450 n3        1 0UQ     -0.820500
     30 O2          5.2330    0.6440   -0.6040 o         1 0UQ     -0.649800
     31 C24         4.5450    3.8460   -0.4150 c3        1 0UQ      0.242100
     32 O3          4.7440    1.2650    1.6130 o         1 0UQ     -0.649800
     33 H1         -0.0680    2.2680    0.0660 hc        1 0UQ      0.058700
     34 H2          0.7320    1.4910    1.4980 hc        1 0UQ      0.058700
     35 H3          0.0230   -0.7290    0.8280 h1        1 0UQ      0.045700
     36 H4         -1.4120    0.3960    0.8190 h1        1 0UQ      0.045700
     37 H6          1.0020   -1.3150   -1.4530 h1        1 0UQ      0.032700
     38 H7          2.2850    0.5430   -2.4430 hc        1 0UQ      0.060200
     39 H8          0.8490    1.6470   -2.3480 hc        1 0UQ      0.060200
     40 H9         -0.5490    0.0060   -3.7990 hc        1 0UQ      0.042367
     41 H10         1.0990   -0.7400   -3.9240 hc        1 0UQ      0.042367
     42 H11        -0.3150   -1.7610   -3.4530 hc        1 0UQ      0.042367
     43 H12         2.2020    3.0940   -1.5910 h1        1 0UQ      0.057200
     44 H13         1.8370    3.3890    0.1670 h1        1 0UQ      0.057200
     45 H14         1.9030   -0.2610    2.6160 ha        1 0UQ      0.150000
     46 H15         1.6660   -2.5700    3.4780 ha        1 0UQ      0.143000
     47 H16         2.2590   -4.5330    2.0450 ha        1 0UQ      0.152000
     48 H17         3.3630   -1.8480   -1.1740 ha        1 0UQ      0.166000
     49 H18        -2.0330   -1.3800   -2.2610 h1        1 0UQ      0.044700
     50 H19        -1.2460   -2.2710   -0.8760 h1        1 0UQ      0.044700
     51 H20        -3.4190    0.8680   -1.1850 ha        1 0UQ      0.161000
     52 H21        -6.3510   -0.7660    1.5760 ha        1 0UQ      0.137000
     53 H22        -4.9740   -2.8090    1.8160 ha        1 0UQ      0.131000
     54 H23        -2.8290   -3.0480    0.5790 ha        1 0UQ      0.133000
     55 H24        -6.7690    1.2500    1.7190 h1        1 0UQ      0.046700
     56 H25        -8.0370    3.3420    1.1130 hc        1 0UQ      0.048033
     57 H26        -6.2380    3.6160    1.1370 hc        1 0UQ      0.048033
     58 H27        -7.1040    3.4550   -0.4450 hc        1 0UQ      0.048033
     59 H28        -7.7770   -0.2400   -0.0800 hc        1 0UQ      0.048033
     60 H29        -8.9440    1.0350    0.4840 hc        1 0UQ      0.048033
     61 H30        -8.0820    1.2200   -1.1050 hc        1 0UQ      0.048033
     62 H31         4.1560    4.6720    0.2410 h1        1 0UQ      0.040700
     63 H32         5.6120    3.6330   -0.1390 h1        1 0UQ      0.040700
     64 H33         4.5080    4.1950   -1.4830 h1        1 0UQ      0.040700
@<TRIPOS>BOND
     1    1    2 1   
     2    1    6 1   
     3    1   33 1   
     4    1   34 1   
     5    2    3 1   
     6    2   35 1   
     7    2   36 1   
     8    3    4 1   
     9    3   17 1   
    10    4    5 1   
    11    4    7 1   
    12    4   37 1   
    13    5    6 1   
    14    5   38 1   
    15    5   39 1   
    16    6    8 1   
    17    6    9 1   
    18    7   40 1   
    19    7   41 1   
    20    7   42 1   
    21    8   10 1   
    22    8   28 1   
    23    9   29 1   
    24    9   43 1   
    25    9   44 1   
    26   10   11 ar  
    27   10   15 ar  
    28   11   12 ar  
    29   11   45 1   
    30   12   13 ar  
    31   12   46 1   
    32   13   14 ar  
    33   13   47 1   
    34   14   15 ar  
    35   14   16 1   
    36   15   48 1   
    37   17   18 1   
    38   17   49 1   
    39   17   50 1   
    40   18   19 ar  
    41   18   23 ar  
    42   19   20 ar  
    43   19   51 1   
    44   20   21 ar  
    45   20   24 1   
    46   21   22 ar  
    47   21   52 1   
    48   22   23 ar  
    49   22   53 1   
    50   23   54 1   
    51   24   25 1   
    52   25   26 1   
    53   25   27 1   
    54   25   55 1   
    55   26   56 1   
    56   26   57 1   
    57   26   58 1   
    58   27   59 1   
    59   27   60 1   
    60   27   61 1   
    61   28   29 1   
    62   28   30 2   
    63   28   32 2   
    64   29   31 1   
    65   31   62 1   
    66   31   63 1   
    67   31   64 1   
@<TRIPOS>SUBSTRUCTURE
     1 0UQ         1 TEMP              0 ****  ****    0 ROOT
