@<TRIPOS>MOLECULE
0UQ
   64    67     1     0     0
SMALL
bcc


@<TRIPOS>ATOM
      1 C1          0.3820    0.0100    0.3520 c3        1 0UQ     -0.078400
      2 C2          1.9030    0.0980    0.3850 c3        1 0UQ      0.157800
      3 N1          2.4650   -0.0670    1.7200 n3        1 0UQ     -0.719600
      4 C3          2.0460   -1.3460    2.3140 c3        1 0UQ      0.177500
      5 C4          0.5150   -1.4520    2.3690 c3        1 0UQ     -0.083400
      6 C5         -0.1750   -1.2660    1.0040 c3        1 0UQ      0.249200
      7 C6          2.5770   -1.5560    3.7330 c3        1 0UQ     -0.096100
      8 N2         -0.1470   -2.4600    0.1590 nh        1 0UQ     -0.690900
      9 C7         -1.7200   -0.9950    1.2970 c3        1 0UQ      0.195800
     10 C8          1.0080   -2.9160   -0.5040 ca        1 0UQ      0.165600
     11 C9          1.3670   -2.4030   -1.7700 ca        1 0UQ     -0.132000
     12 C10         2.4780   -2.9040   -2.4430 ca        1 0UQ     -0.105000
     13 C11         3.2570   -3.9140   -1.8900 ca        1 0UQ     -0.158000
     14 C12         2.9070   -4.4340   -0.6310 ca        1 0UQ      0.126900
     15 C13         1.7890   -3.9430    0.0650 ca        1 0UQ     -0.163000
     16 F1          3.6550   -5.4200   -0.0780 f         1 0UQ     -0.137900
     17 C14         3.9150    0.0970    1.7350 c3        1 0UQ      0.209100
     18 C15         4.4090    1.3840    1.1370 ca        1 0UQ     -0.058300
     19 C16         3.8860    2.6040    1.5590 ca        1 0UQ     -0.143000
     20 C17         4.4050    3.8020    1.0280 ca        1 0UQ      0.130100
     21 C18         5.4420    3.7740    0.0880 ca        1 0UQ     -0.207000
     22 C19         5.9520    2.5420   -0.3220 ca        1 0UQ     -0.097000
     23 C20         5.4430    1.3530    0.1910 ca        1 0UQ     -0.165000
     24 O1          3.7940    4.9400    1.5140 os        1 0UQ     -0.332900
     25 C21         4.2650    6.2100    1.0280 c3        1 0UQ      0.140100
     26 C22         3.1430    7.1860    1.3400 c3        1 0UQ     -0.110600
     27 C23         5.5500    6.6030    1.7300 c3        1 0UQ     -0.110600
     28 S1         -1.6150   -3.2270    0.0040 s6        1 0UQ      1.594800
     29 N3         -2.4950   -2.1100    0.8240 n3        1 0UQ     -0.820500
     30 O2         -1.6190   -4.4640    0.6690 o         1 0UQ     -0.649800
     31 C24        -3.8920   -2.1350    1.0900 c3        1 0UQ      0.242100
     32 O3         -2.0140   -3.3070   -1.3410 o         1 0UQ     -0.649800
     33 H1         -0.0430    0.8880    0.9100 hc        1 0UQ      0.058700
     34 H2          0.0480    0.0840   -0.7150 hc        1 0UQ      0.058700
     35 H3          2.2000    1.1250    0.0220 h1        1 0UQ      0.045700
     36 H4          2.3270   -0.6570   -0.3410 h1        1 0UQ      0.045700
     37 H6          2.4280   -2.2090    1.6800 h1        1 0UQ      0.032700
     38 H7          0.1310   -0.6570    3.0630 hc        1 0UQ      0.060200
     39 H8          0.2470   -2.4490    2.8040 hc        1 0UQ      0.060200
     40 H9          2.0760   -2.4470    4.1830 hc        1 0UQ      0.042033
     41 H10         2.3720   -0.6690    4.3770 hc        1 0UQ      0.042033
     42 H11         3.6760   -1.7470    3.7200 hc        1 0UQ      0.042033
     43 H12        -2.0410   -0.0510    0.7740 h1        1 0UQ      0.057200
     44 H13        -1.8750   -0.8480    2.4010 h1        1 0UQ      0.057200
     45 H14         0.7620   -1.6100   -2.2370 ha        1 0UQ      0.150000
     46 H15         2.7400   -2.4980   -3.4320 ha        1 0UQ      0.143000
     47 H16         4.1330   -4.3140   -2.4220 ha        1 0UQ      0.152000
     48 H17         1.5270   -4.3810    1.0410 ha        1 0UQ      0.166000
     49 H18         4.4320   -0.7680    1.2220 h1        1 0UQ      0.044700
     50 H19         4.2360    0.0940    2.8180 h1        1 0UQ      0.044700
     51 H20         3.0740    2.6470    2.2990 ha        1 0UQ      0.161000
     52 H21         5.8640    4.6990   -0.3260 ha        1 0UQ      0.137000
     53 H22         6.7670    2.5150   -1.0610 ha        1 0UQ      0.131000
     54 H23         5.8550    0.3900   -0.1420 ha        1 0UQ      0.133000
     55 H24         4.4200    6.1550   -0.0850 h1        1 0UQ      0.046700
     56 H25         2.9390    7.2050    2.4370 hc        1 0UQ      0.048033
     57 H26         3.4420    8.2070    1.0040 hc        1 0UQ      0.048033
     58 H27         2.2090    6.8810    0.8120 hc        1 0UQ      0.048033
     59 H28         5.9010    7.5900    1.3470 hc        1 0UQ      0.048033
     60 H29         6.3430    5.8390    1.5510 hc        1 0UQ      0.048033
     61 H30         5.3800    6.6810    2.8310 hc        1 0UQ      0.048033
     62 H31        -4.4010   -1.2450    0.6310 h1        1 0UQ      0.040700
     63 H32        -4.3330   -3.0720    0.6540 h1        1 0UQ      0.040700
     64 H33        -4.0860   -2.1230    2.1970 h1        1 0UQ      0.040700
@<TRIPOS>BOND
     1    1    2 1   
     2    1    6 1   
     3    1   33 1   
     4    1   34 1   
     5    2    3 1   
     6    2   35 1   
     7    2   36 1   
     8    3    4 1   
     9    3   17 1   
    10    4    5 1   
    11    4    7 1   
    12    4   37 1   
    13    5    6 1   
    14    5   38 1   
    15    5   39 1   
    16    6    8 1   
    17    6    9 1   
    18    7   40 1   
    19    7   41 1   
    20    7   42 1   
    21    8   10 1   
    22    8   28 1   
    23    9   29 1   
    24    9   43 1   
    25    9   44 1   
    26   10   11 ar  
    27   10   15 ar  
    28   11   12 ar  
    29   11   45 1   
    30   12   13 ar  
    31   12   46 1   
    32   13   14 ar  
    33   13   47 1   
    34   14   15 ar  
    35   14   16 1   
    36   15   48 1   
    37   17   18 1   
    38   17   49 1   
    39   17   50 1   
    40   18   19 ar  
    41   18   23 ar  
    42   19   20 ar  
    43   19   51 1   
    44   20   21 ar  
    45   20   24 1   
    46   21   22 ar  
    47   21   52 1   
    48   22   23 ar  
    49   22   53 1   
    50   23   54 1   
    51   24   25 1   
    52   25   26 1   
    53   25   27 1   
    54   25   55 1   
    55   26   56 1   
    56   26   57 1   
    57   26   58 1   
    58   27   59 1   
    59   27   60 1   
    60   27   61 1   
    61   28   29 1   
    62   28   30 2   
    63   28   32 2   
    64   29   31 1   
    65   31   62 1   
    66   31   63 1   
    67   31   64 1   
@<TRIPOS>SUBSTRUCTURE
     1 0UQ         1 TEMP              0 ****  ****    0 ROOT
