@<TRIPOS>MOLECULE
0US
   79    83     1     0     0
SMALL
bcc


@<TRIPOS>ATOM
      1 C16         6.1460    2.7510   -4.5450 c2        1 0US     -0.202000
      2 C15         6.3970    2.9040   -3.2480 c2        1 0US     -0.190200
      3 C21         5.6380    2.1710   -2.1840 c3        1 0US      0.251000
      4 N5          6.4710    1.5650   -1.1820 n3        1 0US     -0.921100
      5 S1          6.2690    1.7370    0.4060 sy        1 0US      1.515200
      6 O1          7.5150    1.5740    1.0500 o         1 0US     -0.650300
      7 O2          5.5420    2.9100    0.6890 o         1 0US     -0.650300
      8 C5          5.3010    0.4000    0.8170 ca        1 0US     -0.375500
      9 C7          3.9440    0.3700    0.4850 ca        1 0US      0.033000
     10 C22         5.8470   -0.6810    1.5200 ca        1 0US      0.001000
     11 C26         5.0580   -1.7710    1.8790 ca        1 0US     -0.163000
     12 C23         3.7040   -1.7950    1.5430 ca        1 0US     -0.044000
     13 C6          3.1440   -0.7190    0.8470 ca        1 0US     -0.176600
     14 C4          1.7120   -0.7030    0.4330 c         1 0US      0.674700
     15 O3          1.3620   -0.2980   -0.6880 o         1 0US     -0.553100
     16 N3          0.7940   -1.2350    1.3510 n         1 0US     -0.458400
     17 C1         -0.5900   -0.9300    1.2220 cc        1 0US      0.422400
     18 N1         -1.1420    0.2820    1.4880 nd        1 0US     -0.552100
     19 C2         -2.5230    0.1000    1.3300 ca        1 0US      0.056400
     20 C10        -3.5660    1.0210    1.5080 ca        1 0US     -0.043000
     21 C11        -4.8730    0.5790    1.3550 ca        1 0US     -0.113300
     22 C12        -6.0270    1.5130    1.5800 c3        1 0US      0.221100
     23 N4         -5.8980    2.7990    0.9050 n3        1 0US     -0.728600
     24 C24        -5.8420    2.6680   -0.5450 c3        1 0US      0.169300
     25 C29        -5.7110    4.0080   -1.2670 c3        1 0US     -0.076900
     26 C30        -6.8010    4.9660   -0.8370 c3        1 0US     -0.078400
     27 C28        -6.8170    5.1040    0.6700 c3        1 0US     -0.076900
     28 C25        -6.9200    3.7390    1.3490 c3        1 0US      0.169300
     29 C17        -5.1440   -0.7720    1.0510 ca        1 0US     -0.110000
     30 C9         -4.1380   -1.7050    0.8680 ca        1 0US     -0.142000
     31 C3         -2.8030   -1.2810    0.9620 ca        1 0US     -0.048200
     32 N2         -1.5640   -1.9300    0.8700 na        1 0US     -0.144300
     33 C8         -1.1900   -3.2390    0.3740 c3        1 0US      0.073000
     34 C14        -2.3080   -4.2900    0.3110 c3        1 0US     -0.087900
     35 C19        -3.1300   -4.2880   -0.9590 c3        1 0US     -0.078900
     36 C13        -0.4210   -3.2170   -0.9620 c3        1 0US     -0.087900
     37 C18        -1.3000   -3.1740   -2.1890 c3        1 0US     -0.078900
     38 C20        -2.2560   -4.3530   -2.1980 c3        1 0US     -0.068700
     39 C27        -3.1070   -4.3300   -3.4640 c3        1 0US      0.133400
     40 O4         -3.7990   -5.5680   -3.5340 oh        1 0US     -0.603800
     41 H16         5.3900    2.0540   -4.9300 ha        1 0US      0.116500
     42 H16A        6.6790    3.3260   -5.3140 ha        1 0US      0.116500
     43 H15         7.1640    3.6100   -2.8860 ha        1 0US      0.133000
     44 H21         4.9470    2.9120   -1.6780 h1        1 0US      0.060200
     45 H21A        4.9940    1.3730   -2.6620 h1        1 0US      0.060200
     46 HN5         7.2160    1.0290   -1.5570 hn        1 0US      0.452800
     47 H7          3.4890    1.2140   -0.0660 ha        1 0US      0.166000
     48 H22         6.9180   -0.6590    1.7980 ha        1 0US      0.166000
     49 H26         5.5020   -2.6140    2.4290 ha        1 0US      0.147000
     50 H23         3.0900   -2.6670    1.8180 ha        1 0US      0.144000
     51 HN3         1.0920   -1.2840    2.3040 hn        1 0US      0.321500
     52 H10        -3.3440    2.0670    1.7670 ha        1 0US      0.165000
     53 H12        -6.9870    0.9900    1.2840 h1        1 0US      0.036200
     54 H12A       -6.0870    1.7210    2.6890 h1        1 0US      0.036200
     55 H24        -4.9440    2.0310   -0.7870 h1        1 0US      0.030700
     56 H24A       -6.7570    2.1370   -0.9450 h1        1 0US      0.030700
     57 H29        -4.7070    4.4570   -1.0500 hc        1 0US      0.046950
     58 H29A       -5.7730    3.8220   -2.3700 hc        1 0US      0.046950
     59 H30        -6.6340    5.9680   -1.3080 hc        1 0US      0.038200
     60 H30A       -7.7960    4.5880   -1.1910 hc        1 0US      0.038200
     61 H28        -5.8830    5.6240    1.0100 hc        1 0US      0.046950
     62 H28A       -7.6920    5.7240    0.9930 hc        1 0US      0.046950
     63 H25        -7.9600    3.3310    1.1740 h1        1 0US      0.030700
     64 H25A       -6.7920    3.8790    2.4600 h1        1 0US      0.030700
     65 H17        -6.1920   -1.0990    0.9660 ha        1 0US      0.131000
     66 H9         -4.4020   -2.7540    0.6810 ha        1 0US      0.141000
     67 H8         -0.4530   -3.6260    1.1520 h1        1 0US      0.051700
     68 H14        -1.7960   -5.2880    0.3970 hc        1 0US      0.056450
     69 H14A       -2.9840   -4.1910    1.2010 hc        1 0US      0.056450
     70 H19        -3.8240   -5.1710   -0.9500 hc        1 0US      0.053450
     71 H19A       -3.7600   -3.3630   -1.0240 hc        1 0US      0.053450
     72 H13         0.2860   -2.3460   -1.0030 hc        1 0US      0.056450
     73 H13A        0.1970   -4.1550   -0.9860 hc        1 0US      0.056450
     74 H18        -1.8790   -2.2140   -2.2150 hc        1 0US      0.053450
     75 H18A       -0.6520   -3.2010   -3.1050 hc        1 0US      0.053450
     76 H20        -1.6710   -5.3150   -2.1870 hc        1 0US      0.063700
     77 H27        -3.8410   -3.4810   -3.4330 h1        1 0US      0.024700
     78 H27A       -2.4500   -4.2120   -4.3680 h1        1 0US      0.024700
     79 HO4        -4.3350   -5.5370   -4.3340 ho        1 0US      0.400000
@<TRIPOS>BOND
     1    1    2 2   
     2    1   41 1   
     3    1   42 1   
     4    2    3 1   
     5    2   43 1   
     6    3    4 1   
     7    3   44 1   
     8    3   45 1   
     9    4    5 1   
    10    4   46 1   
    11    5    6 2   
    12    5    7 2   
    13    5    8 1   
    14    8    9 ar  
    15    8   10 ar  
    16    9   13 ar  
    17    9   47 1   
    18   10   11 ar  
    19   10   48 1   
    20   11   12 ar  
    21   11   49 1   
    22   12   13 ar  
    23   12   50 1   
    24   13   14 1   
    25   14   15 2   
    26   14   16 1   
    27   16   17 1   
    28   16   51 1   
    29   17   18 2   
    30   17   32 1   
    31   18   19 1   
    32   19   20 ar  
    33   19   31 ar  
    34   20   21 ar  
    35   20   52 1   
    36   21   22 1   
    37   21   29 ar  
    38   22   23 1   
    39   22   53 1   
    40   22   54 1   
    41   23   24 1   
    42   23   28 1   
    43   24   25 1   
    44   24   55 1   
    45   24   56 1   
    46   25   26 1   
    47   25   57 1   
    48   25   58 1   
    49   26   27 1   
    50   26   59 1   
    51   26   60 1   
    52   27   28 1   
    53   27   61 1   
    54   27   62 1   
    55   28   63 1   
    56   28   64 1   
    57   29   30 ar  
    58   29   65 1   
    59   30   31 ar  
    60   30   66 1   
    61   31   32 1   
    62   32   33 1   
    63   33   34 1   
    64   33   36 1   
    65   33   67 1   
    66   34   35 1   
    67   34   68 1   
    68   34   69 1   
    69   35   38 1   
    70   35   70 1   
    71   35   71 1   
    72   36   37 1   
    73   36   72 1   
    74   36   73 1   
    75   37   38 1   
    76   37   74 1   
    77   37   75 1   
    78   38   39 1   
    79   38   76 1   
    80   39   40 1   
    81   39   77 1   
    82   39   78 1   
    83   40   79 1   
@<TRIPOS>SUBSTRUCTURE
     1 0US         1 TEMP              0 ****  ****    0 ROOT
