@<TRIPOS>MOLECULE
0US
   80    84     1     0     0
SMALL
bcc


@<TRIPOS>ATOM
      1 C16         0.0060    0.5560   -0.4650 c2        1 0US     -0.113000
      2 C15         1.0160   -0.2920   -0.2770 c2        1 0US     -0.264200
      3 C21         2.2730    0.0930    0.4240 c3        1 0US      0.147000
      4 N5          2.5130   -0.6980    1.6620 n4        1 0US     -0.705900
      5 S1          4.0780   -0.1340    2.5790 sy        1 0US      1.483200
      6 O1          5.0360   -0.9370    1.9930 o         1 0US     -0.566800
      7 O2          4.0530    1.2300    2.3770 o         1 0US     -0.566800
      8 C5          3.6210   -0.6120    4.0480 ca        1 0US     -0.537500
      9 C7          2.7190    0.1560    4.8110 ca        1 0US      0.042000
     10 C22         4.1560   -1.7810    4.6360 ca        1 0US      0.021000
     11 C26         3.8010   -2.1630    5.9210 ca        1 0US     -0.148000
     12 C23         2.8940   -1.3940    6.6600 ca        1 0US      0.018000
     13 C6          2.3520   -0.2340    6.0970 ca        1 0US     -0.163600
     14 C4          1.3210    0.6010    6.7990 c         1 0US      0.667700
     15 O3          0.3080    0.9640    6.1810 o         1 0US     -0.539100
     16 N3          1.5400    0.8640    8.1490 n         1 0US     -0.432400
     17 C1          0.9040    1.9970    8.7390 cc        1 0US      0.389400
     18 N1          1.1910    3.2830    8.4060 nd        1 0US     -0.552100
     19 C2          0.4260    4.0630    9.2830 ca        1 0US      0.053400
     20 C10         0.3580    5.4610    9.4010 ca        1 0US     -0.042000
     21 C11        -0.4320    6.0020   10.4050 ca        1 0US     -0.101300
     22 C12        -0.5010    7.4900   10.6040 c3        1 0US      0.216100
     23 N4         -0.7340    8.2400    9.3750 n3        1 0US     -0.730600
     24 C24        -2.0510    7.9810    8.8080 c3        1 0US      0.167800
     25 C29        -2.3200    8.7640    7.5260 c3        1 0US     -0.076400
     26 C30        -2.0880   10.2450    7.7350 c3        1 0US     -0.079400
     27 C28        -0.7050   10.4880    8.2970 c3        1 0US     -0.076400
     28 C25        -0.4680    9.6630    9.5610 c3        1 0US      0.167800
     29 C17        -1.1290    5.1630   11.3010 ca        1 0US     -0.100000
     30 C9         -1.0850    3.7830   11.2130 ca        1 0US     -0.139000
     31 C3         -0.3380    3.2020   10.1750 ca        1 0US     -0.045200
     32 N2         -0.0470    1.8810    9.8060 na        1 0US     -0.132300
     33 C8         -0.6380    0.6120   10.1850 c3        1 0US      0.072000
     34 C14        -1.4350    0.5970   11.4970 c3        1 0US     -0.086900
     35 C19        -2.8880    1.0010   11.3750 c3        1 0US     -0.080400
     36 C13        -1.4600   -0.0600    9.0670 c3        1 0US     -0.086900
     37 C18        -2.8900    0.4170    8.9720 c3        1 0US     -0.080400
     38 C20        -3.6060    0.2100   10.2950 c3        1 0US     -0.068700
     39 C27        -5.0630    0.6470   10.1830 c3        1 0US      0.135400
     40 O4         -5.7240    0.2050   11.3580 oh        1 0US     -0.601800
     41 H16         0.0040    1.5890   -0.0860 ha        1 0US      0.142000
     42 H16A       -0.8930    0.2680   -1.0320 ha        1 0US      0.142000
     43 H15         0.9960   -1.3160   -0.6880 ha        1 0US      0.148000
     44 H21         3.1540   -0.0810   -0.2630 hx        1 0US      0.111700
     45 H21A        2.2560    1.1860    0.7160 hx        1 0US      0.111700
     46 HN5         2.5960   -1.6800    1.4010 hn        1 0US      0.448800
     47 H7          2.2920    1.0900    4.3940 ha        1 0US      0.182000
     48 H22         4.8780   -2.3920    4.0610 ha        1 0US      0.175000
     49 H26         4.2340   -3.0760    6.3640 ha        1 0US      0.179000
     50 H23         2.6060   -1.7110    7.6780 ha        1 0US      0.177000
     51 HN3         2.4620    0.7090    8.5020 hn        1 0US      0.321500
     52 H10         0.9240    6.1050    8.7100 ha        1 0US      0.167000
     53 H12         0.4930    7.8220   11.0250 h1        1 0US      0.042200
     54 H12A       -1.2890    7.7200   11.3830 h1        1 0US      0.042200
     55 H24        -2.1050    6.8780    8.5830 h1        1 0US      0.031950
     56 H24A       -2.8720    8.2190    9.5490 h1        1 0US      0.031950
     57 H29        -3.3810    8.5800    7.2150 hc        1 0US      0.047200
     58 H29A       -1.6530    8.3900    6.7060 hc        1 0US      0.047200
     59 H30        -2.2040   10.7900    6.7630 hc        1 0US      0.042200
     60 H30A       -2.8590   10.6510    8.4420 hc        1 0US      0.042200
     61 H28        -0.5770   11.5700    8.5550 hc        1 0US      0.047200
     62 H28A        0.0660   10.2260    7.5260 hc        1 0US      0.047200
     63 H25        -1.1010   10.0940   10.3930 h1        1 0US      0.031950
     64 H25A        0.6120    9.7690    9.8640 h1        1 0US      0.031950
     65 H17        -1.7240    5.6240   12.1070 ha        1 0US      0.140000
     66 H9         -1.6080    3.1750   11.9630 ha        1 0US      0.148000
     67 H8          0.2600   -0.0660   10.3670 h1        1 0US      0.046700
     68 H14        -1.3950   -0.4650   11.8680 hc        1 0US      0.054700
     69 H14A       -0.9270    1.2320   12.2680 hc        1 0US      0.054700
     70 H19        -2.9790    2.0920   11.1300 hc        1 0US      0.055950
     71 H19A       -3.4020    0.8310   12.3580 hc        1 0US      0.055950
     72 H13        -0.9710    0.0840    8.0680 hc        1 0US      0.054700
     73 H13A       -1.4560   -1.1610    9.2910 hc        1 0US      0.054700
     74 H18        -2.9170    1.5030    8.6910 hc        1 0US      0.055950
     75 H18A       -3.4150   -0.1530    8.1610 hc        1 0US      0.055950
     76 H20        -3.5890   -0.8820   10.5670 hc        1 0US      0.065700
     77 H27        -5.5380    0.1770    9.2800 h1        1 0US      0.025200
     78 H27A       -5.1370    1.7640   10.0950 h1        1 0US      0.025200
     79 HO4        -6.6410    0.4950   11.2850 ho        1 0US      0.406000
     80 H52         1.6900   -0.6210    2.2590 hn        1 0US      0.448800
@<TRIPOS>BOND
     1    1    2 2   
     2    1   41 1   
     3    1   42 1   
     4    2    3 1   
     5    2   43 1   
     6    3    4 1   
     7    3   44 1   
     8    3   45 1   
     9    4    5 1   
    10    4   46 1   
    11    4   80 1   
    12    5    6 2   
    13    5    7 2   
    14    5    8 1   
    15    8    9 ar  
    16    8   10 ar  
    17    9   13 ar  
    18    9   47 1   
    19   10   11 ar  
    20   10   48 1   
    21   11   12 ar  
    22   11   49 1   
    23   12   13 ar  
    24   12   50 1   
    25   13   14 1   
    26   14   15 2   
    27   14   16 1   
    28   16   17 1   
    29   16   51 1   
    30   17   18 2   
    31   17   32 1   
    32   18   19 1   
    33   19   20 ar  
    34   19   31 ar  
    35   20   21 ar  
    36   20   52 1   
    37   21   22 1   
    38   21   29 ar  
    39   22   23 1   
    40   22   53 1   
    41   22   54 1   
    42   23   24 1   
    43   23   28 1   
    44   24   25 1   
    45   24   55 1   
    46   24   56 1   
    47   25   26 1   
    48   25   57 1   
    49   25   58 1   
    50   26   27 1   
    51   26   59 1   
    52   26   60 1   
    53   27   28 1   
    54   27   61 1   
    55   27   62 1   
    56   28   63 1   
    57   28   64 1   
    58   29   30 ar  
    59   29   65 1   
    60   30   31 ar  
    61   30   66 1   
    62   31   32 1   
    63   32   33 1   
    64   33   34 1   
    65   33   36 1   
    66   33   67 1   
    67   34   35 1   
    68   34   68 1   
    69   34   69 1   
    70   35   38 1   
    71   35   70 1   
    72   35   71 1   
    73   36   37 1   
    74   36   72 1   
    75   36   73 1   
    76   37   38 1   
    77   37   74 1   
    78   37   75 1   
    79   38   39 1   
    80   38   76 1   
    81   39   40 1   
    82   39   77 1   
    83   39   78 1   
    84   40   79 1   
@<TRIPOS>SUBSTRUCTURE
     1 0US         1 TEMP              0 ****  ****    0 ROOT
