@<TRIPOS>MOLECULE
0US
   80    84     1     0     0
SMALL
bcc


@<TRIPOS>ATOM
      1 C16         0.0460    0.5820   -0.4810 c2        1 0US     -0.113000
      2 C15         1.0510   -0.2710   -0.2860 c2        1 0US     -0.264200
      3 C21         2.3040    0.1080    0.4240 c3        1 0US      0.146000
      4 N5          2.5320   -0.6830    1.6640 ny        1 0US     -0.705900
      5 S1          4.0940   -0.1260    2.5900 sy        1 0US      1.483200
      6 O1          5.0530   -0.9300    2.0060 o         1 0US     -0.566800
      7 O2          4.0730    1.2380    2.3930 o         1 0US     -0.566800
      8 C5          3.6280   -0.6090    4.0550 ca        1 0US     -0.537500
      9 C7          2.7240    0.1580    4.8160 ca        1 0US      0.042000
     10 C22         4.1570   -1.7810    4.6410 ca        1 0US      0.021000
     11 C26         3.7950   -2.1670    5.9240 ca        1 0US     -0.148000
     12 C23         2.8870   -1.3990    6.6610 ca        1 0US      0.018000
     13 C6          2.3500   -0.2350    6.0990 ca        1 0US     -0.163600
     14 C4          1.3180    0.6000    6.7990 c         1 0US      0.667700
     15 O3          0.3080    0.9680    6.1770 o         1 0US     -0.539100
     16 N3          1.5300    0.8570    8.1510 ns        1 0US     -0.432400
     17 C1          0.8950    1.9890    8.7420 cc        1 0US      0.389400
     18 N1          1.1860    3.2760    8.4160 nd        1 0US     -0.552100
     19 C2          0.4200    4.0550    9.2920 ca        1 0US      0.053400
     20 C10         0.3540    5.4530    9.4140 ca        1 0US     -0.042000
     21 C11        -0.4390    5.9920   10.4160 ca        1 0US     -0.101300
     22 C12        -0.5060    7.4790   10.6200 c3        1 0US      0.216100
     23 N4         -0.7310    8.2350    9.3930 n3        1 0US     -0.730600
     24 C24        -2.0460    7.9810    8.8190 c3        1 0US      0.167800
     25 C29        -2.3070    8.7700    7.5380 c3        1 0US     -0.076400
     26 C30        -2.0720   10.2490    7.7540 c3        1 0US     -0.079400
     27 C28        -0.6900   10.4860    8.3230 c3        1 0US     -0.076400
     28 C25        -0.4620    9.6560    9.5850 c3        1 0US      0.167800
     29 C17        -1.1440    5.1520   11.3060 ca        1 0US     -0.100000
     30 C9         -1.1030    3.7720   11.2130 ca        1 0US     -0.139000
     31 C3         -0.3520    3.1930   10.1770 ca        1 0US     -0.045200
     32 N2         -0.0630    1.8720    9.8040 na        1 0US     -0.132300
     33 C8         -0.6580    0.6030   10.1750 c3        1 0US      0.072000
     34 C14        -1.4630    0.5850   11.4830 c3        1 0US     -0.086900
     35 C19        -2.9130    0.9940   11.3550 c3        1 0US     -0.080400
     36 C13        -1.4770   -0.0620    9.0500 c3        1 0US     -0.086900
     37 C18        -2.9050    0.4190    8.9500 c3        1 0US     -0.080400
     38 C20        -3.6280    0.2090   10.2690 c3        1 0US     -0.068700
     39 C27        -5.0840    0.6500   10.1510 c3        1 0US      0.135400
     40 O4         -5.7520    0.2060   11.3210 oh        1 0US     -0.601800
     41 H16         0.0470    1.6150   -0.1020 ha        1 0US      0.142000
     42 H16A       -0.8500    0.2990   -1.0550 ha        1 0US      0.142000
     43 H15         1.0280   -1.2940   -0.6960 ha        1 0US      0.148000
     44 H21         2.2910    1.2020    0.7160 hx        1 0US      0.111700
     45 H21A        3.1890   -0.0700   -0.2570 hx        1 0US      0.111700
     46 HN5         2.6120   -1.6660    1.4030 hn        1 0US      0.448800
     47 H7          2.3010    1.0950    4.4010 ha        1 0US      0.182000
     48 H22         4.8810   -2.3930    4.0680 ha        1 0US      0.175000
     49 H26         4.2240   -3.0830    6.3660 ha        1 0US      0.179000
     50 H23         2.5920   -1.7190    7.6770 ha        1 0US      0.177000
     51 HN3         2.4500    0.6980    8.5080 hn        1 0US      0.321500
     52 H10         0.9250    6.0980    8.7290 ha        1 0US      0.167000
     53 H12         0.4880    7.8070   11.0470 h1        1 0US      0.042200
     54 H12A       -1.2960    7.7090   11.3970 h1        1 0US      0.042200
     55 H24        -2.8700    8.2190    9.5570 h1        1 0US      0.031950
     56 H24A       -2.1020    6.8790    8.5900 h1        1 0US      0.031950
     57 H29        -3.3660    8.5890    7.2220 hc        1 0US      0.047200
     58 H29A       -1.6370    8.3970    6.7210 hc        1 0US      0.047200
     59 H30        -2.1820   10.7980    6.7830 hc        1 0US      0.042200
     60 H30A       -2.8440   10.6550    8.4590 hc        1 0US      0.042200
     61 H28         0.0840   10.2250    7.5550 hc        1 0US      0.047200
     62 H28A       -0.5600   11.5670    8.5850 hc        1 0US      0.047200
     63 H25        -1.0970   10.0860   10.4150 h1        1 0US      0.031950
     64 H25A        0.6170    9.7580    9.8930 h1        1 0US      0.031950
     65 H17        -1.7410    5.6120   12.1110 ha        1 0US      0.140000
     66 H9         -1.6310    3.1620   11.9570 ha        1 0US      0.148000
     67 H8          0.2370   -0.0770   10.3590 h1        1 0US      0.046700
     68 H14        -1.4270   -0.4780   11.8500 hc        1 0US      0.054700
     69 H14A       -0.9560    1.2170   12.2590 hc        1 0US      0.054700
     70 H19        -3.0010    2.0860   11.1130 hc        1 0US      0.055950
     71 H19A       -3.4330    0.8220   12.3350 hc        1 0US      0.055950
     72 H13        -1.4770   -1.1640    9.2710 hc        1 0US      0.054700
     73 H13A       -0.9830    0.0840    8.0550 hc        1 0US      0.054700
     74 H18        -2.9270    1.5060    8.6730 hc        1 0US      0.055950
     75 H18A       -3.4270   -0.1470    8.1350 hc        1 0US      0.055950
     76 H20        -3.6160   -0.8840   10.5360 hc        1 0US      0.065700
     77 H27        -5.5550    0.1850    9.2430 h1        1 0US      0.025200
     78 H27A       -5.1540    1.7680   10.0670 h1        1 0US      0.025200
     79 HO4        -6.6670    0.4980   11.2440 ho        1 0US      0.406000
     80 H52         1.7060   -0.6020    2.2550 hn        1 0US      0.448800
@<TRIPOS>BOND
     1    1    2 2   
     2    1   41 1   
     3    1   42 1   
     4    2    3 1   
     5    2   43 1   
     6    3    4 1   
     7    3   44 1   
     8    3   45 1   
     9    4    5 1   
    10    4   46 1   
    11    4   80 1   
    12    5    6 2   
    13    5    7 2   
    14    5    8 1   
    15    8    9 ar  
    16    8   10 ar  
    17    9   13 ar  
    18    9   47 1   
    19   10   11 ar  
    20   10   48 1   
    21   11   12 ar  
    22   11   49 1   
    23   12   13 ar  
    24   12   50 1   
    25   13   14 1   
    26   14   15 2   
    27   14   16 1   
    28   16   17 1   
    29   16   51 1   
    30   17   18 2   
    31   17   32 1   
    32   18   19 1   
    33   19   20 ar  
    34   19   31 ar  
    35   20   21 ar  
    36   20   52 1   
    37   21   22 1   
    38   21   29 ar  
    39   22   23 1   
    40   22   53 1   
    41   22   54 1   
    42   23   24 1   
    43   23   28 1   
    44   24   25 1   
    45   24   55 1   
    46   24   56 1   
    47   25   26 1   
    48   25   57 1   
    49   25   58 1   
    50   26   27 1   
    51   26   59 1   
    52   26   60 1   
    53   27   28 1   
    54   27   61 1   
    55   27   62 1   
    56   28   63 1   
    57   28   64 1   
    58   29   30 ar  
    59   29   65 1   
    60   30   31 ar  
    61   30   66 1   
    62   31   32 1   
    63   32   33 1   
    64   33   34 1   
    65   33   36 1   
    66   33   67 1   
    67   34   35 1   
    68   34   68 1   
    69   34   69 1   
    70   35   38 1   
    71   35   70 1   
    72   35   71 1   
    73   36   37 1   
    74   36   72 1   
    75   36   73 1   
    76   37   38 1   
    77   37   74 1   
    78   37   75 1   
    79   38   39 1   
    80   38   76 1   
    81   39   40 1   
    82   39   77 1   
    83   39   78 1   
    84   40   79 1   
@<TRIPOS>SUBSTRUCTURE
     1 0US         1 TEMP              0 ****  ****    0 ROOT
