@<TRIPOS>MOLECULE
0US
   81    85     1     0     0
SMALL
bcc


@<TRIPOS>ATOM
      1 C16         1.4110    5.8890    2.2440 c2        1 0US     -0.095000
      2 C15         1.3000    4.5660    2.1350 c2        1 0US     -0.275200
      3 C21         2.4150    3.6330    2.4510 c3        1 0US      0.148000
      4 N5          2.0970    2.7180    3.5920 n4        1 0US     -0.718900
      5 S1          3.4450    1.4490    3.8530 sy        1 0US      1.463200
      6 O1          3.8750    1.1780    2.5720 o         1 0US     -0.549300
      7 O2          4.2250    2.0650    4.8090 o         1 0US     -0.549300
      8 C5          2.5220    0.2450    4.4760 ca        1 0US     -0.496500
      9 C7          2.4250    0.0620    5.8680 ca        1 0US      0.092000
     10 C22         1.9060   -0.7020    3.6330 ca        1 0US      0.045000
     11 C26         1.2000   -1.7810    4.1570 ca        1 0US     -0.131000
     12 C23         1.0990   -1.9490    5.5380 ca        1 0US      0.011000
     13 C6          1.7200   -1.0240    6.3910 ca        1 0US     -0.187600
     14 C4          1.7060   -1.2210    7.8510 c         1 0US      0.587700
     15 O3          2.6140   -1.5390    8.5940 o         1 0US     -0.353100
     16 N3          0.3520   -1.0000    8.5280 n4        1 0US     -0.590800
     17 C1          0.1320    0.4310    8.7550 cc        1 0US      0.366700
     18 N1          0.4170    1.3610    7.7920 nd        1 0US     -0.557100
     19 C2          0.1470    2.5820    8.3990 ca        1 0US      0.052400
     20 C10         0.2800    3.8870    7.8760 ca        1 0US     -0.066000
     21 C11        -0.0060    4.9600    8.6950 ca        1 0US     -0.057300
     22 C12         0.1670    6.3790    8.2280 c3        1 0US      0.197100
     23 N4         -0.1490    6.5880    6.8180 n3        1 0US     -0.742600
     24 C24        -1.5870    6.5110    6.5710 c3        1 0US      0.158300
     25 C29        -1.9690    6.7740    5.1170 c3        1 0US     -0.073900
     26 C30        -1.3950    8.0870    4.6330 c3        1 0US     -0.086400
     27 C28         0.0990    8.1340    4.8720 c3        1 0US     -0.073900
     28 C25         0.4380    7.8350    6.3300 c3        1 0US      0.158300
     29 C17        -0.4110    4.7500   10.0410 ca        1 0US     -0.071000
     30 C9         -0.5580    3.4930   10.5880 ca        1 0US     -0.123000
     31 C3         -0.3060    2.3720    9.7700 ca        1 0US     -0.016200
     32 N2         -0.3370    0.9880    9.9800 na        1 0US     -0.087300
     33 C8         -0.7130    0.1720   11.1280 c3        1 0US      0.039000
     34 C14        -0.9820    0.9320   12.4350 c3        1 0US     -0.086400
     35 C19        -2.3660    1.5310   12.5420 c3        1 0US     -0.084900
     36 C13        -1.8880   -0.7920   10.8610 c3        1 0US     -0.086400
     37 C18        -3.2530   -0.1470   10.9520 c3        1 0US     -0.084900
     38 C20        -3.4460    0.4880   12.3170 c3        1 0US     -0.070700
     39 C27        -4.8350    1.1180   12.4170 c3        1 0US      0.138400
     40 O4         -4.9450    1.6670   13.7180 oh        1 0US     -0.600800
     41 H16         2.3140    6.3950    2.6180 ha        1 0US      0.147000
     42 H16A        0.5920    6.5640    1.9440 ha        1 0US      0.147000
     43 H15         0.3870    4.0960    1.7320 ha        1 0US      0.150000
     44 H21         2.6340    2.9890    1.5460 hx        1 0US      0.116200
     45 H21A        3.3530    4.2000    2.7280 hx        1 0US      0.116200
     46 HN5         1.1900    2.2890    3.4090 hn        1 0US      0.455300
     47 H7          2.9280    0.7770    6.5520 ha        1 0US      0.194000
     48 H22         2.0070   -0.6040    2.5330 ha        1 0US      0.188000
     49 H26         0.7310   -2.5170    3.4770 ha        1 0US      0.198000
     50 H23         0.5550   -2.8200    5.9440 ha        1 0US      0.170000
     51 HN3        -0.4070   -1.3490    7.9280 hn        1 0US      0.474800
     52 H10         0.6050    4.0310    6.8360 ha        1 0US      0.149000
     53 H12        -0.4490    7.0560    8.8940 h1        1 0US      0.061700
     54 H12A        1.2530    6.6490    8.3910 h1        1 0US      0.061700
     55 H24        -1.9170    5.4730    6.8570 h1        1 0US      0.040450
     56 H24A       -2.1550    7.2410    7.2220 h1        1 0US      0.040450
     57 H29        -3.0870    6.7920    5.0440 hc        1 0US      0.043450
     58 H29A       -1.6000    5.9370    4.4690 hc        1 0US      0.043450
     59 H30        -1.8880    8.9360    5.1760 hc        1 0US      0.057200
     60 H30A       -1.6110    8.2190    3.5410 hc        1 0US      0.057200
     61 H28         0.4980    9.1510    4.6210 hc        1 0US      0.043450
     62 H28A        0.6120    7.3930    4.2020 hc        1 0US      0.043450
     63 H25         1.5560    7.7450    6.4310 h1        1 0US      0.040450
     64 H25A        0.1080    8.7150    6.9580 h1        1 0US      0.040450
     65 H17        -0.6100    5.6330   10.6750 ha        1 0US      0.169000
     66 H9         -0.8500    3.3910   11.6440 ha        1 0US      0.175000
     67 H8          0.2080   -0.4680   11.3310 h1        1 0US      0.048700
     68 H14        -0.1990    1.7170   12.5970 hc        1 0US      0.058950
     69 H14A       -0.8570    0.1740   13.2590 hc        1 0US      0.058950
     70 H19        -2.5090    2.3550   11.7950 hc        1 0US      0.065950
     71 H19A       -2.4970    1.9780   13.5660 hc        1 0US      0.065950
     72 H13        -1.8010   -1.2910    9.8630 hc        1 0US      0.058950
     73 H13A       -1.8130   -1.5960   11.6450 hc        1 0US      0.058950
     74 H18        -3.3710    0.6280   10.1510 hc        1 0US      0.065950
     75 H18A       -4.0390   -0.9310   10.7840 hc        1 0US      0.065950
     76 H20        -3.3660   -0.3010   13.1170 hc        1 0US      0.076700
     77 H27        -4.9560    1.9320   11.6520 h1        1 0US      0.031200
     78 H27A       -5.6210    0.3350   12.2480 h1        1 0US      0.031200
     79 HO4        -5.8760    1.8800   13.8560 ho        1 0US      0.421000
     80 H52         1.9810    3.2950    4.4290 hn        1 0US      0.455300
     81 H32         0.3330   -1.5000    9.4320 hn        1 0US      0.474800
@<TRIPOS>BOND
     1    1    2 2   
     2    1   41 1   
     3    1   42 1   
     4    2    3 1   
     5    2   43 1   
     6    3    4 1   
     7    3   44 1   
     8    3   45 1   
     9    4    5 1   
    10    4   46 1   
    11    4   80 1   
    12    5    6 2   
    13    5    7 2   
    14    5    8 1   
    15    8    9 ar  
    16    8   10 ar  
    17    9   13 ar  
    18    9   47 1   
    19   10   11 ar  
    20   10   48 1   
    21   11   12 ar  
    22   11   49 1   
    23   12   13 ar  
    24   12   50 1   
    25   13   14 1   
    26   14   15 2   
    27   14   16 1   
    28   16   17 1   
    29   16   51 1   
    30   16   81 1   
    31   17   18 2   
    32   17   32 1   
    33   18   19 1   
    34   19   20 ar  
    35   19   31 ar  
    36   20   21 ar  
    37   20   52 1   
    38   21   22 1   
    39   21   29 ar  
    40   22   23 1   
    41   22   53 1   
    42   22   54 1   
    43   23   24 1   
    44   23   28 1   
    45   24   25 1   
    46   24   55 1   
    47   24   56 1   
    48   25   26 1   
    49   25   57 1   
    50   25   58 1   
    51   26   27 1   
    52   26   59 1   
    53   26   60 1   
    54   27   28 1   
    55   27   61 1   
    56   27   62 1   
    57   28   63 1   
    58   28   64 1   
    59   29   30 ar  
    60   29   65 1   
    61   30   31 ar  
    62   30   66 1   
    63   31   32 1   
    64   32   33 1   
    65   33   34 1   
    66   33   36 1   
    67   33   67 1   
    68   34   35 1   
    69   34   68 1   
    70   34   69 1   
    71   35   38 1   
    72   35   70 1   
    73   35   71 1   
    74   36   37 1   
    75   36   72 1   
    76   36   73 1   
    77   37   38 1   
    78   37   74 1   
    79   37   75 1   
    80   38   39 1   
    81   38   76 1   
    82   39   40 1   
    83   39   77 1   
    84   39   78 1   
    85   40   79 1   
@<TRIPOS>SUBSTRUCTURE
     1 0US         1 TEMP              0 ****  ****    0 ROOT
