@<TRIPOS>MOLECULE
0US
   79    73     1     0     0
SMALL
bcc


@<TRIPOS>ATOM
      1 C16         5.8720   -6.4270    0.0620 c1        1 0US     -0.142500
      2 C15         5.6380   -7.2190   -1.0400 c1        1 0US     -0.142500
      3 C21         6.0120   -6.7290   -2.4050 c2        1 0US      0.013000
      4 N5          4.8080   -6.1890   -3.0860 n3        1 0US     -0.888000
      5 S1          4.7920   -4.6200   -3.6100 s4        1 0US      2.067800
      6 O1          5.4840   -3.7580   -2.6930 o         1 0US     -0.537900
      7 O2          5.5770   -4.4600   -4.7850 o         1 0US     -0.537900
      8 C5          3.0910   -4.0640   -3.8740 c1        1 0US     -0.823000
      9 C7          2.4790   -3.2310   -2.9410 c2        1 0US      0.036000
     10 C22         2.4040   -4.4340   -5.0370 c1        1 0US      0.001000
     11 C26         1.1180   -3.9700   -5.2590 c1        1 0US     -0.142500
     12 C23         0.5010   -3.1300   -4.3170 c1        1 0US     -0.142500
     13 C6          1.1810   -2.7630   -3.1650 c1        1 0US     -0.156000
     14 C4          0.5410   -1.7560   -2.1790 c2        1 0US      0.348000
     15 O3          1.1360   -1.4430   -1.1510 o         1 0US     -0.313000
     16 N3         -0.7830   -1.2800   -2.4080 n         1 0US     -0.298000
     17 C1         -1.4280   -0.4220   -1.4200 c2        1 0US      0.089000
     18 N1         -0.7780    0.7510   -1.6520 n2        1 0US     -0.125000
     19 C2         -1.3540    1.7100   -0.8840 c1        1 0US     -0.083000
     20 C10        -1.1330    3.1170   -0.7930 c1        1 0US     -0.041000
     21 C11        -1.9430    3.8920    0.0150 c1        1 0US     -0.106000
     22 C12        -2.0870    5.4240    0.2050 c3        1 0US     -0.025000
     23 N4         -1.1510    5.8750    1.1870 n3        1 0US     -0.254000
     24 C24        -0.7190    7.3520    0.8580 c3        1 0US     -0.069000
     25 C29         0.1900    7.9650    1.9240 c3        1 0US     -0.175500
     26 C30         0.0980    7.3140    3.0780 c3        1 0US     -0.155000
     27 C28        -1.0200    6.8310    3.5980 c3        1 0US     -0.175500
     28 C25        -1.9230    6.2260    2.5260 c3        1 0US     -0.069000
     29 C17        -2.9800    3.2970    0.7430 c1        1 0US     -0.142500
     30 C9         -3.1960    1.9210    0.6540 c1        1 0US     -0.142500
     31 C3         -2.3690    1.1280   -0.1700 c1        1 0US     -0.003000
     32 N2         -2.4130   -0.1860   -0.5030 n1        1 0US     -0.171000
     33 C8         -3.0570   -1.3830   -0.0180 c2        1 0US      0.054000
     34 C14        -1.9890   -2.4400    0.2650 c3        1 0US     -0.166500
     35 C19        -1.1120   -2.0780    1.4610 c3        1 0US     -0.157500
     36 C13        -3.8730   -1.0370    1.2200 c3        1 0US     -0.166500
     37 C18        -2.9960   -0.6760    2.4140 c3        1 0US     -0.157500
     38 C20        -1.9290   -1.7320    2.6960 c3        1 0US     -0.108000
     39 C27        -0.9960   -1.2150    3.7780 c3        1 0US     -0.017000
     40 O4         -1.1970   -1.9770    4.9870 oh        1 0US     -0.331000
     41 H16         6.2870   -5.5360   -0.0480 DU        1 0US      0.123000
     42 H16A        5.6280   -6.7460    0.9540 ha        1 0US      0.134000
     43 H15         5.2350   -8.0880   -0.9330 ha        1 0US      0.134000
     44 H21         6.3860   -7.4850   -2.9390 h4        1 0US      0.102500
     45 H21A        6.6750   -6.0330   -2.3250 h4        1 0US      0.102500
     46 HN5         4.0570   -6.7150   -3.1810 hn        1 0US      0.245000
     47 H7          2.9560   -2.9740   -2.1320 ha        1 0US      0.171000
     48 H22         2.8270   -5.0110   -5.6840 ha        1 0US      0.162000
     49 H26         0.6470   -4.2240   -6.0570 ha        1 0US      0.134000
     50 H23        -0.3920   -2.8080   -4.4710 ha        1 0US      0.134000
     51 HN3        -1.2550   -1.5620   -3.1520 hn        1 0US      0.234000
     52 H10        -0.4700    3.5560   -1.3990 ha        1 0US      0.164000
     53 H12        -1.9070    5.8840   -0.6620 h1        1 0US      0.075000
     54 H12A       -2.9820    5.6290    0.4980 h1        1 0US      0.075000
     55 H24        -0.2510    7.3580    0.0100 h1        1 0US      0.083500
     56 H24A       -1.5390    7.9130    0.7750 h1        1 0US      0.083500
     57 H29        -0.0640    8.9020    2.0630 hc        1 0US      0.083750
     58 H29A        1.1370    7.9270    1.6040 hc        1 0US      0.083750
     59 H30         0.4630    7.9010    3.7390 hc        1 0US      0.077500
     60 H30A        0.6910    6.5780    3.0070 hc        1 0US      0.077500
     61 H28        -1.5080    7.5620    4.0590 hc        1 0US      0.083750
     62 H28A       -0.7860    6.1190    4.2700 hc        1 0US      0.083750
     63 H25        -2.6420    6.8680    2.3170 h1        1 0US      0.083500
     64 H25A       -2.3300    5.3990    2.8830 h1        1 0US      0.083500
     65 H17        -3.5460    3.8380    1.3070 ha        1 0US      0.134000
     66 H9         -3.9020    1.5160    1.1500 ha        1 0US      0.134000
     67 H8         -3.6710   -1.7250   -0.7220 ha        1 0US      0.091000
     68 H14        -1.4170   -2.5380   -0.5320 hc        1 0US      0.096000
     69 H14A       -2.4360   -3.3080    0.4470 hc        1 0US      0.096000
     70 H19        -0.5210   -2.8460    1.6710 hc        1 0US      0.092500
     71 H19A       -0.5560   -1.3060    1.2230 hc        1 0US      0.092500
     72 H13        -4.4690   -0.2620    1.0090 hc        1 0US      0.096000
     73 H13A       -4.4290   -1.8060    1.4580 hc        1 0US      0.096000
     74 H18        -2.5570    0.1700    2.2360 hc        1 0US      0.092500
     75 H18A       -3.5550   -0.5800    3.1940 hc        1 0US      0.092500
     76 H20        -2.3630   -2.5370    3.0170 hc        1 0US      0.103000
     77 H27        -1.1900   -0.2540    3.9540 h1        1 0US      0.064000
     78 H27A       -0.0540   -1.3140    3.4770 h1        1 0US      0.064000
     79 HO4        -0.6930   -1.6430    5.6350 ho        1 0US      0.199000
@<TRIPOS>BOND
     1    1    2 1   
     2    1   42 1   
     3    2   43 1   
     4    3    4 1   
     5    3   44 1   
     6    3   45 1   
     7    4    5 1   
     8    4   46 1   
     9    5    6 1   
    10    5    7 1   
    11    8    9 1   
    12    8   10 1   
    13    9   13 1   
    14    9   47 1   
    15   10   48 1   
    16   11   12 1   
    17   11   49 1   
    18   12   50 1   
    19   13   14 1   
    20   14   15 1   
    21   14   16 1   
    22   16   17 1   
    23   16   51 1   
    24   17   18 1   
    25   17   32 1   
    26   18   19 1   
    27   19   31 1   
    28   20   21 1   
    29   20   52 1   
    30   21   22 1   
    31   22   23 1   
    32   22   53 1   
    33   22   54 1   
    34   23   24 1   
    35   23   28 1   
    36   24   25 1   
    37   24   55 1   
    38   24   56 1   
    39   25   26 1   
    40   25   57 1   
    41   25   58 1   
    42   26   27 1   
    43   26   59 1   
    44   26   60 1   
    45   27   28 1   
    46   27   61 1   
    47   27   62 1   
    48   28   63 1   
    49   28   64 1   
    50   29   30 1   
    51   29   65 1   
    52   30   66 1   
    53   33   34 1   
    54   33   36 1   
    55   33   67 1   
    56   34   35 1   
    57   34   68 1   
    58   34   69 1   
    59   35   38 1   
    60   35   70 1   
    61   35   71 1   
    62   36   37 1   
    63   36   72 1   
    64   36   73 1   
    65   37   38 1   
    66   37   74 1   
    67   37   75 1   
    68   38   39 1   
    69   38   76 1   
    70   39   40 1   
    71   39   77 1   
    72   39   78 1   
    73   40   79 1   
@<TRIPOS>SUBSTRUCTURE
     1 0US         1 TEMP              0 ****  ****    0 ROOT
