@<TRIPOS>MOLECULE
0UT
   28    26     1     0     0
SMALL
bcc


@<TRIPOS>ATOM
      1 O01         0.2590   -0.1420   -1.9620 o         1 0UT     -0.549000
      2 C02         1.0570   -0.1060   -0.9860 c2        1 0UT      0.326000
      3 O03         0.7500   -0.1920    0.2300 o         1 0UT     -0.549000
      4 C04         2.5750    0.1030   -1.3620 c3        1 0UT      0.025000
      5 O05         2.6640    0.6030   -2.6930 oh        1 0UT     -0.375000
      6 C07         3.1400    1.1780   -0.4210 c3        1 0UT     -0.058000
      7 H2          1.8550    0.3120   -3.1510 ho        1 0UT      0.235000
      8 C1          3.0170   -2.0060   -0.0840 c2        1 0UT     -0.075000
      9 C2          3.0710   -3.3430    0.0170 c2        1 0UT     -0.132000
     10 C3          3.4180   -4.2560   -1.0510 c2        1 0UT     -0.410000
     11 C4          3.9370   -5.4570   -0.9580 c1        1 0UT      0.112000
     12 C5          4.2700   -1.5380   -2.1530 c2        1 0UT     -0.225000
     13 C06         3.3420   -1.1950   -1.2470 c2        1 0UT     -0.066000
     14 H11         3.1930   -3.8710   -2.0760 ha        1 0UT      0.205000
     15 H12         4.8720   -2.4510   -2.0740 ha        1 0UT      0.110500
     16 H13         4.4890   -0.8950   -3.0160 ha        1 0UT      0.110500
     17 C6          1.7640    4.7430   -3.2190 c1        1 0UT     -0.054000
     18 C7          2.6850    3.6860   -3.3730 c2        1 0UT     -0.565000
     19 C8          3.7930    3.7240   -4.0880 c1        1 0UT      0.324000
     20 C9          5.7190    1.6540   -0.6120 c1        1 0UT     -0.284000
     21 C10         4.5460    1.4250   -0.5360 c1        1 0UT     -0.114000
     22 H3          2.5800    2.1340   -0.6260 hc        1 0UT      0.116000
     23 H4          0.8870    4.5200   -2.5870 ha        1 0UT      0.041000
     24 H5          2.5100    2.6870   -2.8670 ha        1 0UT      0.243000
     25 H6          6.7550    1.8480   -0.6870 ha        1 0UT      0.206000
     26 H7          2.8900    0.8570    0.6310 hc        1 0UT      0.116000
     27 H9          2.6340   -1.4210    0.7800 ha        1 0UT      0.168000
     28 H10         2.7900   -3.8240    0.9690 ha        1 0UT      0.118000
@<TRIPOS>BOND
     1    1    2 1   
     2    2    3 1   
     3    2    4 1   
     4    4    5 1   
     5    4    6 1   
     6    4   13 1   
     7    5    7 1   
     8    6   21 1   
     9    6   22 1   
    10    6   26 1   
    11    8    9 1   
    12    8   13 1   
    13    8   27 1   
    14    9   10 1   
    15    9   28 1   
    16   10   11 1   
    17   10   14 1   
    18   12   13 1   
    19   12   15 1   
    20   12   16 1   
    21   17   18 1   
    22   17   23 1   
    23   18   19 1   
    24   18   24 1   
    25   20   21 1   
    26   20   25 1   
@<TRIPOS>SUBSTRUCTURE
     1 0UT         1 TEMP              0 ****  ****    0 ROOT
