@<TRIPOS>MOLECULE
0UT
   28    23     1     0     0
SMALL
bcc


@<TRIPOS>ATOM
      1 O01        -2.5880    0.9330    1.8560 o         1 0UT     -0.537500
      2 C02        -1.3330    0.7820    1.9140 c1        1 0UT      0.369000
      3 O03        -0.7850    0.6180    3.0040 o         1 0UT     -0.537500
      4 C04        -0.4690    0.9430    0.6250 c2        1 0UT      0.044000
      5 O05        -0.3760    2.3310    0.2800 oh        1 0UT     -0.278000
      6 C07        -1.1270    0.1670   -0.5410 c2        1 0UT     -0.042000
      7 H2          0.1620    2.4270   -0.4160 ho        1 0UT      0.155000
      8 C1          1.0800   -0.8760    1.4030 c1        1 0UT     -0.093000
      9 C2          2.3660   -1.4110    1.5760 c1        1 0UT     -0.148833
     10 C3          3.5070   -0.6440    1.2130 c1        1 0UT     -0.148833
     11 C4          3.3470    0.6240    0.6930 c1        1 0UT     -0.148833
     12 C5          2.0670    1.1540    0.5220 c1        1 0UT     -0.148833
     13 C06         0.9260    0.3900    0.8840 c1        1 0UT     -0.047000
     14 H9          0.2860   -1.4050    1.6540 ha        1 0UT      0.170000
     15 H10         2.4780   -2.3010    1.9410 ha        1 0UT      0.112500
     16 H11         4.4430   -1.0280    1.3370 ha        1 0UT      0.112500
     17 H12         4.1560    1.1680    0.4350 ha        1 0UT      0.112500
     18 H13         1.9550    2.0680    0.1610 ha        1 0UT      0.112500
     19 C6         -1.9480   -0.8960   -0.2750 c1        1 0UT     -0.112000
     20 C7         -2.6510   -1.5050   -1.3050 c1        1 0UT     -0.148833
     21 C8         -2.5230   -1.0370   -2.6030 c1        1 0UT     -0.148833
     22 C9         -1.7000    0.0280   -2.8690 c1        1 0UT     -0.148000
     23 C10        -0.9970    0.6360   -1.8340 c2        1 0UT     -0.138000
     24 H3         -2.0390   -1.2230    0.6350 ha        1 0UT      0.190000
     25 H4         -3.1890   -2.2230   -1.1280 ha        1 0UT      0.112500
     26 H5         -3.0220   -1.4700   -3.3360 ha        1 0UT      0.112500
     27 H6         -1.6070    0.3690   -3.8060 ha        1 0UT      0.108000
     28 H7         -0.4200    1.3810   -2.0180 ha        1 0UT      0.114000
@<TRIPOS>BOND
     1    1    2 1   
     2    2    3 1   
     3    4    5 1   
     4    4    6 1   
     5    4   13 1   
     6    5    7 1   
     7    6   19 1   
     8    6   23 1   
     9    8   13 1   
    10    8   14 1   
    11    9   10 1   
    12    9   15 1   
    13   10   16 1   
    14   11   12 1   
    15   11   17 1   
    16   12   18 1   
    17   19   24 1   
    18   20   21 1   
    19   20   25 1   
    20   21   26 1   
    21   22   23 1   
    22   22   27 1   
    23   23   28 1   
@<TRIPOS>SUBSTRUCTURE
     1 0UT         1 TEMP              0 ****  ****    0 ROOT
