@<TRIPOS>MOLECULE
0UT
   28    29     1     0     0
SMALL
bcc


@<TRIPOS>ATOM
      1 O01        -0.1210   -3.1700   -0.0530 o         1 0UT     -0.802800
      2 C02         0.0600   -2.0360   -0.5470 c         1 0UT      0.949600
      3 O03         0.2810   -1.7870   -1.7650 o         1 0UT     -0.802800
      4 C04         0.0020   -0.7800    0.4390 c3        1 0UT      0.080400
      5 O05        -0.0320   -1.3460    1.7420 oh        1 0UT     -0.550800
      6 C07         1.2290    0.0800    0.2480 ca        1 0UT     -0.051800
      7 H2         -0.0190   -0.6160    2.3730 ho        1 0UT      0.356000
      8 C1         -1.7990    0.1410   -1.0910 ca        1 0UT     -0.120750
      9 C2         -2.9330    0.9180   -1.3200 ca        1 0UT     -0.147250
     10 C3         -3.5300    1.6250   -0.2770 ca        1 0UT     -0.156000
     11 C4         -2.9830    1.5460    1.0020 ca        1 0UT     -0.147250
     12 C5         -1.8470    0.7710    1.2330 ca        1 0UT     -0.120750
     13 C06        -1.2370    0.0580    0.1920 ca        1 0UT     -0.051800
     14 H11        -4.4250    2.2340   -0.4600 ha        1 0UT      0.106500
     15 H12        -3.4470    2.0950    1.8330 ha        1 0UT      0.110500
     16 H13        -1.4410    0.7260    2.2540 ha        1 0UT      0.150500
     17 C6          2.1650    0.2650    1.2730 ca        1 0UT     -0.120750
     18 C7          3.2830    1.0760    1.0760 ca        1 0UT     -0.147250
     19 C8          3.4880    1.7040   -0.1500 ca        1 0UT     -0.156000
     20 C9          2.5770    1.5000   -1.1880 ca        1 0UT     -0.147250
     21 C10         1.4600    0.6930   -0.9930 ca        1 0UT     -0.120750
     22 H3          2.0400   -0.2540    2.2350 ha        1 0UT      0.150500
     23 H4          4.0080    1.2120    1.8910 ha        1 0UT      0.110500
     24 H5          4.3670    2.3440   -0.3040 ha        1 0UT      0.106500
     25 H6          2.7460    1.9710   -2.1660 ha        1 0UT      0.110500
     26 H7          0.7610    0.4810   -1.8210 ha        1 0UT      0.150500
     27 H9         -1.3380   -0.4300   -1.9190 ha        1 0UT      0.150500
     28 H10        -3.3610    0.9680   -2.3310 ha        1 0UT      0.110500
@<TRIPOS>BOND
     1    1    2 1   
     2    2    3 1   
     3    2    4 1   
     4    4    5 1   
     5    4    6 1   
     6    4   13 1   
     7    5    7 1   
     8    6   17 ar  
     9    6   21 ar  
    10    8    9 ar  
    11    8   13 ar  
    12    8   27 1   
    13    9   10 ar  
    14    9   28 1   
    15   10   11 ar  
    16   10   14 1   
    17   11   12 ar  
    18   11   15 1   
    19   12   13 ar  
    20   12   16 1   
    21   17   18 ar  
    22   17   22 1   
    23   18   19 ar  
    24   18   23 1   
    25   19   20 ar  
    26   19   24 1   
    27   20   21 ar  
    28   20   25 1   
    29   21   26 1   
@<TRIPOS>SUBSTRUCTURE
     1 0UT         1 TEMP              0 ****  ****    0 ROOT
