@<TRIPOS>MOLECULE
0UT
   28    26     1     0     0
SMALL
bcc


@<TRIPOS>ATOM
      1 O01         2.4400    1.7840   -3.0140 o         1 0UT     -0.566500
      2 C02         2.8960    1.2530   -1.9600 c2        1 0UT      0.313000
      3 O03         2.6820    1.7170   -0.8050 o         1 0UT     -0.566500
      4 C04         3.7820   -0.0220   -2.1350 c3        1 0UT      0.056000
      5 O05         4.1950   -0.1410   -3.4920 oh        1 0UT     -0.351000
      6 C07         5.0480    0.1650   -1.2830 c3        1 0UT     -0.056000
      7 H2          3.5900    0.4050   -4.0210 ho        1 0UT      0.228000
      8 C1          2.5560   -1.2620   -0.3350 c2        1 0UT     -0.054000
      9 C2          2.2860   -2.3280    0.4400 c2        1 0UT     -0.135000
     10 C3          2.4000   -3.6810    0.0960 c1        1 0UT     -0.080000
     11 C4          2.4870   -4.8510   -0.1530 c1        1 0UT     -0.276000
     12 C5          2.7130   -2.2260   -2.5930 c2        1 0UT     -0.197000
     13 C06         3.0050   -1.2530   -1.7180 c2        1 0UT     -0.082000
     14 H11         2.5710   -5.8790   -0.3840 ha        1 0UT      0.208000
     15 H12         2.1290   -3.1120   -2.3140 ha        1 0UT      0.113500
     16 H13         3.0460   -2.1760   -3.6380 ha        1 0UT      0.113500
     17 C6          1.0300    4.2720   -1.6660 c1        1 0UT     -0.035000
     18 C7          0.4790    5.3600   -1.5670 c1        1 0UT     -0.314000
     19 C8         -0.2600    6.4740   -1.4430 c1        1 0UT     -0.035000
     20 C9          6.6860   -1.8910   -1.2060 c1        1 0UT     -0.287000
     21 C10         5.9300   -0.9640   -1.2480 c1        1 0UT     -0.104000
     22 H3          5.6040    1.0530   -1.6960 hc        1 0UT      0.114500
     23 H4          1.5260    3.3130   -1.7550 ha        1 0UT      0.184500
     24 H5          0.2130    7.4630   -1.4760 ha        1 0UT      0.184500
     25 H6          7.3430   -2.7180   -1.1730 ha        1 0UT      0.203000
     26 H7          4.7110    0.4220   -0.2390 hc        1 0UT      0.114500
     27 H9          2.4330   -0.2440    0.1000 ha        1 0UT      0.180000
     28 H10         1.9420   -2.1580    1.4790 ha        1 0UT      0.124000
@<TRIPOS>BOND
     1    1    2 1   
     2    2    3 1   
     3    2    4 1   
     4    4    5 1   
     5    4    6 1   
     6    4   13 1   
     7    5    7 1   
     8    6   21 1   
     9    6   22 1   
    10    6   26 1   
    11    8    9 1   
    12    8   13 1   
    13    8   27 1   
    14    9   10 1   
    15    9   28 1   
    16   10   11 1   
    17   11   14 1   
    18   12   13 1   
    19   12   15 1   
    20   12   16 1   
    21   17   18 1   
    22   17   23 1   
    23   18   19 1   
    24   19   24 1   
    25   20   21 1   
    26   20   25 1   
@<TRIPOS>SUBSTRUCTURE
     1 0UT         1 TEMP              0 ****  ****    0 ROOT
