@<TRIPOS>MOLECULE
0UT
   28    26     1     0     0
SMALL
bcc


@<TRIPOS>ATOM
      1 O01         0.2830   -0.1150   -1.9790 o         1 0UT     -0.549000
      2 C02         1.0760   -0.0850   -0.9990 c2        1 0UT      0.325000
      3 O03         0.7620   -0.1660    0.2160 o         1 0UT     -0.549000
      4 C04         2.5980    0.1090   -1.3670 c3        1 0UT      0.025000
      5 O05         2.6960    0.6060   -2.6990 oh        1 0UT     -0.374000
      6 C07         3.1680    1.1800   -0.4260 c3        1 0UT     -0.057000
      7 H2          1.8910    0.3140   -3.1620 ho        1 0UT      0.235000
      8 C1          3.0130   -2.0020   -0.0840 c2        1 0UT     -0.075000
      9 C2          3.0540   -3.3400    0.0180 c2        1 0UT     -0.132000
     10 C3          3.3990   -4.2580   -1.0460 c2        1 0UT     -0.410000
     11 C4          3.9060   -5.4630   -0.9490 c1        1 0UT      0.113000
     12 C5          4.2810   -1.5490   -2.1480 c2        1 0UT     -0.225000
     13 C06         3.3520   -1.1960   -1.2470 c2        1 0UT     -0.066000
     14 H11         3.1830   -3.8720   -2.0730 ha        1 0UT      0.205000
     15 H12         4.8740   -2.4670   -2.0640 ha        1 0UT      0.110500
     16 H13         4.5100   -0.9090   -3.0100 ha        1 0UT      0.110500
     17 C6          1.6860    4.7240   -3.2140 c1        1 0UT     -0.054000
     18 C7          2.6400    3.6950   -3.3610 c2        1 0UT     -0.565000
     19 C8          3.7590    3.7720   -4.0550 c1        1 0UT      0.323000
     20 C9          5.7520    1.6340   -0.6090 c1        1 0UT     -0.284000
     21 C10         4.5770    1.4150   -0.5360 c1        1 0UT     -0.114000
     22 H3          2.6170    2.1400   -0.6330 hc        1 0UT      0.116000
     23 H4          0.8050    4.4700   -2.6000 ha        1 0UT      0.042000
     24 H5          2.4850    2.6870   -2.8660 ha        1 0UT      0.243000
     25 H6          6.7900    1.8200   -0.6810 ha        1 0UT      0.206000
     26 H7          2.9130    0.8620    0.6260 hc        1 0UT      0.116000
     27 H9          2.6310   -1.4130    0.7770 ha        1 0UT      0.168000
     28 H10         2.7640   -3.8170    0.9700 ha        1 0UT      0.118000
@<TRIPOS>BOND
     1    1    2 1   
     2    2    3 1   
     3    2    4 1   
     4    4    5 1   
     5    4    6 1   
     6    4   13 1   
     7    5    7 1   
     8    6   21 1   
     9    6   22 1   
    10    6   26 1   
    11    8    9 1   
    12    8   13 1   
    13    8   27 1   
    14    9   10 1   
    15    9   28 1   
    16   10   11 1   
    17   10   14 1   
    18   12   13 1   
    19   12   15 1   
    20   12   16 1   
    21   17   18 1   
    22   17   23 1   
    23   18   19 1   
    24   18   24 1   
    25   20   21 1   
    26   20   25 1   
@<TRIPOS>SUBSTRUCTURE
     1 0UT         1 TEMP              0 ****  ****    0 ROOT
