@<TRIPOS>MOLECULE
0UU
   70    74     1     0     0
SMALL
bcc


@<TRIPOS>ATOM
      1 C28         1.4320   -3.9270    1.4070 c3        1 0UU      0.122700
      2 O2          2.5630   -3.0740    1.2100 os        1 0UU     -0.431900
      3 C27         2.5470   -1.8720    1.8540 c         1 0UU      0.628100
      4 O3          1.5760   -1.5830    2.5550 o         1 0UU     -0.531000
      5 C15         3.7810   -1.0480    1.5880 c3        1 0UU     -0.110700
      6 C16         4.4250   -0.6650    2.9100 c3        1 0UU     -0.084400
      7 C17         5.6170    0.2450    2.7190 c3        1 0UU     -0.086400
      8 C14         3.3900    0.2110    0.8300 c3        1 0UU     -0.084400
      9 C13         4.6100    1.0620    0.5640 c3        1 0UU     -0.086400
     10 C12         5.3870    1.4750    1.8300 c3        1 0UU      0.040000
     11 N2          4.8650    2.6590    2.4950 na        1 0UU     -0.109300
     12 C3          4.0750    2.8110    3.6470 ca        1 0UU     -0.020200
     13 C5          3.8520    2.0000    4.7740 ca        1 0UU     -0.121000
     14 C6          3.0260    2.4810    5.7790 ca        1 0UU     -0.015300
     15 C18         2.6960    1.6190    6.9690 c3        1 0UU      0.200100
     16 N3          3.8430    0.9010    7.5090 n3        1 0UU     -0.738600
     17 C7          3.4340   -0.2670    8.2830 c3        1 0UU      0.166300
     18 C8          4.6130   -1.0380    8.8730 c3        1 0UU     -0.076900
     19 C9          5.5220   -0.1270    9.6690 c3        1 0UU     -0.081400
     20 C10         5.9530    1.0540    8.8290 c3        1 0UU     -0.076900
     21 C11         4.7450    1.7820    8.2440 c3        1 0UU      0.166300
     22 C4          2.4330    3.7660    5.7010 ca        1 0UU     -0.133000
     23 C2          2.6730    4.6110    4.6390 ca        1 0UU     -0.053000
     24 C1          3.5150    4.1570    3.6030 ca        1 0UU      0.045400
     25 N1          3.9650    4.8260    2.4680 nc        1 0UU     -0.498100
     26 C19         4.7540    3.9200    1.8250 cd        1 0UU      0.365700
     27 N4          5.5180    4.2710    0.6250 n4        1 0UU     -0.594800
     28 C20         6.9590    4.6560    0.9780 c         1 0UU      0.594700
     29 O1          7.7090    3.6940    1.0770 o         1 0UU     -0.442100
     30 C21         7.2730    6.0750    1.0810 ca        1 0UU     -0.203600
     31 C22         6.3150    7.0880    1.2480 ca        1 0UU     -0.058500
     32 C23         6.7250    8.4140    1.3440 ca        1 0UU     -0.130500
     33 C24         8.0820    8.7440    1.2780 ca        1 0UU     -0.046000
     34 C25         9.0370    7.7390    1.1210 ca        1 0UU     -0.130500
     35 C26         8.6430    6.4080    1.0260 ca        1 0UU     -0.058500
     36 H1          1.6760   -4.8300    0.7940 h1        1 0UU      0.058367
     37 H2          1.3310   -4.1790    2.4900 h1        1 0UU      0.058367
     38 H3          0.5070   -3.4200    1.0420 h1        1 0UU      0.058367
     39 H4          4.4990   -1.6580    0.9710 hc        1 0UU      0.089700
     40 H5          4.7660   -1.5900    3.4470 hc        1 0UU      0.073700
     41 H6          3.6370   -0.1810    3.5480 hc        1 0UU      0.073700
     42 H7          6.4340   -0.3420    2.2150 hc        1 0UU      0.059700
     43 H8          6.0120    0.5610    3.7210 hc        1 0UU      0.059700
     44 H9          2.6310    0.7850    1.4250 hc        1 0UU      0.073700
     45 H10         2.9150   -0.0680   -0.1470 hc        1 0UU      0.073700
     46 H11         5.3310    0.4800   -0.0730 hc        1 0UU      0.059700
     47 H12         4.2790    1.9530   -0.0300 hc        1 0UU      0.059700
     48 H13         6.4280    1.7940    1.4880 h1        1 0UU      0.065700
     49 H14         4.3380    1.0200    4.8880 ha        1 0UU      0.176000
     50 H15         1.9310    0.8610    6.6200 h1        1 0UU      0.056700
     51 H16         2.1970    2.2590    7.7570 h1        1 0UU      0.056700
     52 H18         2.7390    0.0230    9.1250 h1        1 0UU      0.033950
     53 H19         2.8660   -0.9510    7.5900 h1        1 0UU      0.033950
     54 H20         4.2070   -1.8490    9.5310 hc        1 0UU      0.049700
     55 H21         5.1970   -1.5260    8.0500 hc        1 0UU      0.049700
     56 H22         6.4230   -0.6970   10.0150 hc        1 0UU      0.048200
     57 H23         4.9830    0.2380   10.5840 hc        1 0UU      0.048200
     58 H24         6.6230    0.7040    8.0010 hc        1 0UU      0.049700
     59 H25         6.5340    1.7820    9.4530 hc        1 0UU      0.049700
     60 H26         4.2060    2.3100    9.0860 h1        1 0UU      0.033950
     61 H27         5.1030    2.5690    7.5220 h1        1 0UU      0.033950
     62 H28         1.7740    4.0990    6.5210 ha        1 0UU      0.157000
     63 H29         2.2340    5.6190    4.5920 ha        1 0UU      0.164000
     64 H30         5.0480    5.0580    0.1580 hn        1 0UU      0.473300
     65 H31         5.2390    6.8690    1.3370 ha        1 0UU      0.161000
     66 H32         5.9720    9.2090    1.4810 ha        1 0UU      0.167500
     67 H33         8.3960    9.7980    1.3540 ha        1 0UU      0.166000
     68 H34        10.1090    7.9950    1.0750 ha        1 0UU      0.167500
     69 H35         9.3970    5.6100    0.9120 ha        1 0UU      0.161000
     70 H42         5.5360    3.4590   -0.0080 hn        1 0UU      0.473300
@<TRIPOS>BOND
     1    1    2 1   
     2    1   36 1   
     3    1   37 1   
     4    1   38 1   
     5    2    3 1   
     6    3    4 2   
     7    3    5 1   
     8    5    6 1   
     9    5    8 1   
    10    5   39 1   
    11    6    7 1   
    12    6   40 1   
    13    6   41 1   
    14    7   10 1   
    15    7   42 1   
    16    7   43 1   
    17    8    9 1   
    18    8   44 1   
    19    8   45 1   
    20    9   10 1   
    21    9   46 1   
    22    9   47 1   
    23   10   11 1   
    24   10   48 1   
    25   11   12 1   
    26   11   26 1   
    27   12   13 ar  
    28   12   24 ar  
    29   13   14 ar  
    30   13   49 1   
    31   14   15 1   
    32   14   22 ar  
    33   15   16 1   
    34   15   50 1   
    35   15   51 1   
    36   16   17 1   
    37   16   21 1   
    38   17   18 1   
    39   17   52 1   
    40   17   53 1   
    41   18   19 1   
    42   18   54 1   
    43   18   55 1   
    44   19   20 1   
    45   19   56 1   
    46   19   57 1   
    47   20   21 1   
    48   20   58 1   
    49   20   59 1   
    50   21   60 1   
    51   21   61 1   
    52   22   23 ar  
    53   22   62 1   
    54   23   24 ar  
    55   23   63 1   
    56   24   25 1   
    57   25   26 2   
    58   26   27 1   
    59   27   28 1   
    60   27   64 1   
    61   27   70 1   
    62   28   29 2   
    63   28   30 1   
    64   30   31 ar  
    65   30   35 ar  
    66   31   32 ar  
    67   31   65 1   
    68   32   33 ar  
    69   32   66 1   
    70   33   34 ar  
    71   33   67 1   
    72   34   35 ar  
    73   34   68 1   
    74   35   69 1   
@<TRIPOS>SUBSTRUCTURE
     1 0UU         1 TEMP              0 ****  ****    0 ROOT
