@<TRIPOS>MOLECULE
0UU
   69    73     1     0     0
SMALL
bcc


@<TRIPOS>ATOM
      1 C28         0.3030   -1.8180    0.3750 c3        1 0UU      0.125700
      2 O2          1.5850   -1.1900    0.4030 os        1 0UU     -0.441900
      3 C27         2.0340   -0.7570    1.6230 c         1 0UU      0.632100
      4 O3          1.3190   -0.9580    2.6060 o         1 0UU     -0.537000
      5 C15         3.3780   -0.0880    1.5400 c3        1 0UU     -0.109700
      6 C16         4.1260   -0.2500    2.8520 c3        1 0UU     -0.077400
      7 C17         5.4700    0.4450    2.8200 c3        1 0UU     -0.090900
      8 C14         3.2010    1.3950    1.2460 c3        1 0UU     -0.077400
      9 C13         4.5510    2.0580    1.1150 c3        1 0UU     -0.090900
     10 C12         5.4590    1.9070    2.3510 c3        1 0UU      0.073000
     11 N2          5.2450    2.9100    3.3740 na        1 0UU     -0.147300
     12 C3          4.6280    2.8460    4.6330 ca        1 0UU     -0.053200
     13 C5          4.2570    1.7920    5.4800 ca        1 0UU     -0.115000
     14 C6          3.6830    2.0960    6.7090 ca        1 0UU     -0.068300
     15 C18         3.2100    0.9830    7.6020 c3        1 0UU      0.212100
     16 N3          4.2390   -0.0060    7.9090 n3        1 0UU     -0.729600
     17 C7          3.6660   -1.1980    8.5240 c3        1 0UU      0.167300
     18 C8          4.7100   -2.2590    8.8630 c3        1 0UU     -0.076400
     19 C9          5.8290   -1.6800    9.7010 c3        1 0UU     -0.078400
     20 C10         6.4200   -0.4630    9.0240 c3        1 0UU     -0.076400
     21 C11         5.3360    0.5580    8.6860 c3        1 0UU      0.167300
     22 C4          3.4950    3.4300    7.1250 ca        1 0UU     -0.150000
     23 C2          3.8970    4.4930    6.3370 ca        1 0UU     -0.071000
     24 C1          4.4830    4.2210    5.0910 ca        1 0UU      0.061400
     25 N1          5.0240    5.1020    4.1460 nc        1 0UU     -0.559100
     26 C19         5.4760    4.3120    3.1380 cd        1 0UU      0.428400
     27 N4          6.1860    4.7780    1.9980 n         1 0UU     -0.462400
     28 C20         5.5100    5.5100    1.0070 c         1 0UU      0.673700
     29 O1          4.2790    5.4330    0.8690 o         1 0UU     -0.555100
     30 C21         6.3580    6.3300    0.0950 ca        1 0UU     -0.151600
     31 C22         7.6160    5.8990   -0.3390 ca        1 0UU     -0.087500
     32 C23         8.3620    6.7000   -1.2030 ca        1 0UU     -0.138000
     33 C24         7.8570    7.9280   -1.6310 ca        1 0UU     -0.104000
     34 C25         6.6000    8.3550   -1.2040 ca        1 0UU     -0.138000
     35 C26         5.8460    7.5560   -0.3450 ca        1 0UU     -0.087500
     36 H1         -0.4770   -1.1090    0.7430 h1        1 0UU      0.050367
     37 H2          0.3150   -2.7360    1.0110 h1        1 0UU      0.050367
     38 H3          0.1540   -2.0680   -0.7040 h1        1 0UU      0.050367
     39 H4          3.9580   -0.5670    0.7020 hc        1 0UU      0.079700
     40 H5          3.4740    0.1560    3.6710 hc        1 0UU      0.065200
     41 H6          4.2870   -1.3400    3.0660 hc        1 0UU      0.065200
     42 H7          5.9540    0.3640    3.8290 hc        1 0UU      0.061450
     43 H8          6.1300   -0.1030    2.0930 hc        1 0UU      0.061450
     44 H9          2.6110    1.8780    2.0680 hc        1 0UU      0.065200
     45 H10         2.6270    1.5240    0.2910 hc        1 0UU      0.065200
     46 H11         4.3880    3.1420    0.8690 hc        1 0UU      0.061450
     47 H12         5.1060    1.5970    0.2530 hc        1 0UU      0.061450
     48 H13         6.5190    2.1120    1.9850 h1        1 0UU      0.055700
     49 H14         4.4320    0.7400    5.2150 ha        1 0UU      0.155000
     50 H15         2.7730    1.4270    8.5460 h1        1 0UU      0.041700
     51 H16         2.3740    0.4470    7.0640 h1        1 0UU      0.041700
     52 H18         3.0970   -0.9420    9.4670 h1        1 0UU      0.032200
     53 H19         2.9300   -1.6360    7.7920 h1        1 0UU      0.032200
     54 H20         5.1330   -2.6880    7.9170 hc        1 0UU      0.045450
     55 H21         4.2020   -3.0890    9.4180 hc        1 0UU      0.045450
     56 H22         6.6250   -2.4530    9.8590 hc        1 0UU      0.039200
     57 H23         5.4330   -1.3930   10.7110 hc        1 0UU      0.039200
     58 H24         7.1700    0.0280    9.6960 hc        1 0UU      0.045450
     59 H25         6.9520   -0.7740    8.0870 hc        1 0UU      0.045450
     60 H26         5.7880    1.3860    8.0700 h1        1 0UU      0.032200
     61 H27         4.9640    1.0140    9.6520 h1        1 0UU      0.032200
     62 H28         3.0280    3.6270    8.1020 ha        1 0UU      0.133000
     63 H29         3.7710    5.5340    6.6710 ha        1 0UU      0.148000
     64 H30         7.1160    5.0730    2.2140 hn        1 0UU      0.320500
     65 H31         8.0190    4.9260   -0.0200 ha        1 0UU      0.148000
     66 H32         9.3490    6.3600   -1.5470 ha        1 0UU      0.139500
     67 H33         8.4510    8.5590   -2.3100 ha        1 0UU      0.137000
     68 H34         6.1990    9.3200   -1.5460 ha        1 0UU      0.139500
     69 H35         4.8450    7.8760   -0.0130 ha        1 0UU      0.148000
@<TRIPOS>BOND
     1    1    2 1   
     2    1   36 1   
     3    1   37 1   
     4    1   38 1   
     5    2    3 1   
     6    3    4 2   
     7    3    5 1   
     8    5    6 1   
     9    5    8 1   
    10    5   39 1   
    11    6    7 1   
    12    6   40 1   
    13    6   41 1   
    14    7   10 1   
    15    7   42 1   
    16    7   43 1   
    17    8    9 1   
    18    8   44 1   
    19    8   45 1   
    20    9   10 1   
    21    9   46 1   
    22    9   47 1   
    23   10   11 1   
    24   10   48 1   
    25   11   12 1   
    26   11   26 1   
    27   12   13 ar  
    28   12   24 ar  
    29   13   14 ar  
    30   13   49 1   
    31   14   15 1   
    32   14   22 ar  
    33   15   16 1   
    34   15   50 1   
    35   15   51 1   
    36   16   17 1   
    37   16   21 1   
    38   17   18 1   
    39   17   52 1   
    40   17   53 1   
    41   18   19 1   
    42   18   54 1   
    43   18   55 1   
    44   19   20 1   
    45   19   56 1   
    46   19   57 1   
    47   20   21 1   
    48   20   58 1   
    49   20   59 1   
    50   21   60 1   
    51   21   61 1   
    52   22   23 ar  
    53   22   62 1   
    54   23   24 ar  
    55   23   63 1   
    56   24   25 1   
    57   25   26 2   
    58   26   27 1   
    59   27   28 1   
    60   27   64 1   
    61   28   29 2   
    62   28   30 1   
    63   30   31 ar  
    64   30   35 ar  
    65   31   32 ar  
    66   31   65 1   
    67   32   33 ar  
    68   32   66 1   
    69   33   34 ar  
    70   33   67 1   
    71   34   35 ar  
    72   34   68 1   
    73   35   69 1   
@<TRIPOS>SUBSTRUCTURE
     1 0UU         1 TEMP              0 ****  ****    0 ROOT
