@<TRIPOS>MOLECULE
0UU
   69    65     1     0     0
SMALL
bcc


@<TRIPOS>ATOM
      1 C28        -4.7790   -3.3100   -4.1170 c3        1 0UU     -0.064000
      2 O2         -3.3470   -3.1340   -4.2180 os        1 0UU     -0.280000
      3 C27        -2.7940   -2.3580   -3.1800 c1        1 0UU      0.303000
      4 O3         -3.4950   -1.5970   -2.5580 o         1 0UU     -0.348000
      5 C15        -1.3150   -2.5030   -2.8200 c2        1 0UU     -0.099000
      6 C16        -1.1020   -2.5630   -1.2710 c3        1 0UU     -0.156000
      7 C17         0.3640   -2.5960   -0.8720 c3        1 0UU     -0.169500
      8 C14        -0.4700   -1.3400   -3.4030 c3        1 0UU     -0.156000
      9 C13         0.9800   -1.3900   -2.9770 c3        1 0UU     -0.169500
     10 C12         1.1520   -1.4910   -1.4780 c3        1 0UU      0.053000
     11 N2          0.7280   -0.2360   -0.8760 n3        1 0UU     -0.173000
     12 C3          0.0450    0.3210    0.1690 c1        1 0UU     -0.008000
     13 C5         -0.7570   -0.2470    1.1950 c1        1 0UU     -0.115000
     14 C6         -1.3480    0.5770    2.1530 c1        1 0UU     -0.061000
     15 C18        -2.4380    0.1770    3.1880 c2        1 0UU     -0.032000
     16 N3         -1.8600    0.1310    4.4970 n3        1 0UU     -0.255000
     17 C7         -2.4070   -1.0220    5.2330 c3        1 0UU     -0.069500
     18 C8         -1.9530   -1.0550    6.6790 c3        1 0UU     -0.155000
     19 C9         -2.1950    0.2240    7.3730 c3        1 0UU     -0.157000
     20 C10        -1.6420    1.3830    6.6290 c3        1 0UU     -0.155000
     21 C11        -2.0970    1.4100    5.1840 c3        1 0UU     -0.069500
     22 C4         -1.1520    1.9560    2.1020 c2        1 0UU     -0.150000
     23 C2         -0.3540    2.5190    1.0830 c1        1 0UU     -0.072000
     24 C1          0.2390    1.6930    0.1220 c1        1 0UU     -0.078000
     25 N1          1.0320    1.9670   -0.9400 n1        1 0UU     -0.133000
     26 C19         1.3390    0.7720   -1.5650 c1        1 0UU      0.096000
     27 N4          2.5490    0.9410   -2.3300 n2        1 0UU     -0.305000
     28 C20         3.1770    2.2470   -2.4100 c2        1 0UU      0.349000
     29 O1          2.6820    3.1960   -1.8310 o         1 0UU     -0.316000
     30 C21         4.4090    2.4500   -3.2910 c2        1 0UU     -0.127000
     31 C22         4.2630    2.9310   -4.5890 c2        1 0UU     -0.077000
     32 C23         5.3870    3.0880   -5.4080 c1        1 0UU     -0.136000
     33 C24         6.6610    2.7610   -4.9220 c1        1 0UU     -0.120500
     34 C25         6.8090    2.2780   -3.6190 c1        1 0UU     -0.120500
     35 C26         5.6860    2.1210   -2.8010 c1        1 0UU     -0.102000
     36 H1         -5.2190   -2.4270   -4.1020 h1        1 0UU      0.089667
     37 H2         -5.1010   -3.8230   -4.8900 h1        1 0UU      0.089667
     38 H3         -4.9920   -3.7940   -3.2920 h1        1 0UU      0.089667
     39 H4         -1.0940   -3.3670   -3.2530 ha        1 0UU      0.119000
     40 H5         -1.5230   -1.7700   -0.8630 hc        1 0UU      0.104250
     41 H6         -1.5380   -3.3640   -0.9250 hc        1 0UU      0.104250
     42 H7          0.7440   -3.4380   -1.1500 hc        1 0UU      0.100750
     43 H8          0.4260   -2.5290    0.0980 hc        1 0UU      0.100750
     44 H9         -0.5120   -1.3810   -4.3880 hc        1 0UU      0.104250
     45 H10        -0.8600   -0.4800   -3.1020 hc        1 0UU      0.104250
     46 H11         1.4310   -0.5750   -3.2940 hc        1 0UU      0.100750
     47 H12         1.4030   -2.1680   -3.3960 hc        1 0UU      0.100750
     48 H13         2.1180   -1.6350   -1.2740 h1        1 0UU      0.097000
     49 H14        -0.9820   -1.1960    1.1650 ha        1 0UU      0.155000
     50 H15        -3.1650    0.8420    3.1740 h4        1 0UU      0.081000
     51 H16        -2.7930   -0.6920    2.9620 h4        1 0UU      0.081000
     52 H18        -3.3940   -0.9770    5.2100 h1        1 0UU      0.071500
     53 H19        -2.1180   -1.8390    4.7950 h1        1 0UU      0.071500
     54 H20        -0.9850   -1.2550    6.7050 hc        1 0UU      0.084750
     55 H21        -2.4400   -1.7700    7.1500 hc        1 0UU      0.084750
     56 H22        -1.7800    0.1890    8.2590 hc        1 0UU      0.078500
     57 H23        -3.1600    0.3480    7.4800 hc        1 0UU      0.078500
     58 H24        -1.9300    2.2090    7.0680 hc        1 0UU      0.084750
     59 H25        -0.6470    1.3340    6.6530 hc        1 0UU      0.084750
     60 H26        -1.6080    2.1210    4.7100 h1        1 0UU      0.071500
     61 H27        -3.0530    1.6110    5.1570 h1        1 0UU      0.071500
     62 H28        -1.5710    2.5410    2.7810 ha        1 0UU      0.133000
     63 H29        -0.2170    3.4810    1.0480 ha        1 0UU      0.148000
     64 H30         2.9720    0.2060   -2.6870 hn        1 0UU      0.233000
     65 H31         3.3540    3.1640   -4.9370 ha        1 0UU      0.153000
     66 H32         5.2820    3.4310   -6.3330 ha        1 0UU      0.140000
     67 H33         7.4670    2.8740   -5.5100 ha        1 0UU      0.138000
     68 H34         7.6960    2.0510   -3.2800 ha        1 0UU      0.138000
     69 H35         5.7920    1.7770   -1.8690 ha        1 0UU      0.139000
@<TRIPOS>BOND
     1    1    2 1   
     2    1   36 1   
     3    1   37 1   
     4    1   38 1   
     5    2    3 1   
     6    3    4 1   
     7    5    6 1   
     8    5    8 1   
     9    5   39 1   
    10    6    7 1   
    11    6   40 1   
    12    6   41 1   
    13    7   10 1   
    14    7   42 1   
    15    7   43 1   
    16    8    9 1   
    17    8   44 1   
    18    8   45 1   
    19    9   10 1   
    20    9   46 1   
    21    9   47 1   
    22   10   11 1   
    23   10   48 1   
    24   11   12 1   
    25   11   26 1   
    26   12   24 1   
    27   13   14 1   
    28   13   49 1   
    29   14   22 1   
    30   15   16 1   
    31   15   50 1   
    32   15   51 1   
    33   16   17 1   
    34   16   21 1   
    35   17   18 1   
    36   17   52 1   
    37   17   53 1   
    38   18   19 1   
    39   18   54 1   
    40   18   55 1   
    41   19   20 1   
    42   19   56 1   
    43   19   57 1   
    44   20   21 1   
    45   20   58 1   
    46   20   59 1   
    47   21   60 1   
    48   21   61 1   
    49   22   23 1   
    50   22   62 1   
    51   23   63 1   
    52   25   26 1   
    53   27   28 1   
    54   27   64 1   
    55   28   29 1   
    56   28   30 1   
    57   30   31 1   
    58   30   35 1   
    59   31   32 1   
    60   31   65 1   
    61   32   66 1   
    62   33   34 1   
    63   33   67 1   
    64   34   68 1   
    65   35   69 1   
@<TRIPOS>SUBSTRUCTURE
     1 0UU         1 TEMP              0 ****  ****    0 ROOT
