@<TRIPOS>MOLECULE
0UU
   69    73     1     0     0
SMALL
bcc


@<TRIPOS>ATOM
      1 C28        -0.4070   -6.7250   -0.7100 c3        1 0UU      0.125700
      2 O2          0.0860   -5.6080    0.0300 os        1 0UU     -0.441900
      3 C27        -0.5710   -4.4180   -0.1400 c         1 0UU      0.632100
      4 O3         -1.5460   -4.3980   -0.8930 o         1 0UU     -0.537000
      5 C15         0.0410   -3.3010    0.6600 c3        1 0UU     -0.109700
      6 C16        -1.0250   -2.2900    1.0480 c3        1 0UU     -0.077400
      7 C17        -0.4400   -1.1290    1.8210 c3        1 0UU     -0.090900
      8 C14         1.1140   -2.6030   -0.1630 c3        1 0UU     -0.077400
      9 C13         1.7620   -1.5120    0.6550 c3        1 0UU     -0.090900
     10 C12         0.7830   -0.4480    1.1890 c3        1 0UU      0.073000
     11 N2          0.5120    0.6310    0.2620 na        1 0UU     -0.147300
     12 C3         -0.6130    0.9330   -0.5210 ca        1 0UU     -0.053200
     13 C5         -1.9490    0.5090   -0.5040 ca        1 0UU     -0.115000
     14 C6         -2.8330    1.0550   -1.4280 ca        1 0UU     -0.068300
     15 C18        -4.2520    0.5610   -1.4770 c3        1 0UU      0.212100
     16 N3         -4.9520    0.6470   -0.2000 n3        1 0UU     -0.729600
     17 C7         -6.2050   -0.1000   -0.2280 c3        1 0UU      0.167300
     18 C8         -6.9720   -0.0360    1.0910 c3        1 0UU     -0.076400
     19 C9         -7.1830    1.3950    1.5350 c3        1 0UU     -0.078400
     20 C10        -5.8630    2.1340    1.5810 c3        1 0UU     -0.076400
     21 C11        -5.1260    2.0230    0.2480 c3        1 0UU      0.167300
     22 C4         -2.4190    2.0350   -2.3530 ca        1 0UU     -0.150000
     23 C2         -1.1210    2.5130   -2.3640 ca        1 0UU     -0.071000
     24 C1         -0.2050    1.9850   -1.4410 ca        1 0UU      0.061400
     25 N1          1.1310    2.3370   -1.2070 nc        1 0UU     -0.559100
     26 C19         1.5400    1.5320   -0.1930 cd        1 0UU      0.428400
     27 N4          2.8130    1.6020    0.4360 n         1 0UU     -0.462400
     28 C20         3.9580    1.1710   -0.2550 c         1 0UU      0.673700
     29 O1          3.8810    0.3760   -1.2060 o         1 0UU     -0.555100
     30 C21         5.2670    1.6670    0.2580 ca        1 0UU     -0.151600
     31 C22         5.5140    1.8400    1.6230 ca        1 0UU     -0.087500
     32 C23         6.7620    2.2940    2.0480 ca        1 0UU     -0.138000
     33 C24         7.7610    2.5780    1.1150 ca        1 0UU     -0.104000
     34 C25         7.5160    2.3990   -0.2460 ca        1 0UU     -0.138000
     35 C26         6.2730    1.9390   -0.6780 ca        1 0UU     -0.087500
     36 H1         -1.4620   -6.9420   -0.4150 h1        1 0UU      0.050367
     37 H2         -0.3530   -6.5120   -1.8040 h1        1 0UU      0.050367
     38 H3          0.2800   -7.5590   -0.4200 h1        1 0UU      0.050367
     39 H4          0.5080   -3.7440    1.5830 hc        1 0UU      0.079700
     40 H5         -1.5280   -1.9440    0.1060 hc        1 0UU      0.065450
     41 H6         -1.8080   -2.7870    1.6800 hc        1 0UU      0.065450
     42 H7         -1.2450   -0.3740    2.0210 hc        1 0UU      0.061450
     43 H8         -0.0930   -1.5120    2.8210 hc        1 0UU      0.061450
     44 H9          1.8930   -3.3470   -0.4750 hc        1 0UU      0.065450
     45 H10         0.6600   -2.1720   -1.0930 hc        1 0UU      0.065450
     46 H11         2.2560   -1.9700    1.5540 hc        1 0UU      0.061450
     47 H12         2.5680   -1.0380    0.0330 hc        1 0UU      0.061450
     48 H13         1.3210    0.0630    2.0540 h1        1 0UU      0.055700
     49 H14        -2.3240   -0.2150    0.2330 ha        1 0UU      0.155000
     50 H15        -4.8090    1.1200   -2.2890 h1        1 0UU      0.041700
     51 H16        -4.2240   -0.5270   -1.7780 h1        1 0UU      0.041700
     52 H18        -6.8850    0.2670   -1.0540 h1        1 0UU      0.032200
     53 H19        -5.9540   -1.1760   -0.4480 h1        1 0UU      0.032200
     54 H20        -7.9590   -0.5460    0.9500 hc        1 0UU      0.045450
     55 H21        -6.4070   -0.5950    1.8820 hc        1 0UU      0.045450
     56 H22        -7.8780    1.9110    0.8210 hc        1 0UU      0.039200
     57 H23        -7.6650    1.4130    2.5460 hc        1 0UU      0.039200
     58 H24        -6.0340    3.2190    1.8000 hc        1 0UU      0.045450
     59 H25        -5.2250    1.7150    2.4020 hc        1 0UU      0.045450
     60 H26        -4.0970    2.4690    0.3570 h1        1 0UU      0.032200
     61 H27        -5.6850    2.6370   -0.5190 h1        1 0UU      0.032200
     62 H28        -3.1480    2.4330   -3.0750 ha        1 0UU      0.133000
     63 H29        -0.8040    3.2930   -3.0700 ha        1 0UU      0.148000
     64 H30         2.9180    2.4150    1.0090 hn        1 0UU      0.320500
     65 H31         4.7410    1.6050    2.3700 ha        1 0UU      0.148000
     66 H32         6.9590    2.4260    3.1220 ha        1 0UU      0.139500
     67 H33         8.7430    2.9400    1.4550 ha        1 0UU      0.137000
     68 H34         8.3040    2.6170   -0.9820 ha        1 0UU      0.139500
     69 H35         6.0730    1.7790   -1.7500 ha        1 0UU      0.148000
@<TRIPOS>BOND
     1    1    2 1   
     2    1   36 1   
     3    1   37 1   
     4    1   38 1   
     5    2    3 1   
     6    3    4 2   
     7    3    5 1   
     8    5    6 1   
     9    5    8 1   
    10    5   39 1   
    11    6    7 1   
    12    6   40 1   
    13    6   41 1   
    14    7   10 1   
    15    7   42 1   
    16    7   43 1   
    17    8    9 1   
    18    8   44 1   
    19    8   45 1   
    20    9   10 1   
    21    9   46 1   
    22    9   47 1   
    23   10   11 1   
    24   10   48 1   
    25   11   12 1   
    26   11   26 1   
    27   12   13 ar  
    28   12   24 ar  
    29   13   14 ar  
    30   13   49 1   
    31   14   15 1   
    32   14   22 ar  
    33   15   16 1   
    34   15   50 1   
    35   15   51 1   
    36   16   17 1   
    37   16   21 1   
    38   17   18 1   
    39   17   52 1   
    40   17   53 1   
    41   18   19 1   
    42   18   54 1   
    43   18   55 1   
    44   19   20 1   
    45   19   56 1   
    46   19   57 1   
    47   20   21 1   
    48   20   58 1   
    49   20   59 1   
    50   21   60 1   
    51   21   61 1   
    52   22   23 ar  
    53   22   62 1   
    54   23   24 ar  
    55   23   63 1   
    56   24   25 1   
    57   25   26 2   
    58   26   27 1   
    59   27   28 1   
    60   27   64 1   
    61   28   29 2   
    62   28   30 1   
    63   30   31 ar  
    64   30   35 ar  
    65   31   32 ar  
    66   31   65 1   
    67   32   33 ar  
    68   32   66 1   
    69   33   34 ar  
    70   33   67 1   
    71   34   35 ar  
    72   34   68 1   
    73   35   69 1   
@<TRIPOS>SUBSTRUCTURE
     1 0UU         1 TEMP              0 ****  ****    0 ROOT
