@<TRIPOS>MOLECULE
0UU
   69    73     1     0     0
SMALL
bcc


@<TRIPOS>ATOM
      1 C28         0.2970   -1.8350    0.3970 c3        1 0UU      0.125700
      2 O2          1.5810   -1.2120    0.4210 os        1 0UU     -0.441900
      3 C27         2.0170   -0.7430    1.6330 c         1 0UU      0.632100
      4 O3          1.2890   -0.9100    2.6130 o         1 0UU     -0.537000
      5 C15         3.3650   -0.0820    1.5460 c3        1 0UU     -0.109700
      6 C16         4.1140   -0.2460    2.8580 c3        1 0UU     -0.077400
      7 C17         5.4600    0.4420    2.8230 c3        1 0UU     -0.090900
      8 C14         3.1960    1.4020    1.2500 c3        1 0UU     -0.077400
      9 C13         4.5480    2.0580    1.1160 c3        1 0UU     -0.090900
     10 C12         5.4570    1.9040    2.3510 c3        1 0UU      0.073000
     11 N2          5.2510    2.9100    3.3730 na        1 0UU     -0.147300
     12 C3          4.6340    2.8530    4.6310 ca        1 0UU     -0.053200
     13 C5          4.2560    1.8030    5.4810 ca        1 0UU     -0.115000
     14 C6          3.6860    2.1130    6.7100 ca        1 0UU     -0.068300
     15 C18         3.2050    1.0040    7.6050 c3        1 0UU      0.212100
     16 N3          4.2250    0.0070    7.9110 n3        1 0UU     -0.729600
     17 C7          3.6430   -1.1780    8.5300 c3        1 0UU      0.167300
     18 C8          4.6780   -2.2490    8.8670 c3        1 0UU     -0.076400
     19 C9          5.8050   -1.6790    9.7010 c3        1 0UU     -0.078400
     20 C10         6.4060   -0.4680    9.0190 c3        1 0UU     -0.076400
     21 C11         5.3300    0.5620    8.6830 c3        1 0UU      0.167300
     22 C4          3.5070    3.4490    7.1230 ca        1 0UU     -0.150000
     23 C2          3.9150    4.5080    6.3330 ca        1 0UU     -0.071000
     24 C1          4.4990    4.2290    5.0880 ca        1 0UU      0.061400
     25 N1          5.0450    5.1050    4.1400 nc        1 0UU     -0.559100
     26 C19         5.4910    4.3090    3.1340 cd        1 0UU      0.428400
     27 N4          6.2020    4.7680    1.9910 ns        1 0UU     -0.462400
     28 C20         5.5310    5.5030    0.9990 c         1 0UU      0.673700
     29 O1          4.2990    5.4320    0.8620 o         1 0UU     -0.555100
     30 C21         6.3830    6.3140    0.0850 ca        1 0UU     -0.151600
     31 C22         7.6370    5.8740   -0.3490 ca        1 0UU     -0.087500
     32 C23         8.3870    6.6680   -1.2160 ca        1 0UU     -0.138000
     33 C24         7.8910    7.8990   -1.6470 ca        1 0UU     -0.104000
     34 C25         6.6370    8.3350   -1.2190 ca        1 0UU     -0.138000
     35 C26         5.8790    7.5440   -0.3570 ca        1 0UU     -0.087500
     36 H1          0.2970   -2.7320    1.0620 h1        1 0UU      0.050367
     37 H2          0.1600   -2.1190   -0.6750 h1        1 0UU      0.050367
     38 H3         -0.4840   -1.1110    0.7330 h1        1 0UU      0.050367
     39 H4          3.9410   -0.5660    0.7080 hc        1 0UU      0.079700
     40 H5          4.2700   -1.3360    3.0720 hc        1 0UU      0.065200
     41 H6          3.4650    0.1640    3.6770 hc        1 0UU      0.065200
     42 H7          5.9440    0.3610    3.8320 hc        1 0UU      0.061450
     43 H8          6.1180   -0.1110    2.0970 hc        1 0UU      0.061450
     44 H9          2.6080    1.8890    2.0730 hc        1 0UU      0.065200
     45 H10         2.6210    1.5330    0.2960 hc        1 0UU      0.065200
     46 H11         4.3910    3.1420    0.8680 hc        1 0UU      0.061450
     47 H12         5.0990    1.5920    0.2550 hc        1 0UU      0.061450
     48 H13         6.5180    2.1020    1.9830 h1        1 0UU      0.055700
     49 H14         4.4240    0.7490    5.2180 ha        1 0UU      0.155000
     50 H15         2.3620    0.4760    7.0690 h1        1 0UU      0.041700
     51 H16         2.7730    1.4540    8.5490 h1        1 0UU      0.041700
     52 H18         3.0800   -0.9160    9.4750 h1        1 0UU      0.032200
     53 H19         2.9000   -1.6110    7.8010 h1        1 0UU      0.032200
     54 H20         4.1630   -3.0730    9.4260 hc        1 0UU      0.045450
     55 H21         5.0930   -2.6840    7.9210 hc        1 0UU      0.045450
     56 H22         5.4150   -1.3860   10.7110 hc        1 0UU      0.039200
     57 H23         6.5940   -2.4590    9.8580 hc        1 0UU      0.039200
     58 H24         6.9320   -0.7860    8.0820 hc        1 0UU      0.045450
     59 H25         7.1620    0.0160    9.6880 hc        1 0UU      0.045450
     60 H26         5.7880    1.3850    8.0650 h1        1 0UU      0.032200
     61 H27         4.9650    1.0230    9.6490 h1        1 0UU      0.032200
     62 H28         3.0420    3.6510    8.1000 ha        1 0UU      0.133000
     63 H29         3.7970    5.5490    6.6650 ha        1 0UU      0.148000
     64 H30         7.1350    5.0590    2.2060 hn        1 0UU      0.320500
     65 H31         8.0340    4.8990   -0.0290 ha        1 0UU      0.148000
     66 H32         9.3720    6.3210   -1.5610 ha        1 0UU      0.139500
     67 H33         8.4880    8.5240   -2.3280 ha        1 0UU      0.137000
     68 H34         6.2420    9.3020   -1.5630 ha        1 0UU      0.139500
     69 H35         4.8800    7.8710   -0.0250 ha        1 0UU      0.148000
@<TRIPOS>BOND
     1    1    2 1   
     2    1   36 1   
     3    1   37 1   
     4    1   38 1   
     5    2    3 1   
     6    3    4 2   
     7    3    5 1   
     8    5    6 1   
     9    5    8 1   
    10    5   39 1   
    11    6    7 1   
    12    6   40 1   
    13    6   41 1   
    14    7   10 1   
    15    7   42 1   
    16    7   43 1   
    17    8    9 1   
    18    8   44 1   
    19    8   45 1   
    20    9   10 1   
    21    9   46 1   
    22    9   47 1   
    23   10   11 1   
    24   10   48 1   
    25   11   12 1   
    26   11   26 1   
    27   12   13 ar  
    28   12   24 ar  
    29   13   14 ar  
    30   13   49 1   
    31   14   15 1   
    32   14   22 ar  
    33   15   16 1   
    34   15   50 1   
    35   15   51 1   
    36   16   17 1   
    37   16   21 1   
    38   17   18 1   
    39   17   52 1   
    40   17   53 1   
    41   18   19 1   
    42   18   54 1   
    43   18   55 1   
    44   19   20 1   
    45   19   56 1   
    46   19   57 1   
    47   20   21 1   
    48   20   58 1   
    49   20   59 1   
    50   21   60 1   
    51   21   61 1   
    52   22   23 ar  
    53   22   62 1   
    54   23   24 ar  
    55   23   63 1   
    56   24   25 1   
    57   25   26 2   
    58   26   27 1   
    59   27   28 1   
    60   27   64 1   
    61   28   29 2   
    62   28   30 1   
    63   30   31 ar  
    64   30   35 ar  
    65   31   32 ar  
    66   31   65 1   
    67   32   33 ar  
    68   32   66 1   
    69   33   34 ar  
    70   33   67 1   
    71   34   35 ar  
    72   34   68 1   
    73   35   69 1   
@<TRIPOS>SUBSTRUCTURE
     1 0UU         1 TEMP              0 ****  ****    0 ROOT
