@<TRIPOS>MOLECULE
0UV
   86    83     1     0     0
SMALL
bcc


@<TRIPOS>ATOM
      1 C24        -4.5940   -4.5870    2.2390 c3        1 0UV     -0.228500
      2 C23        -3.4900   -3.9120    3.0350 c3        1 0UV      0.020000
      3 C25        -3.6290   -4.2740    4.4980 c3        1 0UV     -0.228500
      4 N5         -3.5910   -2.4960    2.8840 n3        1 0UV     -0.382000
      5 C22        -2.5620   -1.7730    2.1930 c1        1 0UV      0.307000
      6 O2         -1.4120   -2.1550    2.2490 o         1 0UV     -0.373000
      7 C19        -2.8930   -0.4740    1.4910 c2        1 0UV     -0.121000
      8 C20        -2.8220    0.7270    2.4600 c3        1 0UV     -0.156500
      9 C21        -3.0400    2.0650    1.7670 c3        1 0UV     -0.169000
     10 C18        -1.9370   -0.2140    0.2830 c3        1 0UV     -0.156500
     11 C17        -2.1670    1.1330   -0.3770 c3        1 0UV     -0.169000
     12 C16        -2.1350    2.2680    0.5900 c3        1 0UV      0.005000
     13 N1         -0.7390    2.4420    1.0800 n3        1 0UV     -0.183000
     14 C4          0.4240    1.6770    0.6420 c1        1 0UV     -0.018000
     15 C3          0.5720    0.6250   -0.2800 c1        1 0UV     -0.104000
     16 C2          1.8340    0.0670   -0.5080 c1        1 0UV     -0.075000
     17 C15         1.9890   -1.3860   -1.0450 c2        1 0UV     -0.030000
     18 N4          3.0560   -1.4270   -2.0480 n3        1 0UV     -0.254000
     19 C30         2.4630   -1.4870   -3.3900 c3        1 0UV     -0.068000
     20 C29         3.5090   -1.6820   -4.4810 c3        1 0UV     -0.153000
     21 C26         3.9520   -2.5650   -1.7650 c3        1 0UV     -0.068000
     22 C27         5.0020   -2.7630   -2.8490 c3        1 0UV     -0.153000
     23 C28         4.4070   -2.8300   -4.2050 c3        1 0UV     -0.085000
     24 C31         5.5790   -2.8400   -5.2820 c3        1 0UV      0.080000
     25 C32         4.9770   -2.8920   -6.6900 c3        1 0UV     -0.243000
     26 C33         6.4600   -4.0600   -5.0630 c3        1 0UV     -0.243000
     27 O3          6.3560   -1.6670   -5.1450 oh        1 0UV     -0.323000
     28 C1          2.9480    0.5530    0.1800 c2        1 0UV     -0.097000
     29 C6          2.8040    1.5980    1.0970 c1        1 0UV     -0.132000
     30 C5          1.5370    2.1600    1.3280 c1        1 0UV     -0.016000
     31 N2          1.0910    3.2410    2.2090 n3        1 0UV     -0.241000
     32 C7         -0.2780    3.4730    1.9500 c2        1 0UV      0.274000
     33 N3         -1.0190    4.4990    2.4450 n1        1 0UV     -0.369000
     34 C8         -2.4020    4.6180    2.1020 c1        1 0UV      0.338000
     35 O1         -2.9130    3.8090    1.3720 o         1 0UV     -0.363000
     36 C9         -3.2720    5.7200    2.7690 c2        1 0UV     -0.126000
     37 C10        -3.1690    5.9530    4.1340 c2        1 0UV     -0.049000
     38 C11        -3.9530    6.9350    4.7340 c1        1 0UV     -0.191000
     39 C12        -4.8370    7.6820    3.9670 c1        1 0UV      0.114000
     40 F1         -5.6450    8.5840    4.5570 f         1 0UV     -0.104000
     41 C13        -4.9400    7.4470    2.5990 c1        1 0UV     -0.185000
     42 C14        -4.1570    6.4670    2.0010 c1        1 0UV     -0.058000
     43 H1         -5.4600   -4.2030    2.4910 hc        1 0UV      0.079833
     44 H2         -4.4400   -4.4450    1.2820 hc        1 0UV      0.079833
     45 H3         -4.5950   -5.5470    2.4300 hc        1 0UV      0.079833
     46 H4         -2.6210   -4.2130    2.7060 h1        1 0UV      0.129000
     47 H5         -4.5090   -3.9810    4.8260 hc        1 0UV      0.079833
     48 H6         -3.5490   -5.2440    4.6030 hc        1 0UV      0.079833
     49 H7         -2.9230   -3.8300    5.0130 hc        1 0UV      0.079833
     50 H8         -4.3300   -2.0610    3.1780 hn        1 0UV      0.219000
     51 H9         -3.8070   -0.6430    1.1950 ha        1 0UV      0.103000
     52 H10        -1.9480    0.7330    2.8870 hc        1 0UV      0.098500
     53 H11        -3.5100    0.6160    3.1480 hc        1 0UV      0.098500
     54 H12        -2.8830    2.7730    2.4050 hc        1 0UV      0.095250
     55 H13        -3.9720    2.1150    1.4610 hc        1 0UV      0.095250
     56 H14        -2.0740   -0.9190   -0.3840 hc        1 0UV      0.098500
     57 H15        -1.0090   -0.2560    0.6010 hc        1 0UV      0.098500
     58 H16        -1.4780    1.2740   -1.0460 hc        1 0UV      0.095250
     59 H17        -3.0420    1.1210   -0.8210 hc        1 0UV      0.095250
     60 H18        -2.4050    3.0790    0.1270 h1        1 0UV      0.140000
     61 H19        -0.1840    0.3370   -0.8070 ha        1 0UV      0.150000
     62 H20         1.1520   -1.6730   -1.4500 h4        1 0UV      0.083000
     63 H21         2.2150   -1.9850   -0.3040 h4        1 0UV      0.083000
     64 H23         1.8270   -2.2330   -3.4230 h1        1 0UV      0.069750
     65 H24         1.9840   -0.6570   -3.5590 h1        1 0UV      0.069750
     66 H25         4.0480   -0.8670   -4.5520 hc        1 0UV      0.095500
     67 H26         3.0560   -1.8340   -5.3260 hc        1 0UV      0.095500
     68 H27         4.4010   -2.4080   -0.9190 h1        1 0UV      0.069750
     69 H28         3.4150   -3.3800   -1.6920 h1        1 0UV      0.069750
     70 H29         5.4870   -3.5980   -2.6730 hc        1 0UV      0.095500
     71 H30         5.6310   -2.0210   -2.8170 hc        1 0UV      0.095500
     72 H31         3.8940   -3.6600   -4.2850 hc        1 0UV      0.084000
     73 H32         4.4100   -3.6830   -6.7740 hc        1 0UV      0.082667
     74 H33         5.6970   -2.9370   -7.3510 hc        1 0UV      0.082667
     75 H34         4.4410   -2.0870   -6.8460 hc        1 0UV      0.082667
     76 H35         5.8960   -4.8520   -4.9340 hc        1 0UV      0.082667
     77 H36         7.0190   -3.9220   -4.2640 hc        1 0UV      0.082667
     78 H37         7.0360   -4.1920   -5.8460 hc        1 0UV      0.082667
     79 H38         6.9470   -1.6260   -5.8060 ho        1 0UV      0.196000
     80 H39         3.8300    0.1620    0.0200 ha        1 0UV      0.157000
     81 H40         3.5800    1.9350    1.5750 ha        1 0UV      0.144000
     82 H42        -2.5420    5.4230    4.6780 ha        1 0UV      0.157000
     83 H43        -3.8800    7.1010    5.7000 ha        1 0UV      0.150000
     84 H44        -5.5640    7.9740    2.0570 ha        1 0UV      0.152000
     85 H45        -4.2300    6.3020    1.0360 ha        1 0UV      0.163000
     86 H22         1.6260    3.7520    2.7350 hn        1 0UV      0.254000
@<TRIPOS>BOND
     1    1    2 1   
     2    1   43 1   
     3    1   44 1   
     4    1   45 1   
     5    2    3 1   
     6    2    4 1   
     7    2   46 1   
     8    3   47 1   
     9    3   48 1   
    10    3   49 1   
    11    4    5 1   
    12    4   50 1   
    13    5    6 1   
    14    7    8 1   
    15    7   10 1   
    16    7   51 1   
    17    8    9 1   
    18    8   52 1   
    19    8   53 1   
    20    9   12 1   
    21    9   54 1   
    22    9   55 1   
    23   10   11 1   
    24   10   56 1   
    25   10   57 1   
    26   11   12 1   
    27   11   58 1   
    28   11   59 1   
    29   12   13 1   
    30   12   60 1   
    31   13   14 1   
    32   13   32 1   
    33   14   30 1   
    34   15   16 1   
    35   15   61 1   
    36   16   28 1   
    37   17   18 1   
    38   17   62 1   
    39   17   63 1   
    40   18   19 1   
    41   18   21 1   
    42   19   20 1   
    43   19   64 1   
    44   19   65 1   
    45   20   23 1   
    46   20   66 1   
    47   20   67 1   
    48   21   22 1   
    49   21   68 1   
    50   21   69 1   
    51   22   23 1   
    52   22   70 1   
    53   22   71 1   
    54   23   24 1   
    55   23   72 1   
    56   24   25 1   
    57   24   26 1   
    58   24   27 1   
    59   25   73 1   
    60   25   74 1   
    61   25   75 1   
    62   26   76 1   
    63   26   77 1   
    64   26   78 1   
    65   27   79 1   
    66   28   29 1   
    67   28   80 1   
    68   29   81 1   
    69   30   31 1   
    70   31   32 1   
    71   31   86 1   
    72   32   33 1   
    73   34   35 1   
    74   34   36 1   
    75   36   37 1   
    76   36   42 1   
    77   37   38 1   
    78   37   82 1   
    79   38   83 1   
    80   39   40 1   
    81   39   41 1   
    82   41   84 1   
    83   42   85 1   
@<TRIPOS>SUBSTRUCTURE
     1 0UV         1 TEMP              0 ****  ****    0 ROOT
