@<TRIPOS>MOLECULE
0UV
   87    91     1     0     0
SMALL
bcc


@<TRIPOS>ATOM
      1 C24         2.1130    0.2690    0.8770 c3        1 0UV     -0.128600
      2 C23         1.6010   -1.0080    0.2210 c3        1 0UV      0.137500
      3 C25         0.2430   -0.7660   -0.4230 c3        1 0UV     -0.128600
      4 N5          2.6010   -1.5170   -0.7920 n4        1 0UV     -0.675800
      5 C22         2.4820   -2.9810   -1.0960 c         1 0UV      0.544100
      6 O2          1.9100   -3.6870   -0.2760 o         1 0UV     -0.431100
      7 C19         3.0940   -3.4690   -2.3930 c3        1 0UV     -0.123700
      8 C20         2.3120   -2.9330   -3.5820 c3        1 0UV     -0.083900
      9 C21         2.9240   -3.3970   -4.8830 c3        1 0UV     -0.084900
     10 C18         4.5790   -3.1520   -2.4510 c3        1 0UV     -0.083900
     11 C17         5.1900   -3.5300   -3.7800 c3        1 0UV     -0.084900
     12 C16         4.4220   -3.0940   -5.0350 c3        1 0UV      0.075000
     13 N1          4.7500   -1.7770   -5.5460 na        1 0UV     -0.165300
     14 C4          4.9780   -1.5510   -6.9350 ca        1 0UV     -0.064200
     15 C3          5.2240   -2.4300   -7.9870 ca        1 0UV     -0.092000
     16 C2          5.4520   -1.8870   -9.2580 ca        1 0UV     -0.061300
     17 C15         5.7670   -2.7970  -10.4150 c3        1 0UV      0.207100
     18 N4          4.9080   -3.9720  -10.4910 n3        1 0UV     -0.737600
     19 C30         5.4710   -4.9870  -11.3760 c3        1 0UV      0.165300
     20 C29         4.5920   -6.2310  -11.5020 c3        1 0UV     -0.072900
     21 C26         3.5310   -3.6290  -10.8300 c3        1 0UV      0.165300
     22 C27         2.6150   -4.8440  -10.9500 c3        1 0UV     -0.072900
     23 C28         3.1870   -5.8490  -11.9380 c3        1 0UV     -0.052700
     24 C31         2.2710   -7.0750  -12.1110 c3        1 0UV      0.155800
     25 C32         2.6440   -7.8410  -13.3780 c3        1 0UV     -0.123600
     26 C33         2.3030   -8.0190  -10.9150 c3        1 0UV     -0.123600
     27 O3          0.9510   -6.5380  -12.2550 oh        1 0UV     -0.603800
     28 C1          5.4410   -0.5010   -9.4690 ca        1 0UV     -0.110000
     29 C6          5.2050    0.3980   -8.4290 ca        1 0UV     -0.113000
     30 C5          4.9710   -0.1280   -7.1620 ca        1 0UV     -0.050200
     31 N2          4.6760    0.4930   -5.9340 na        1 0UV     -0.316300
     32 C7          4.5410   -0.5050   -4.9380 cc        1 0UV      0.681300
     33 N3          4.2110   -0.3520   -3.6530 nf        1 0UV     -0.870100
     34 C8          4.1740    0.8470   -2.9680 c         1 0UV      0.760100
     35 O1          3.4850    0.8560   -1.9160 o         1 0UV     -0.668100
     36 C9          4.9410    2.0620   -3.3530 ca        1 0UV     -0.215600
     37 C10         6.2800    1.9750   -3.7530 ca        1 0UV     -0.070500
     38 C11         7.0010    3.1240   -4.0540 ca        1 0UV     -0.173000
     39 C12         6.3730    4.3830   -3.9550 ca        1 0UV      0.165900
     40 F1          7.0660    5.5030   -4.2530 f         1 0UV     -0.117900
     41 C13         5.0290    4.4750   -3.5440 ca        1 0UV     -0.173000
     42 C14         4.3280    3.3150   -3.2350 ca        1 0UV     -0.070500
     43 H1          1.3270    0.6420    1.5790 hc        1 0UV      0.074533
     44 H2          2.3190    1.0650    0.1160 hc        1 0UV      0.074533
     45 H3          3.0450    0.0780    1.4610 hc        1 0UV      0.074533
     46 H4          1.5000   -1.8160    1.0090 hx        1 0UV      0.110700
     47 H5         -0.4730   -0.4540    0.3770 hc        1 0UV      0.074533
     48 H6         -0.1500   -1.6970   -0.8990 hc        1 0UV      0.074533
     49 H7          0.2950    0.0490   -1.1860 hc        1 0UV      0.074533
     50 H8          3.5480   -1.3290   -0.4390 hn        1 0UV      0.480800
     51 H9          2.9750   -4.5960   -2.3780 hc        1 0UV      0.110700
     52 H10         2.2570   -1.8150   -3.5700 hc        1 0UV      0.065450
     53 H11         1.2570   -3.3170   -3.5260 hc        1 0UV      0.065450
     54 H12         2.3470   -2.9480   -5.7350 hc        1 0UV      0.070950
     55 H13         2.8140   -4.5130   -4.9600 hc        1 0UV      0.070950
     56 H14         4.7760   -2.0700   -2.2450 hc        1 0UV      0.065450
     57 H15         5.1020   -3.7380   -1.6460 hc        1 0UV      0.065450
     58 H16         5.2560   -4.6520   -3.8360 hc        1 0UV      0.070950
     59 H17         6.2400   -3.1340   -3.8140 hc        1 0UV      0.070950
     60 H18         4.7900   -3.7930   -5.8590 h1        1 0UV      0.083700
     61 H19         5.2400   -3.5210   -7.8470 ha        1 0UV      0.166000
     62 H20         6.8320   -3.1520  -10.2790 h1        1 0UV      0.049700
     63 H21         5.7340   -2.1950  -11.3720 h1        1 0UV      0.049700
     64 H23         5.6570   -4.5730  -12.4110 h1        1 0UV      0.033700
     65 H24         6.4670   -5.2960  -10.9470 h1        1 0UV      0.033700
     66 H25         4.5550   -6.7660  -10.5170 hc        1 0UV      0.055450
     67 H26         5.0630   -6.9170  -12.2510 hc        1 0UV      0.055450
     68 H27         3.1450   -2.9590  -10.0100 h1        1 0UV      0.033700
     69 H28         3.4800   -3.0470  -11.7970 h1        1 0UV      0.033700
     70 H29         2.4830   -5.3280   -9.9480 hc        1 0UV      0.055450
     71 H30         1.6070   -4.5000  -11.2990 hc        1 0UV      0.055450
     72 H31         3.2480   -5.3460  -12.9450 hc        1 0UV      0.059700
     73 H32         2.5230   -7.1840  -14.2720 hc        1 0UV      0.044367
     74 H33         1.9790   -8.7300  -13.4970 hc        1 0UV      0.044367
     75 H34         3.7010   -8.1920  -13.3240 hc        1 0UV      0.044367
     76 H35         2.1270   -7.4560   -9.9690 hc        1 0UV      0.044367
     77 H36         1.5030   -8.7910  -11.0200 hc        1 0UV      0.044367
     78 H37         3.2900   -8.5360  -10.8570 hc        1 0UV      0.044367
     79 H38         0.3720   -7.2770  -12.4750 ho        1 0UV      0.403000
     80 H39         5.6240   -0.1050  -10.4810 ha        1 0UV      0.153000
     81 H40         5.2020    1.4820   -8.6100 ha        1 0UV      0.155000
     82 H42         6.7790    0.9940   -3.8140 ha        1 0UV      0.151500
     83 H43         8.0570    3.0660   -4.3600 ha        1 0UV      0.167000
     84 H44         4.5510    5.4630   -3.4590 ha        1 0UV      0.167000
     85 H45         3.2850    3.3780   -2.8850 ha        1 0UV      0.151500
     86 H22         4.7760    1.4600   -5.7460 hn        1 0UV      0.330700
     87 H52         2.5100   -0.9600   -1.6650 hn        1 0UV      0.480800
@<TRIPOS>BOND
     1    1    2 1   
     2    1   43 1   
     3    1   44 1   
     4    1   45 1   
     5    2    3 1   
     6    2    4 1   
     7    2   46 1   
     8    3   47 1   
     9    3   48 1   
    10    3   49 1   
    11    4    5 1   
    12    4   50 1   
    13    4   87 1   
    14    5    6 2   
    15    5    7 1   
    16    7    8 1   
    17    7   10 1   
    18    7   51 1   
    19    8    9 1   
    20    8   52 1   
    21    8   53 1   
    22    9   12 1   
    23    9   54 1   
    24    9   55 1   
    25   10   11 1   
    26   10   56 1   
    27   10   57 1   
    28   11   12 1   
    29   11   58 1   
    30   11   59 1   
    31   12   13 1   
    32   12   60 1   
    33   13   14 1   
    34   13   32 1   
    35   14   15 ar  
    36   14   30 ar  
    37   15   16 ar  
    38   15   61 1   
    39   16   17 1   
    40   16   28 ar  
    41   17   18 1   
    42   17   62 1   
    43   17   63 1   
    44   18   19 1   
    45   18   21 1   
    46   19   20 1   
    47   19   64 1   
    48   19   65 1   
    49   20   23 1   
    50   20   66 1   
    51   20   67 1   
    52   21   22 1   
    53   21   68 1   
    54   21   69 1   
    55   22   23 1   
    56   22   70 1   
    57   22   71 1   
    58   23   24 1   
    59   23   72 1   
    60   24   25 1   
    61   24   26 1   
    62   24   27 1   
    63   25   73 1   
    64   25   74 1   
    65   25   75 1   
    66   26   76 1   
    67   26   77 1   
    68   26   78 1   
    69   27   79 1   
    70   28   29 ar  
    71   28   80 1   
    72   29   30 ar  
    73   29   81 1   
    74   30   31 1   
    75   31   32 1   
    76   31   86 1   
    77   32   33 2   
    78   33   34 1   
    79   34   35 2   
    80   34   36 1   
    81   36   37 ar  
    82   36   42 ar  
    83   37   38 ar  
    84   37   82 1   
    85   38   39 ar  
    86   38   83 1   
    87   39   40 1   
    88   39   41 ar  
    89   41   42 ar  
    90   41   84 1   
    91   42   85 1   
@<TRIPOS>SUBSTRUCTURE
     1 0UV         1 TEMP              0 ****  ****    0 ROOT
