@<TRIPOS>MOLECULE
0UV
   86    90     1     0     0
SMALL
bcc


@<TRIPOS>ATOM
      1 C24         6.7240    3.3250   -0.5780 c3        1 0UV     -0.111100
      2 C23         6.1120    3.4850    0.8160 c3        1 0UV      0.094700
      3 C25         6.4310    4.8890    1.3350 c3        1 0UV     -0.111100
      4 N5          4.6910    3.2100    0.8470 n         1 0UV     -0.568900
      5 C22         4.1760    1.9930    1.2450 c         1 0UV      0.662100
      6 O2          4.9140    1.0910    1.6920 o         1 0UV     -0.618100
      7 C19         2.6630    1.8190    1.1410 c3        1 0UV     -0.131700
      8 C20         2.2690    1.5880   -0.3080 c3        1 0UV     -0.073400
      9 C21         0.7880    1.3370   -0.4720 c3        1 0UV     -0.080400
     10 C18         2.2160    0.6350    1.9840 c3        1 0UV     -0.073400
     11 C17         0.7130    0.5120    1.9510 c3        1 0UV     -0.080400
     12 C16         0.1080    0.4020    0.5420 c3        1 0UV      0.083000
     13 N1         -0.1120   -0.9550    0.0760 na        1 0UV     -0.175300
     14 C4         -1.2910   -1.6710    0.4180 ca        1 0UV     -0.059200
     15 C3         -2.5140   -1.2480    0.9300 ca        1 0UV     -0.099000
     16 C2         -3.5240   -2.2040    1.1070 ca        1 0UV     -0.088300
     17 C15        -4.8370   -1.7910    1.7100 c3        1 0UV      0.216100
     18 N4         -5.4410   -0.6240    1.0760 n3        1 0UV     -0.731600
     19 C30        -6.5630   -0.1160    1.8560 c3        1 0UV      0.167300
     20 C29        -7.2380    1.1020    1.2250 c3        1 0UV     -0.074400
     21 C26        -5.7930   -0.8660   -0.3180 c3        1 0UV      0.167300
     22 C27        -6.4340    0.3450   -0.9910 c3        1 0UV     -0.074400
     23 C28        -7.6510    0.8140   -0.2090 c3        1 0UV     -0.092700
     24 C31        -8.3540    2.0120   -0.8750 c3        1 0UV      0.154800
     25 C32        -9.5080    2.5150   -0.0090 c3        1 0UV     -0.103600
     26 C33        -7.4010    3.1610   -1.1840 c3        1 0UV     -0.103600
     27 O3         -8.9780    1.5690   -2.0840 oh        1 0UV     -0.600800
     28 C1         -3.3150   -3.5490    0.7810 ca        1 0UV     -0.119000
     29 C6         -2.0960   -3.9990    0.2720 ca        1 0UV     -0.131000
     30 C5         -1.0820   -3.0640    0.0900 ca        1 0UV     -0.028200
     31 N2          0.2330   -3.1930   -0.3700 na        1 0UV     -0.325300
     32 C7          0.8520   -1.9100   -0.3790 cc        1 0UV      0.667300
     33 N3          2.0950   -1.5970   -0.7440 nf        1 0UV     -0.798100
     34 C8          2.9550   -2.5330   -1.3220 c         1 0UV      0.729100
     35 O1          2.6260   -3.6980   -1.6550 o         1 0UV     -0.646100
     36 C9          4.3450   -2.0590   -1.5780 ca        1 0UV     -0.137600
     37 C10         4.9790   -1.1300   -0.7490 ca        1 0UV     -0.058500
     38 C11         6.2860   -0.7290   -1.0160 ca        1 0UV     -0.184000
     39 C12         6.9630   -1.2610   -2.1270 ca        1 0UV      0.138900
     40 F1          8.2320   -0.8700   -2.3970 f         1 0UV     -0.142900
     41 C13         6.3300   -2.2010   -2.9620 ca        1 0UV     -0.184000
     42 C14         5.0280   -2.5960   -2.6780 ca        1 0UV     -0.058500
     43 H1          7.8210    3.5250   -0.5190 hc        1 0UV      0.041367
     44 H2          6.5730    2.2860   -0.9580 hc        1 0UV      0.041367
     45 H3          6.2700    4.0420   -1.3020 hc        1 0UV      0.041367
     46 H4          6.6090    2.7310    1.5020 h1        1 0UV      0.086700
     47 H5          5.9860    5.6720    0.6750 hc        1 0UV      0.041367
     48 H6          6.0410    5.0300    2.3710 hc        1 0UV      0.041367
     49 H7          7.5390    5.0240    1.3490 hc        1 0UV      0.041367
     50 H8          4.0980    3.8570    0.3890 hn        1 0UV      0.304500
     51 H9          2.1570    2.7490    1.5260 hc        1 0UV      0.058700
     52 H10         2.5370    2.4930   -0.9180 hc        1 0UV      0.065450
     53 H11         2.8650    0.7290   -0.7170 hc        1 0UV      0.065450
     54 H12         0.2550    2.3230   -0.3760 hc        1 0UV      0.051950
     55 H13         0.6090    0.9640   -1.5150 hc        1 0UV      0.051950
     56 H14         2.7040   -0.3000    1.6010 hc        1 0UV      0.065450
     57 H15         2.5590    0.7780    3.0420 hc        1 0UV      0.065450
     58 H16         0.4030   -0.3650    2.5770 hc        1 0UV      0.051950
     59 H17         0.2640    1.4290    2.4220 hc        1 0UV      0.051950
     60 H18        -0.9550    0.8070    0.6370 h1        1 0UV      0.055700
     61 H19        -2.7040   -0.1970    1.1890 ha        1 0UV      0.157000
     62 H20        -5.5420   -2.6760    1.6980 h1        1 0UV      0.041200
     63 H21        -4.6470   -1.5270    2.7910 h1        1 0UV      0.041200
     64 H23        -7.3480   -0.9130    2.0180 h1        1 0UV      0.033950
     65 H24        -6.1660    0.1810    2.8670 h1        1 0UV      0.033950
     66 H25        -8.1370    1.3550    1.8450 hc        1 0UV      0.048700
     67 H26        -6.5400    1.9790    1.2530 hc        1 0UV      0.048700
     68 H27        -4.8400   -1.1250   -0.8620 h1        1 0UV      0.033950
     69 H28        -6.4960   -1.7460   -0.4200 h1        1 0UV      0.033950
     70 H29        -5.6840    1.1740   -1.0660 hc        1 0UV      0.048700
     71 H30        -6.7300    0.0500   -2.0310 hc        1 0UV      0.048700
     72 H31        -8.4040   -0.0270   -0.1980 hc        1 0UV      0.061700
     73 H32        -9.1070    3.0980    0.8520 hc        1 0UV      0.044200
     74 H33       -10.1730    3.1720   -0.6190 hc        1 0UV      0.044200
     75 H34       -10.1100    1.6560    0.3700 hc        1 0UV      0.044200
     76 H35        -6.6700    2.8650   -1.9740 hc        1 0UV      0.044200
     77 H36        -7.9830    4.0380   -1.5570 hc        1 0UV      0.044200
     78 H37        -6.8420    3.4600   -0.2670 hc        1 0UV      0.044200
     79 H38        -8.2740    1.3130   -2.6900 ho        1 0UV      0.397000
     80 H39        -4.1280   -4.2770    0.9290 ha        1 0UV      0.138000
     81 H40        -1.9450   -5.0590    0.0230 ha        1 0UV      0.148000
     82 H42         4.4660   -0.7060    0.1340 ha        1 0UV      0.163000
     83 H43         6.7870   -0.0030   -0.3570 ha        1 0UV      0.154000
     84 H44         6.8700   -2.6170   -3.8250 ha        1 0UV      0.154000
     85 H45         4.5240   -3.3450   -3.3120 ha        1 0UV      0.163000
     86 H22         0.6400   -3.9970   -0.7890 hn        1 0UV      0.346700
@<TRIPOS>BOND
     1    1    2 1   
     2    1   43 1   
     3    1   44 1   
     4    1   45 1   
     5    2    3 1   
     6    2    4 1   
     7    2   46 1   
     8    3   47 1   
     9    3   48 1   
    10    3   49 1   
    11    4    5 1   
    12    4   50 1   
    13    5    6 2   
    14    5    7 1   
    15    7    8 1   
    16    7   10 1   
    17    7   51 1   
    18    8    9 1   
    19    8   52 1   
    20    8   53 1   
    21    9   12 1   
    22    9   54 1   
    23    9   55 1   
    24   10   11 1   
    25   10   56 1   
    26   10   57 1   
    27   11   12 1   
    28   11   58 1   
    29   11   59 1   
    30   12   13 1   
    31   12   60 1   
    32   13   14 1   
    33   13   32 1   
    34   14   15 ar  
    35   14   30 ar  
    36   15   16 ar  
    37   15   61 1   
    38   16   17 1   
    39   16   28 ar  
    40   17   18 1   
    41   17   62 1   
    42   17   63 1   
    43   18   19 1   
    44   18   21 1   
    45   19   20 1   
    46   19   64 1   
    47   19   65 1   
    48   20   23 1   
    49   20   66 1   
    50   20   67 1   
    51   21   22 1   
    52   21   68 1   
    53   21   69 1   
    54   22   23 1   
    55   22   70 1   
    56   22   71 1   
    57   23   24 1   
    58   23   72 1   
    59   24   25 1   
    60   24   26 1   
    61   24   27 1   
    62   25   73 1   
    63   25   74 1   
    64   25   75 1   
    65   26   76 1   
    66   26   77 1   
    67   26   78 1   
    68   27   79 1   
    69   28   29 ar  
    70   28   80 1   
    71   29   30 ar  
    72   29   81 1   
    73   30   31 1   
    74   31   32 1   
    75   31   86 1   
    76   32   33 2   
    77   33   34 1   
    78   34   35 2   
    79   34   36 1   
    80   36   37 ar  
    81   36   42 ar  
    82   37   38 ar  
    83   37   82 1   
    84   38   39 ar  
    85   38   83 1   
    86   39   40 1   
    87   39   41 ar  
    88   41   42 ar  
    89   41   84 1   
    90   42   85 1   
@<TRIPOS>SUBSTRUCTURE
     1 0UV         1 TEMP              0 ****  ****    0 ROOT
