@<TRIPOS>MOLECULE
0UV
   87    91     1     0     0
SMALL
bcc


@<TRIPOS>ATOM
      1 C24         2.1050    0.3170    0.8600 c3        1 0UV     -0.128600
      2 C23         1.5730   -0.9510    0.2040 c3        1 0UV      0.137500
      3 C25         0.2220   -0.6860   -0.4450 c3        1 0UV     -0.128600
      4 N5          2.5670   -1.4800   -0.8040 n4        1 0UV     -0.675800
      5 C22         2.4220   -2.9420   -1.1070 c         1 0UV      0.544100
      6 O2          1.8260   -3.6350   -0.2940 o         1 0UV     -0.431100
      7 C19         3.0390   -3.4440   -2.3970 c3        1 0UV     -0.124700
      8 C20         2.2790   -2.8960   -3.5950 c3        1 0UV     -0.083900
      9 C21         2.8960   -3.3730   -4.8890 c3        1 0UV     -0.084900
     10 C18         4.5300   -3.1540   -2.4410 c3        1 0UV     -0.083900
     11 C17         5.1470   -3.5480   -3.7620 c3        1 0UV     -0.084900
     12 C16         4.4010   -3.0990   -5.0260 c3        1 0UV      0.075000
     13 N1          4.7600   -1.7910   -5.5360 na        1 0UV     -0.165300
     14 C4          5.0090   -1.5730   -6.9230 ca        1 0UV     -0.065200
     15 C3          5.2540   -2.4590   -7.9690 ca        1 0UV     -0.092000
     16 C2          5.5080   -1.9250   -9.2390 ca        1 0UV     -0.061300
     17 C15         5.8230   -2.8430  -10.3870 c3        1 0UV      0.207100
     18 N4          4.9420   -4.0020  -10.4730 n3        1 0UV     -0.737600
     19 C30         5.4990   -5.0310  -11.3470 c3        1 0UV      0.165300
     20 C29         4.5960   -6.2560  -11.4830 c3        1 0UV     -0.072900
     21 C26         3.5780   -3.6330  -10.8340 c3        1 0UV      0.165300
     22 C27         2.6400   -4.8300  -10.9640 c3        1 0UV     -0.072900
     23 C28         3.2070   -5.8480  -11.9410 c3        1 0UV     -0.052700
     24 C31         2.2690   -7.0570  -12.1250 c3        1 0UV      0.155800
     25 C32         2.6460   -7.8340  -13.3840 c3        1 0UV     -0.123600
     26 C33         2.2640   -7.9980  -10.9260 c3        1 0UV     -0.123600
     27 O3          0.9620   -6.4940  -12.2900 oh        1 0UV     -0.603800
     28 C1          5.5250   -0.5390   -9.4530 ca        1 0UV     -0.110000
     29 C6          5.2900    0.3670   -8.4190 ca        1 0UV     -0.113000
     30 C5          5.0300   -0.1510   -7.1530 ca        1 0UV     -0.050200
     31 N2          4.7310    0.4800   -5.9310 na        1 0UV     -0.316300
     32 C7          4.5650   -0.5130   -4.9340 cc        1 0UV      0.681300
     33 N3          4.2220   -0.3500   -3.6540 nf        1 0UV     -0.870100
     34 C8          4.1970    0.8520   -2.9740 c         1 0UV      0.760100
     35 O1          3.4960    0.8750   -1.9290 o         1 0UV     -0.668100
     36 C9          4.9870    2.0530   -3.3540 ca        1 0UV     -0.215600
     37 C10         6.3300    1.9440   -3.7360 ca        1 0UV     -0.070500
     38 C11         7.0720    3.0810   -4.0330 ca        1 0UV     -0.173000
     39 C12         6.4620    4.3500   -3.9470 ca        1 0UV      0.165900
     40 F1          7.1750    5.4580   -4.2400 f         1 0UV     -0.117900
     41 C13         5.1140    4.4640   -3.5540 ca        1 0UV     -0.173000
     42 C14         4.3910    3.3160   -3.2490 ca        1 0UV     -0.070500
     43 H1          2.3290    1.1070    0.0990 hc        1 0UV      0.074533
     44 H2          1.3240    0.7050    1.5600 hc        1 0UV      0.074533
     45 H3          3.0320    0.1100    1.4480 hc        1 0UV      0.074533
     46 H4          1.4540   -1.7560    0.9930 hx        1 0UV      0.110700
     47 H5         -0.4920   -0.3590    0.3510 hc        1 0UV      0.074533
     48 H6          0.2920    0.1260   -1.2100 hc        1 0UV      0.074533
     49 H7         -0.1860   -1.6100   -0.9210 hc        1 0UV      0.074533
     50 H8          2.4900   -0.9220   -1.6790 hn        1 0UV      0.480800
     51 H9          2.9000   -4.5680   -2.3810 hc        1 0UV      0.110700
     52 H10         1.2170   -3.2620   -3.5490 hc        1 0UV      0.065450
     53 H11         2.2430   -1.7780   -3.5850 hc        1 0UV      0.065450
     54 H12         2.3370   -2.9150   -5.7470 hc        1 0UV      0.070950
     55 H13         2.7650   -4.4880   -4.9650 hc        1 0UV      0.070950
     56 H14         4.7450   -2.0750   -2.2360 hc        1 0UV      0.065450
     57 H15         5.0340   -3.7470   -1.6280 hc        1 0UV      0.065450
     58 H16         5.1920   -4.6710   -3.8140 hc        1 0UV      0.070950
     59 H17         6.2050   -3.1720   -3.7860 hc        1 0UV      0.070950
     60 H18         4.7640   -3.8080   -5.8450 h1        1 0UV      0.083700
     61 H19         5.2490   -3.5500   -7.8250 ha        1 0UV      0.166000
     62 H20         6.8780   -3.2190  -10.2360 h1        1 0UV      0.049700
     63 H21         5.8150   -2.2430  -11.3470 h1        1 0UV      0.049700
     64 H23         6.4810   -5.3570  -10.9030 h1        1 0UV      0.033700
     65 H24         5.7080   -4.6230  -12.3800 h1        1 0UV      0.033700
     66 H25         4.5340   -6.7880  -10.4980 hc        1 0UV      0.055450
     67 H26         5.0650   -6.9550  -12.2230 hc        1 0UV      0.055450
     68 H27         3.5520   -3.0530  -11.8040 h1        1 0UV      0.033700
     69 H28         3.1920   -2.9530  -10.0220 h1        1 0UV      0.033700
     70 H29         2.4830   -5.3080   -9.9640 hc        1 0UV      0.055450
     71 H30         1.6440   -4.4670  -11.3300 hc        1 0UV      0.055450
     72 H31         3.2920   -5.3500  -12.9490 hc        1 0UV      0.059700
     73 H32         1.9650   -8.7100  -13.5110 hc        1 0UV      0.044367
     74 H33         3.6950   -8.2060  -13.3120 hc        1 0UV      0.044367
     75 H34         2.5510   -7.1780  -14.2820 hc        1 0UV      0.044367
     76 H35         3.2390   -8.5340  -10.8510 hc        1 0UV      0.044367
     77 H36         2.0850   -7.4280   -9.9840 hc        1 0UV      0.044367
     78 H37         1.4500   -8.7540  -11.0410 hc        1 0UV      0.044367
     79 H38         0.3720   -7.2230  -12.5170 ho        1 0UV      0.403000
     80 H39         5.7280   -0.1490  -10.4640 ha        1 0UV      0.153000
     81 H40         5.3090    1.4510   -8.6030 ha        1 0UV      0.155000
     82 H42         6.8140    0.9560   -3.7860 ha        1 0UV      0.151500
     83 H43         8.1300    3.0050   -4.3240 ha        1 0UV      0.167000
     84 H44         4.6500    5.4600   -3.4790 ha        1 0UV      0.167000
     85 H45         3.3450    3.3970   -2.9130 ha        1 0UV      0.151500
     86 H22         4.8440    1.4460   -5.7450 hn        1 0UV      0.330700
     87 H52         3.5160   -1.3100   -0.4480 hn        1 0UV      0.480800
@<TRIPOS>BOND
     1    1    2 1   
     2    1   43 1   
     3    1   44 1   
     4    1   45 1   
     5    2    3 1   
     6    2    4 1   
     7    2   46 1   
     8    3   47 1   
     9    3   48 1   
    10    3   49 1   
    11    4    5 1   
    12    4   50 1   
    13    4   87 1   
    14    5    6 2   
    15    5    7 1   
    16    7    8 1   
    17    7   10 1   
    18    7   51 1   
    19    8    9 1   
    20    8   52 1   
    21    8   53 1   
    22    9   12 1   
    23    9   54 1   
    24    9   55 1   
    25   10   11 1   
    26   10   56 1   
    27   10   57 1   
    28   11   12 1   
    29   11   58 1   
    30   11   59 1   
    31   12   13 1   
    32   12   60 1   
    33   13   14 1   
    34   13   32 1   
    35   14   15 ar  
    36   14   30 ar  
    37   15   16 ar  
    38   15   61 1   
    39   16   17 1   
    40   16   28 ar  
    41   17   18 1   
    42   17   62 1   
    43   17   63 1   
    44   18   19 1   
    45   18   21 1   
    46   19   20 1   
    47   19   64 1   
    48   19   65 1   
    49   20   23 1   
    50   20   66 1   
    51   20   67 1   
    52   21   22 1   
    53   21   68 1   
    54   21   69 1   
    55   22   23 1   
    56   22   70 1   
    57   22   71 1   
    58   23   24 1   
    59   23   72 1   
    60   24   25 1   
    61   24   26 1   
    62   24   27 1   
    63   25   73 1   
    64   25   74 1   
    65   25   75 1   
    66   26   76 1   
    67   26   77 1   
    68   26   78 1   
    69   27   79 1   
    70   28   29 ar  
    71   28   80 1   
    72   29   30 ar  
    73   29   81 1   
    74   30   31 1   
    75   31   32 1   
    76   31   86 1   
    77   32   33 2   
    78   33   34 1   
    79   34   35 2   
    80   34   36 1   
    81   36   37 ar  
    82   36   42 ar  
    83   37   38 ar  
    84   37   82 1   
    85   38   39 ar  
    86   38   83 1   
    87   39   40 1   
    88   39   41 ar  
    89   41   42 ar  
    90   41   84 1   
    91   42   85 1   
@<TRIPOS>SUBSTRUCTURE
     1 0UV         1 TEMP              0 ****  ****    0 ROOT
