@<TRIPOS>MOLECULE
0UV
   87    91     1     0     0
SMALL
bcc


@<TRIPOS>ATOM
      1 C24         2.0550    0.2650    0.8640 c3        1 0UV     -0.128600
      2 C23         1.5230   -0.9940    0.1920 c3        1 0UV      0.137500
      3 C25         0.1810   -0.7150   -0.4710 c3        1 0UV     -0.128600
      4 N5          2.5240   -1.5220   -0.8100 ny        1 0UV     -0.675800
      5 C22         2.3750   -2.9800   -1.1260 c         1 0UV      0.544100
      6 O2          1.7700   -3.6770   -0.3210 o         1 0UV     -0.431100
      7 C19         2.9980   -3.4750   -2.4150 c3        1 0UV     -0.123700
      8 C20         2.2500   -2.9130   -3.6140 c3        1 0UV     -0.083900
      9 C21         2.8740   -3.3840   -4.9070 c3        1 0UV     -0.084900
     10 C18         4.4910   -3.1930   -2.4450 c3        1 0UV     -0.083900
     11 C17         5.1160   -3.5790   -3.7660 c3        1 0UV     -0.084900
     12 C16         4.3810   -3.1160   -5.0310 c3        1 0UV      0.075000
     13 N1          4.7500   -1.8050   -5.5270 na        1 0UV     -0.165300
     14 C4          5.0070   -1.5760   -6.9110 ca        1 0UV     -0.065200
     15 C3          5.2520   -2.4540   -7.9630 ca        1 0UV     -0.092000
     16 C2          5.5150   -1.9100   -9.2270 ca        1 0UV     -0.061300
     17 C15         5.8300   -2.8200  -10.3830 c3        1 0UV      0.207100
     18 N4          4.9460   -3.9750  -10.4820 n3        1 0UV     -0.737600
     19 C30         5.5020   -4.9980  -11.3620 c3        1 0UV      0.165300
     20 C29         4.5970   -6.2200  -11.5110 c3        1 0UV     -0.072900
     21 C26         3.5840   -3.5990  -10.8430 c3        1 0UV      0.165300
     22 C27         2.6430   -4.7920  -10.9860 c3        1 0UV     -0.072900
     23 C28         3.2090   -5.8040  -11.9690 c3        1 0UV     -0.052700
     24 C31         2.2680   -7.0080  -12.1660 c3        1 0UV      0.155800
     25 C32         2.6470   -7.7760  -13.4300 c3        1 0UV     -0.123600
     26 C33         2.2580   -7.9590  -10.9750 c3        1 0UV     -0.123600
     27 O3          0.9640   -6.4410  -12.3300 oh        1 0UV     -0.603800
     28 C1          5.5410   -0.5230   -9.4290 ca        1 0UV     -0.110000
     29 C6          5.3070    0.3760   -8.3890 ca        1 0UV     -0.113000
     30 C5          5.0380   -0.1520   -7.1290 ca        1 0UV     -0.050200
     31 N2          4.7360    0.4690   -5.9030 na        1 0UV     -0.316300
     32 C7          4.5590   -0.5320   -4.9150 cc        1 0UV      0.681300
     33 N3          4.2100   -0.3780   -3.6350 nf        1 0UV     -0.870100
     34 C8          4.1890    0.8180   -2.9440 c         1 0UV      0.760100
     35 O1          3.4820    0.8360   -1.9040 o         1 0UV     -0.668100
     36 C9          4.9920    2.0160   -3.3080 ca        1 0UV     -0.215600
     37 C10         6.3350    1.9000   -3.6840 ca        1 0UV     -0.070500
     38 C11         7.0880    3.0340   -3.9660 ca        1 0UV     -0.173000
     39 C12         6.4890    4.3060   -3.8700 ca        1 0UV      0.165900
     40 F1          7.2120    5.4120   -4.1480 f         1 0UV     -0.117900
     41 C13         5.1400    4.4280   -3.4820 ca        1 0UV     -0.173000
     42 C14         4.4060    3.2830   -3.1930 ca        1 0UV     -0.070500
     43 H1          2.2920    1.0600    0.1120 hc        1 0UV      0.074533
     44 H2          1.2680    0.6520    1.5580 hc        1 0UV      0.074533
     45 H3          2.9740    0.0470    1.4610 hc        1 0UV      0.074533
     46 H4          1.3900   -1.8050    0.9730 hx        1 0UV      0.110700
     47 H5         -0.5400   -0.3910    0.3210 hc        1 0UV      0.074533
     48 H6          0.2640    0.1030   -1.2270 hc        1 0UV      0.074533
     49 H7         -0.2280   -1.6330   -0.9590 hc        1 0UV      0.074533
     50 H8          2.4600   -0.9570   -1.6810 hn        1 0UV      0.480800
     51 H9          2.8520   -4.5990   -2.4090 hc        1 0UV      0.110700
     52 H10         2.2210   -1.7940   -3.5960 hc        1 0UV      0.065200
     53 H11         1.1850   -3.2720   -3.5790 hc        1 0UV      0.065200
     54 H12         2.7380   -4.4970   -4.9930 hc        1 0UV      0.070950
     55 H13         2.3230   -2.9150   -5.7660 hc        1 0UV      0.070950
     56 H14         4.7100   -2.1180   -2.2290 hc        1 0UV      0.065200
     57 H15         4.9850   -3.7970   -1.6340 hc        1 0UV      0.065200
     58 H16         6.1760   -3.2080   -3.7790 hc        1 0UV      0.070950
     59 H17         5.1550   -4.7020   -3.8270 hc        1 0UV      0.070950
     60 H18         4.7460   -3.8190   -5.8530 h1        1 0UV      0.083700
     61 H19         5.2400   -3.5460   -7.8300 ha        1 0UV      0.166000
     62 H20         6.8840   -3.2000  -10.2320 h1        1 0UV      0.049700
     63 H21         5.8270   -2.2120  -11.3380 h1        1 0UV      0.049700
     64 H23         6.4830   -5.3310  -10.9180 h1        1 0UV      0.033700
     65 H24         5.7150   -4.5830  -12.3910 h1        1 0UV      0.033700
     66 H25         5.0650   -6.9130  -12.2550 hc        1 0UV      0.055450
     67 H26         4.5300   -6.7590  -10.5300 hc        1 0UV      0.055450
     68 H27         3.5630   -3.0100  -11.8080 h1        1 0UV      0.033700
     69 H28         3.1980   -2.9250  -10.0270 h1        1 0UV      0.033700
     70 H29         1.6490   -4.4230  -11.3510 hc        1 0UV      0.055450
     71 H30         2.4820   -5.2780   -9.9900 hc        1 0UV      0.055450
     72 H31         3.2990   -5.2970  -12.9730 hc        1 0UV      0.059700
     73 H32         3.6940   -8.1510  -13.3590 hc        1 0UV      0.044367
     74 H33         2.5570   -7.1120  -14.3230 hc        1 0UV      0.044367
     75 H34         1.9640   -8.6490  -13.5660 hc        1 0UV      0.044367
     76 H35         1.4420   -8.7120  -11.0980 hc        1 0UV      0.044367
     77 H36         2.0780   -7.3970  -10.0280 hc        1 0UV      0.044367
     78 H37         3.2320   -8.4990  -10.9020 hc        1 0UV      0.044367
     79 H38         0.3720   -7.1650  -12.5640 ho        1 0UV      0.403000
     80 H39         5.7510   -0.1250  -10.4360 ha        1 0UV      0.153000
     81 H40         5.3320    1.4610   -8.5620 ha        1 0UV      0.155000
     82 H42         6.8120    0.9080   -3.7430 ha        1 0UV      0.151500
     83 H43         8.1470    2.9520   -4.2530 ha        1 0UV      0.167000
     84 H44         4.6840    5.4270   -3.4000 ha        1 0UV      0.167000
     85 H45         3.3580    3.3690   -2.8610 ha        1 0UV      0.151500
     86 H22         4.8550    1.4330   -5.7070 hn        1 0UV      0.330700
     87 H52         3.4710   -1.3600   -0.4420 hn        1 0UV      0.480800
@<TRIPOS>BOND
     1    1    2 1   
     2    1   43 1   
     3    1   44 1   
     4    1   45 1   
     5    2    3 1   
     6    2    4 1   
     7    2   46 1   
     8    3   47 1   
     9    3   48 1   
    10    3   49 1   
    11    4    5 1   
    12    4   50 1   
    13    4   87 1   
    14    5    6 2   
    15    5    7 1   
    16    7    8 1   
    17    7   10 1   
    18    7   51 1   
    19    8    9 1   
    20    8   52 1   
    21    8   53 1   
    22    9   12 1   
    23    9   54 1   
    24    9   55 1   
    25   10   11 1   
    26   10   56 1   
    27   10   57 1   
    28   11   12 1   
    29   11   58 1   
    30   11   59 1   
    31   12   13 1   
    32   12   60 1   
    33   13   14 1   
    34   13   32 1   
    35   14   15 ar  
    36   14   30 ar  
    37   15   16 ar  
    38   15   61 1   
    39   16   17 1   
    40   16   28 ar  
    41   17   18 1   
    42   17   62 1   
    43   17   63 1   
    44   18   19 1   
    45   18   21 1   
    46   19   20 1   
    47   19   64 1   
    48   19   65 1   
    49   20   23 1   
    50   20   66 1   
    51   20   67 1   
    52   21   22 1   
    53   21   68 1   
    54   21   69 1   
    55   22   23 1   
    56   22   70 1   
    57   22   71 1   
    58   23   24 1   
    59   23   72 1   
    60   24   25 1   
    61   24   26 1   
    62   24   27 1   
    63   25   73 1   
    64   25   74 1   
    65   25   75 1   
    66   26   76 1   
    67   26   77 1   
    68   26   78 1   
    69   27   79 1   
    70   28   29 ar  
    71   28   80 1   
    72   29   30 ar  
    73   29   81 1   
    74   30   31 1   
    75   31   32 1   
    76   31   86 1   
    77   32   33 2   
    78   33   34 1   
    79   34   35 2   
    80   34   36 1   
    81   36   37 ar  
    82   36   42 ar  
    83   37   38 ar  
    84   37   82 1   
    85   38   39 ar  
    86   38   83 1   
    87   39   40 1   
    88   39   41 ar  
    89   41   42 ar  
    90   41   84 1   
    91   42   85 1   
@<TRIPOS>SUBSTRUCTURE
     1 0UV         1 TEMP              0 ****  ****    0 ROOT
