@<TRIPOS>MOLECULE
0UX
   64    69     1     0     0
SMALL
bcc


@<TRIPOS>ATOM
      1 N1          1.2530   -0.4700   -0.9750 ns        1 0UX     -0.504400
      2 C1          2.4070   -0.4650   -0.1390 c         1 0UX      0.724100
      3 O1          3.4970   -0.6420   -0.6860 o         1 0UX     -0.520500
      4 C2          2.1750   -0.2500    1.3020 ca        1 0UX     -0.168600
      5 C3          0.8470   -0.0400    1.7900 ca        1 0UX      0.168400
      6 N2         -0.2380   -0.0510    0.8960 nc        1 0UX     -0.581100
      7 C4          0.0080   -0.2660   -0.3840 cd        1 0UX      0.543800
      8 N3         -1.1880   -0.2890   -1.2960 nz        1 0UX     -0.804600
      9 C5          3.2910   -0.2750    2.1420 ca        1 0UX     -0.025000
     10 C6          3.0650   -0.0800    3.4970 ca        1 0UX     -0.058200
     11 C7          1.7250    0.1510    4.0250 ca        1 0UX      0.146400
     12 C8          0.6100    0.1650    3.1720 ca        1 0UX     -0.053300
     13 C9         -0.7540    0.3140    3.7490 c3        1 0UX     -0.042100
     14 C10        -0.9610    1.6370    4.4880 c3        1 0UX      0.116800
     15 N4         -0.7490    1.5470    5.9600 ny        1 0UX     -0.773000
     16 C11        -1.0950    2.8210    6.6520 c3        1 0UX      0.107800
     17 N5          3.9320   -0.0690    4.5950 na        1 0UX     -0.285300
     18 C12         3.1300    0.1860    5.7430 cc        1 0UX      0.718700
     19 N6          3.6510    0.3400    7.0080 nu        1 0UX     -0.798200
     20 C13         5.0190    0.0200    7.3020 c3        1 0UX      0.172100
     21 N7          1.7870    0.3150    5.4110 nd        1 0UX     -0.755100
     22 C14        -0.9350    2.7610    8.1790 c3        1 0UX     -0.073000
     23 C15        -1.8380    1.6910    8.7990 c3        1 0UX     -0.071733
     24 C16        -1.7070    1.7280   10.3200 c3        1 0UX     -0.059367
     25 C17        -2.1280    3.0990   10.8370 c3        1 0UX     -0.077067
     26 C18        -1.2270    4.1690   10.2300 c3        1 0UX     -0.059367
     27 C19        -1.3580    4.1410    8.7120 c3        1 0UX     -0.071733
     28 C20         0.2220    3.9020   10.6200 c3        1 0UX     -0.077067
     29 C21         0.5170    2.4980    8.5800 c3        1 0UX     -0.071733
     30 C22        -0.2580    1.4590   10.7100 c3        1 0UX     -0.077067
     31 C23         0.6420    2.5300   10.1020 c3        1 0UX     -0.059367
     32 H1          1.3760   -0.6290   -1.9530 hn        1 0UX      0.361500
     33 H2         -1.2530   -1.2090   -1.7510 hn        1 0UX      0.486133
     34 H3         -2.0480   -0.1240   -0.7510 hn        1 0UX      0.486133
     35 H4          4.2980   -0.4490    1.7240 ha        1 0UX      0.195000
     36 H5         -0.9450   -0.5660    4.4270 hc        1 0UX      0.089200
     37 H6         -1.5440    0.2700    2.9510 hc        1 0UX      0.089200
     38 H7         -2.0200    1.9910    4.3220 hx        1 0UX      0.101200
     39 H8         -0.2570    2.4220    4.0880 hx        1 0UX      0.101200
     40 H9          0.2460    1.3060    6.1500 hn        1 0UX      0.468300
     41 H11        -0.4240    3.6270    6.2390 hx        1 0UX      0.098200
     42 H12        -2.1660    3.0730    6.4030 hx        1 0UX      0.098200
     43 H13         4.9170   -0.1590    4.5670 hn        1 0UX      0.340700
     44 H14         2.9970    0.3180    7.7630 hn        1 0UX      0.465800
     45 H15         5.1980    0.2090    8.3950 h1        1 0UX      0.071033
     46 H16         5.2580   -1.0550    7.0760 h1        1 0UX      0.071033
     47 H17         5.7050    0.6830    6.7090 h1        1 0UX      0.071033
     48 H19        -2.9040    1.8770    8.5070 hc        1 0UX      0.041367
     49 H20        -1.5460    0.6700    8.4410 hc        1 0UX      0.041367
     50 H21        -2.3710    0.9380   10.7640 hc        1 0UX      0.072700
     51 H22        -2.0460    3.1230   11.9540 hc        1 0UX      0.059367
     52 H23        -3.1970    3.2990   10.5680 hc        1 0UX      0.059367
     53 H24        -1.5380    5.1810   10.6060 hc        1 0UX      0.072700
     54 H25        -0.7080    4.9350    8.2610 hc        1 0UX      0.041367
     55 H26        -2.4200    4.3480    8.4210 hc        1 0UX      0.041367
     56 H27         0.3270    3.9320   11.7350 hc        1 0UX      0.059367
     57 H28         0.8870    4.6940   10.1910 hc        1 0UX      0.059367
     58 H29         1.1830    3.2790    8.1300 hc        1 0UX      0.041367
     59 H30         0.8530    1.4940    8.2100 hc        1 0UX      0.041367
     60 H31        -0.1590    1.4730   11.8260 hc        1 0UX      0.059367
     61 H32         0.0540    0.4450   10.3510 hc        1 0UX      0.059367
     62 H33         1.7100    2.3330   10.3870 hc        1 0UX      0.072700
     63 H331       -1.0940    0.4460   -2.0070 hn        1 0UX      0.486133
     64 H42        -1.3260    0.7900    6.3430 hn        1 0UX      0.468300
@<TRIPOS>BOND
     1    1    2 1   
     2    1    7 1   
     3    1   32 1   
     4    2    3 2   
     5    2    4 1   
     6    4    5 ar  
     7    4    9 ar  
     8    5    6 1   
     9    5   12 ar  
    10    6    7 2   
    11    7    8 1   
    12    8   33 1   
    13    8   34 1   
    14    8   63 1   
    15    9   10 ar  
    16    9   35 1   
    17   10   11 ar  
    18   10   17 1   
    19   11   12 ar  
    20   11   21 1   
    21   12   13 1   
    22   13   14 1   
    23   13   36 1   
    24   13   37 1   
    25   14   15 1   
    26   14   38 1   
    27   14   39 1   
    28   15   16 1   
    29   15   40 1   
    30   15   64 1   
    31   16   22 1   
    32   16   41 1   
    33   16   42 1   
    34   17   18 1   
    35   17   43 1   
    36   18   19 1   
    37   18   21 2   
    38   19   20 1   
    39   19   44 1   
    40   20   45 1   
    41   20   46 1   
    42   20   47 1   
    43   22   23 1   
    44   22   27 1   
    45   22   29 1   
    46   23   24 1   
    47   23   48 1   
    48   23   49 1   
    49   24   25 1   
    50   24   30 1   
    51   24   50 1   
    52   25   26 1   
    53   25   51 1   
    54   25   52 1   
    55   26   27 1   
    56   26   28 1   
    57   26   53 1   
    58   27   54 1   
    59   27   55 1   
    60   28   31 1   
    61   28   56 1   
    62   28   57 1   
    63   29   31 1   
    64   29   58 1   
    65   29   59 1   
    66   30   31 1   
    67   30   60 1   
    68   30   61 1   
    69   31   62 1   
@<TRIPOS>SUBSTRUCTURE
     1 0UX         1 TEMP              0 ****  ****    0 ROOT
