@<TRIPOS>MOLECULE
0UX
   64    69     1     0     0
SMALL
bcc


@<TRIPOS>ATOM
      1 N1          1.2920   -0.4800   -0.9670 n         1 0UX     -0.504400
      2 C1          2.4380   -0.4880   -0.1210 c         1 0UX      0.724100
      3 O1          3.5310   -0.6760   -0.6590 o         1 0UX     -0.520500
      4 C2          2.1960   -0.2700    1.3170 ca        1 0UX     -0.168600
      5 C3          0.8670   -0.0460    1.7940 ca        1 0UX      0.168400
      6 N2         -0.2110   -0.0450    0.8910 nc        1 0UX     -0.581100
      7 C4          0.0440   -0.2620   -0.3860 cd        1 0UX      0.543800
      8 N3         -1.1450   -0.2730   -1.3080 n4        1 0UX     -0.804600
      9 C5          3.3050   -0.3070    2.1670 ca        1 0UX     -0.025000
     10 C6          3.0690   -0.1100    3.5210 ca        1 0UX     -0.058200
     11 C7          1.7280    0.1350    4.0370 ca        1 0UX      0.146400
     12 C8          0.6200    0.1610    3.1750 ca        1 0UX     -0.053300
     13 C9         -0.7470    0.3240    3.7400 c3        1 0UX     -0.042100
     14 C10        -0.9470    1.6500    4.4760 c3        1 0UX      0.116800
     15 N4         -0.7470    1.5590    5.9500 n4        1 0UX     -0.773000
     16 C11        -1.0850    2.8370    6.6380 c3        1 0UX      0.107800
     17 N5          3.9270   -0.1090    4.6260 na        1 0UX     -0.285300
     18 C12         3.1190    0.1550    5.7670 cc        1 0UX      0.718700
     19 N6          3.6300    0.3030    7.0360 nh        1 0UX     -0.798200
     20 C13         4.9930   -0.0320    7.3420 c3        1 0UX      0.172100
     21 N7          1.7790    0.2980    5.4240 nd        1 0UX     -0.755100
     22 C14        -0.9390    2.7780    8.1660 c3        1 0UX     -0.073000
     23 C15        -1.8580    1.7190    8.7800 c3        1 0UX     -0.071733
     24 C16        -1.7390    1.7560   10.3020 c3        1 0UX     -0.059367
     25 C17        -2.1490    3.1320   10.8140 c3        1 0UX     -0.077067
     26 C18        -1.2310    4.1910   10.2130 c3        1 0UX     -0.059367
     27 C19        -1.3500    4.1630    8.6940 c3        1 0UX     -0.071733
     28 C20         0.2120    3.9080   10.6150 c3        1 0UX     -0.077067
     29 C21         0.5080    2.4990    8.5800 c3        1 0UX     -0.071733
     30 C22        -0.2960    1.4710   10.7040 c3        1 0UX     -0.077067
     31 C23         0.6210    2.5320   10.1020 c3        1 0UX     -0.059367
     32 H1          1.4210   -0.6400   -1.9440 hn        1 0UX      0.361500
     33 H2         -1.0370    0.4610   -2.0190 hn        1 0UX      0.486133
     34 H3         -2.0080   -0.0980   -0.7710 hn        1 0UX      0.486133
     35 H4          4.3140   -0.4920    1.7580 ha        1 0UX      0.195000
     36 H5         -1.5300    0.2870    2.9360 hc        1 0UX      0.089200
     37 H6         -0.9530   -0.5530    4.4180 hc        1 0UX      0.089200
     38 H7         -2.0010    2.0140    4.3020 hx        1 0UX      0.101200
     39 H8         -0.2320    2.4270    4.0820 hx        1 0UX      0.101200
     40 H9         -1.3350    0.8080    6.3300 hn        1 0UX      0.468300
     41 H11        -0.4020    3.6360    6.2300 hx        1 0UX      0.098200
     42 H12        -2.1510    3.1010    6.3800 hx        1 0UX      0.098200
     43 H13         4.9110   -0.2090    4.6060 hn        1 0UX      0.340700
     44 H14         2.9700    0.2880    7.7850 hn        1 0UX      0.465800
     45 H15         5.6910    0.6250    6.7550 h1        1 0UX      0.071033
     46 H16         5.1630    0.1550    8.4370 h1        1 0UX      0.071033
     47 H17         5.2220   -1.1090    7.1180 h1        1 0UX      0.071033
     48 H19        -2.9190    1.9160    8.4790 hc        1 0UX      0.041367
     49 H20        -1.5740    0.6940    8.4250 hc        1 0UX      0.041367
     50 H21        -2.4150    0.9740   10.7410 hc        1 0UX      0.072700
     51 H22        -2.0750    3.1560   11.9320 hc        1 0UX      0.059367
     52 H23        -3.2130    3.3440   10.5360 hc        1 0UX      0.059367
     53 H24        -1.5340    5.2070   10.5860 hc        1 0UX      0.072700
     54 H25        -0.6880    4.9490    8.2480 hc        1 0UX      0.041367
     55 H26        -2.4070    4.3820    8.3950 hc        1 0UX      0.041367
     56 H27         0.8890    4.6930   10.1910 hc        1 0UX      0.059367
     57 H28         0.3070    3.9390   11.7310 hc        1 0UX      0.059367
     58 H29         0.8350    1.4910    8.2130 hc        1 0UX      0.041367
     59 H30         1.1850    3.2720    8.1340 hc        1 0UX      0.041367
     60 H31        -0.2070    1.4860   11.8210 hc        1 0UX      0.059367
     61 H32         0.0070    0.4540   10.3490 hc        1 0UX      0.059367
     62 H33         1.6840    2.3230   10.3970 hc        1 0UX      0.072700
     63 H331       -1.2150   -1.1920   -1.7640 hn        1 0UX      0.486133
     64 H42         0.2440    1.3080    6.1480 hn        1 0UX      0.468300
@<TRIPOS>BOND
     1    1    2 1   
     2    1    7 1   
     3    1   32 1   
     4    2    3 2   
     5    2    4 1   
     6    4    5 ar  
     7    4    9 ar  
     8    5    6 1   
     9    5   12 ar  
    10    6    7 2   
    11    7    8 1   
    12    8   33 1   
    13    8   34 1   
    14    8   63 1   
    15    9   10 ar  
    16    9   35 1   
    17   10   11 ar  
    18   10   17 1   
    19   11   12 ar  
    20   11   21 1   
    21   12   13 1   
    22   13   14 1   
    23   13   36 1   
    24   13   37 1   
    25   14   15 1   
    26   14   38 1   
    27   14   39 1   
    28   15   16 1   
    29   15   40 1   
    30   15   64 1   
    31   16   22 1   
    32   16   41 1   
    33   16   42 1   
    34   17   18 1   
    35   17   43 1   
    36   18   19 1   
    37   18   21 2   
    38   19   20 1   
    39   19   44 1   
    40   20   45 1   
    41   20   46 1   
    42   20   47 1   
    43   22   23 1   
    44   22   27 1   
    45   22   29 1   
    46   23   24 1   
    47   23   48 1   
    48   23   49 1   
    49   24   25 1   
    50   24   30 1   
    51   24   50 1   
    52   25   26 1   
    53   25   51 1   
    54   25   52 1   
    55   26   27 1   
    56   26   28 1   
    57   26   53 1   
    58   27   54 1   
    59   27   55 1   
    60   28   31 1   
    61   28   56 1   
    62   28   57 1   
    63   29   31 1   
    64   29   58 1   
    65   29   59 1   
    66   30   31 1   
    67   30   60 1   
    68   30   61 1   
    69   31   62 1   
@<TRIPOS>SUBSTRUCTURE
     1 0UX         1 TEMP              0 ****  ****    0 ROOT
