@<TRIPOS>MOLECULE
0UX
   62    67     1     0     0
SMALL
bcc


@<TRIPOS>ATOM
      1 N1          4.3120   -3.6030   -0.3650 n         1 0UX     -0.504400
      2 C1          4.9580   -2.3770   -0.5820 c         1 0UX      0.719100
      3 O1          6.1290   -2.3970   -1.0040 o         1 0UX     -0.632500
      4 C2          4.1820   -1.1570   -0.2990 ca        1 0UX     -0.199600
      5 C3          2.8450   -1.2830    0.1870 ca        1 0UX      0.202400
      6 N2          2.2670   -2.5390    0.3830 nc        1 0UX     -0.670100
      7 C4          2.9950   -3.6350    0.1480 cd        1 0UX      0.654800
      8 N3          2.4650   -4.9130    0.4740 nh        1 0UX     -0.880800
      9 C5          4.7950    0.0820   -0.5130 ca        1 0UX     -0.052000
     10 C6          4.0430    1.2130   -0.2470 ca        1 0UX     -0.115200
     11 C7          2.6740    1.1220    0.2420 ca        1 0UX      0.138400
     12 C8          2.0760   -0.1210    0.4710 ca        1 0UX     -0.039300
     13 C9          0.6860   -0.1990    0.9980 c3        1 0UX     -0.025100
     14 C10        -0.3140   -0.3120   -0.1580 c3        1 0UX      0.168800
     15 N4         -1.6930   -0.3280    0.2930 n3        1 0UX     -0.823200
     16 C11        -2.6380   -0.2430   -0.8000 c3        1 0UX      0.172800
     17 N5          4.3690    2.5840   -0.2980 na        1 0UX     -0.283300
     18 C12         3.1540    3.2700    0.0470 cc        1 0UX      0.609700
     19 N6          3.0330    4.6700   -0.0480 nh        1 0UX     -0.773200
     20 C13         4.2090    5.4630    0.1830 c3        1 0UX      0.165100
     21 N7          2.1540    2.4200    0.4260 nd        1 0UX     -0.623100
     22 C14        -4.1000   -0.0140   -0.3800 c3        1 0UX     -0.050000
     23 C15        -4.5760   -1.0910    0.5970 c3        1 0UX     -0.063733
     24 C16        -6.0450   -0.8690    0.9420 c3        1 0UX     -0.062367
     25 C17        -6.8870   -0.9400   -0.3280 c3        1 0UX     -0.069400
     26 C18        -6.4280    0.1390   -1.3020 c3        1 0UX     -0.062367
     27 C19        -4.9610   -0.0820   -1.6490 c3        1 0UX     -0.063733
     28 C20        -6.5970    1.5120   -0.6600 c3        1 0UX     -0.069400
     29 C21        -4.2850    1.3620    0.2640 c3        1 0UX     -0.063733
     30 C22        -6.2150    0.5040    1.5850 c3        1 0UX     -0.069400
     31 C23        -5.7550    1.5830    0.6090 c3        1 0UX     -0.062367
     32 H1          4.8370   -4.4420   -0.4770 hn        1 0UX      0.336500
     33 H2          1.5150   -4.8820    0.7830 hn        1 0UX      0.410300
     34 H3          2.6210   -5.6060   -0.2260 hn        1 0UX      0.410300
     35 H4          5.8320    0.1260   -0.8770 ha        1 0UX      0.162000
     36 H5          0.5730   -1.0810    1.6830 hc        1 0UX      0.066200
     37 H6          0.4620    0.7190    1.6060 hc        1 0UX      0.066200
     38 H7         -0.1140    0.5320   -0.8830 h1        1 0UX      0.034700
     39 H8         -0.1290   -1.2790   -0.7060 h1        1 0UX      0.034700
     40 H9         -1.8530    0.4050    0.9600 hn        1 0UX      0.354800
     41 H11        -2.3650    0.5760   -1.5340 h1        1 0UX      0.027700
     42 H12        -2.5820   -1.2210   -1.3580 h1        1 0UX      0.027700
     43 H13         5.0360    2.9510   -0.9280 hn        1 0UX      0.295700
     44 H14         2.2200    5.0070    0.4340 hn        1 0UX      0.425800
     45 H15         4.7160    5.2370    1.1600 h1        1 0UX      0.046367
     46 H16         4.9450    5.2940   -0.6480 h1        1 0UX      0.046367
     47 H17         3.9070    6.5450    0.1730 h1        1 0UX      0.046367
     48 H19        -4.4400   -2.1010    0.1340 hc        1 0UX      0.043200
     49 H20        -3.9640   -1.0570    1.5340 hc        1 0UX      0.043200
     50 H21        -6.3820   -1.6630    1.6600 hc        1 0UX      0.046367
     51 H22        -6.7780   -1.9500   -0.8000 hc        1 0UX      0.039367
     52 H23        -7.9680   -0.7910   -0.0770 hc        1 0UX      0.039367
     53 H24        -7.0440    0.0850   -2.2390 hc        1 0UX      0.046367
     54 H25        -4.6220    0.7010   -2.3760 hc        1 0UX      0.043200
     55 H26        -4.8340   -1.0830   -2.1350 hc        1 0UX      0.043200
     56 H27        -6.2730    2.3090   -1.3770 hc        1 0UX      0.039367
     57 H28        -7.6750    1.6860   -0.4120 hc        1 0UX      0.039367
     58 H29        -3.6770    1.4390    1.2020 hc        1 0UX      0.043200
     59 H30        -3.9360    2.1590   -0.4420 hc        1 0UX      0.043200
     60 H31        -7.2890    0.6690    1.8530 hc        1 0UX      0.039367
     61 H32        -5.6100    0.5600    2.5250 hc        1 0UX      0.039367
     62 H33        -5.8770    2.5940    1.0830 hc        1 0UX      0.046367
@<TRIPOS>BOND
     1    1    2 1   
     2    1    7 1   
     3    1   32 1   
     4    2    3 2   
     5    2    4 1   
     6    4    5 ar  
     7    4    9 ar  
     8    5    6 1   
     9    5   12 ar  
    10    6    7 2   
    11    7    8 1   
    12    8   33 1   
    13    8   34 1   
    14    9   10 ar  
    15    9   35 1   
    16   10   11 ar  
    17   10   17 1   
    18   11   12 ar  
    19   11   21 1   
    20   12   13 1   
    21   13   14 1   
    22   13   36 1   
    23   13   37 1   
    24   14   15 1   
    25   14   38 1   
    26   14   39 1   
    27   15   16 1   
    28   15   40 1   
    29   16   22 1   
    30   16   41 1   
    31   16   42 1   
    32   17   18 1   
    33   17   43 1   
    34   18   19 1   
    35   18   21 2   
    36   19   20 1   
    37   19   44 1   
    38   20   45 1   
    39   20   46 1   
    40   20   47 1   
    41   22   23 1   
    42   22   27 1   
    43   22   29 1   
    44   23   24 1   
    45   23   48 1   
    46   23   49 1   
    47   24   25 1   
    48   24   30 1   
    49   24   50 1   
    50   25   26 1   
    51   25   51 1   
    52   25   52 1   
    53   26   27 1   
    54   26   28 1   
    55   26   53 1   
    56   27   54 1   
    57   27   55 1   
    58   28   31 1   
    59   28   56 1   
    60   28   57 1   
    61   29   31 1   
    62   29   58 1   
    63   29   59 1   
    64   30   31 1   
    65   30   60 1   
    66   30   61 1   
    67   31   62 1   
@<TRIPOS>SUBSTRUCTURE
     1 0UX         1 TEMP              0 ****  ****    0 ROOT
