@<TRIPOS>MOLECULE
0UX
   65    70     1     0     0
SMALL
bcc


@<TRIPOS>ATOM
      1 N1          0.2060   -0.1610   -0.4340 n         1 0UX     -0.497400
      2 C1          1.6080    0.0550   -0.3210 c         1 0UX      0.715100
      3 O1          2.2660    0.1300   -1.3570 o         1 0UX     -0.476500
      4 C2          2.1510    0.1640    1.0550 ca        1 0UX     -0.132600
      5 C3          1.2590    0.0950    2.1810 ca        1 0UX      0.172400
      6 N2         -0.1220   -0.0920    1.9710 nc        1 0UX     -0.606100
      7 C4         -0.5560   -0.2270    0.7280 cd        1 0UX      0.587800
      8 N3         -2.0300   -0.4770    0.5530 n4        1 0UX     -0.808600
      9 C5          3.5240    0.3100    1.1810 ca        1 0UX     -0.012000
     10 C6          4.0320    0.3880    2.4850 ca        1 0UX     -0.038200
     11 C7          3.1580    0.3380    3.6450 ca        1 0UX      0.089400
     12 C8          1.7600    0.1900    3.4970 ca        1 0UX      0.010700
     13 C9          0.9080    0.0700    4.7150 c3        1 0UX     -0.058100
     14 C10         0.6100    1.4490    5.3110 c3        1 0UX      0.107800
     15 N4         -0.1440    1.3710    6.5940 n4        1 0UX     -0.764000
     16 C11        -0.4510    2.7280    7.1540 c3        1 0UX      0.107800
     17 N5          5.3390    0.5000    2.9620 na        1 0UX     -0.226300
     18 C12         5.2260    0.5120    4.3710 cc        1 0UX      0.462700
     19 N6          6.3940    0.6000    5.2600 n4        1 0UX     -0.686000
     20 C13         7.2640   -0.6070    5.1730 c3        1 0UX      0.078100
     21 N7          3.9370    0.4240    4.8120 nd        1 0UX     -0.519100
     22 C14        -1.2360    2.6760    8.4750 c3        1 0UX     -0.079000
     23 C15        -2.5970    2.0010    8.2920 c3        1 0UX     -0.071400
     24 C16        -3.3720    2.0510    9.6080 c3        1 0UX     -0.058700
     25 C17        -3.5840    3.5030   10.0200 c3        1 0UX     -0.079733
     26 C18        -2.2320    4.1790   10.2110 c3        1 0UX     -0.058700
     27 C19        -1.4540    4.1390    8.9000 c3        1 0UX     -0.071400
     28 C20        -1.4410    3.4540   11.2930 c3        1 0UX     -0.079733
     29 C21        -0.4470    1.9510    9.5680 c3        1 0UX     -0.071400
     30 C22        -2.5820    1.3230   10.6890 c3        1 0UX     -0.079733
     31 C23        -1.2300    2.0010   10.8800 c3        1 0UX     -0.058700
     32 H1         -0.1800   -0.2630   -1.3540 hn        1 0UX      0.379500
     33 H2         -2.4990   -0.5080    1.4710 hn        1 0UX      0.495800
     34 H3         -2.4460    0.2780   -0.0120 hn        1 0UX      0.495800
     35 H4          4.1740    0.3540    0.2860 ha        1 0UX      0.215000
     36 H5         -0.0550   -0.4590    4.4790 hc        1 0UX      0.092700
     37 H6          1.4490   -0.5680    5.4700 hc        1 0UX      0.092700
     38 H7          1.5750    1.9980    5.5130 hx        1 0UX      0.108700
     39 H8         -0.0020    2.0590    4.5860 hx        1 0UX      0.108700
     40 H9         -1.0300    0.8690    6.4520 hn        1 0UX      0.456300
     41 H11         0.5300    3.2580    7.3210 hx        1 0UX      0.102200
     42 H12        -1.0510    3.2890    6.3830 hx        1 0UX      0.102200
     43 H13         6.1650    0.5520    2.4110 hn        1 0UX      0.357700
     44 H14         6.0520    0.7040    6.2320 hn        1 0UX      0.491800
     45 H15         8.0990   -0.4910    5.9230 hx        1 0UX      0.129367
     46 H16         6.6630   -1.5260    5.4150 hx        1 0UX      0.129367
     47 H17         7.6980   -0.6960    4.1410 hx        1 0UX      0.129367
     48 H19        -2.4700    0.9280    7.9920 hc        1 0UX      0.038033
     49 H20        -3.1790    2.5270    7.4920 hc        1 0UX      0.038033
     50 H21        -4.3670    1.5500    9.4650 hc        1 0UX      0.082033
     51 H22        -4.1780    4.0430    9.2390 hc        1 0UX      0.065533
     52 H23        -4.1650    3.5420   10.9780 hc        1 0UX      0.065533
     53 H24        -2.3850    5.2520   10.5110 hc        1 0UX      0.082033
     54 H25        -0.4640    4.6460    9.0330 hc        1 0UX      0.038033
     55 H26        -2.0270    4.6820    8.1040 hc        1 0UX      0.038033
     56 H27        -2.0030    3.4910   12.2620 hc        1 0UX      0.065533
     57 H28        -0.4530    3.9570   11.4510 hc        1 0UX      0.065533
     58 H29        -0.2820    0.8770    9.2920 hc        1 0UX      0.038033
     59 H30         0.5510    2.4400    9.7070 hc        1 0UX      0.038033
     60 H31        -3.1540    1.3470   11.6530 hc        1 0UX      0.065533
     61 H32        -2.4380    0.2490   10.4060 hc        1 0UX      0.065533
     62 H33        -0.6460    1.4640   11.6750 hc        1 0UX      0.082033
     63 H331       -2.1700   -1.3820    0.0780 hn        1 0UX      0.495800
     64 H42         0.4010    0.8450    7.2900 hn        1 0UX      0.456300
     65 H62         6.9360    1.4460    5.0160 hn        1 0UX      0.491800
@<TRIPOS>BOND
     1    1    2 1   
     2    1    7 1   
     3    1   32 1   
     4    2    3 2   
     5    2    4 1   
     6    4    5 ar  
     7    4    9 ar  
     8    5    6 1   
     9    5   12 ar  
    10    6    7 2   
    11    7    8 1   
    12    8   33 1   
    13    8   34 1   
    14    8   63 1   
    15    9   10 ar  
    16    9   35 1   
    17   10   11 ar  
    18   10   17 1   
    19   11   12 ar  
    20   11   21 1   
    21   12   13 1   
    22   13   14 1   
    23   13   36 1   
    24   13   37 1   
    25   14   15 1   
    26   14   38 1   
    27   14   39 1   
    28   15   16 1   
    29   15   40 1   
    30   15   64 1   
    31   16   22 1   
    32   16   41 1   
    33   16   42 1   
    34   17   18 1   
    35   17   43 1   
    36   18   19 1   
    37   18   21 2   
    38   19   20 1   
    39   19   44 1   
    40   19   65 1   
    41   20   45 1   
    42   20   46 1   
    43   20   47 1   
    44   22   23 1   
    45   22   27 1   
    46   22   29 1   
    47   23   24 1   
    48   23   48 1   
    49   23   49 1   
    50   24   25 1   
    51   24   30 1   
    52   24   50 1   
    53   25   26 1   
    54   25   51 1   
    55   25   52 1   
    56   26   27 1   
    57   26   28 1   
    58   26   53 1   
    59   27   54 1   
    60   27   55 1   
    61   28   31 1   
    62   28   56 1   
    63   28   57 1   
    64   29   31 1   
    65   29   58 1   
    66   29   59 1   
    67   30   31 1   
    68   30   60 1   
    69   30   61 1   
    70   31   62 1   
@<TRIPOS>SUBSTRUCTURE
     1 0UX         1 TEMP              0 ****  ****    0 ROOT
