@<TRIPOS>MOLECULE
0UZ
   20    16     1     0     0
SMALL
bcc


@<TRIPOS>ATOM
      1 N          -1.8790   -0.3210   -1.9240 n3        1 0UZ     -0.884800
      2 CA         -0.4130   -0.3000   -1.8400 c3        1 0UZ      0.013600
      3 C           0.1170    0.9320   -2.5760 c         1 0UZ      0.892600
      4 O           1.1890    0.8470   -3.2850 o         1 0UZ     -0.829800
      5 C1          0.0100   -0.2540   -0.3900 c1        1 0UZ     -0.003100
      6 C2         -0.4110    0.8270    0.4470 c1        1 0UZ     -0.063500
      7 C3         -0.0050    0.8710    1.7870 cg        1 0UZ     -0.044500
      8 CL3        -0.4670    2.2380    2.8060 cl        1 0UZ     -0.059000
      9 C4          0.8130   -0.1420    2.3080 cg        1 0UZ     -0.044500
     10 O4          1.2740   -0.0600    3.6670 o         1 0UZ     -0.268000
     11 C5          1.2310   -1.2120    1.4810 c1        1 0UZ     -0.063500
     12 C6          0.8250   -1.2620    0.1300 c1        1 0UZ     -0.040500
     13 H1         -2.2240   -0.3340   -1.1030 hn        1 0UZ      0.333800
     14 H2         -2.1800    0.4620   -2.3830 hn        1 0UZ      0.333800
     15 H4         -0.0400   -1.1230   -2.2640 h1        1 0UZ      0.054700
     16 H6         -1.0920    1.4700    0.1190 ha        1 0UZ      0.106000
     17 H7          0.8610   -0.7150    4.1750 ho        1 0UZ      0.215000
     18 H8          1.8070   -1.9230    1.8510 ha        1 0UZ      0.106000
     19 H9          1.1260   -2.0340   -0.4660 ha        1 0UZ      0.074500
     20 O1         -0.5410    2.0310   -2.5390 o         1 0UZ     -0.829800
@<TRIPOS>BOND
     1    1    2 1   
     2    1   13 1   
     3    1   14 1   
     4    2    3 1   
     5    2    5 1   
     6    2   15 1   
     7    3    4 1   
     8    3   20 1   
     9    5   12 3   
    10    6    7 3   
    11    6   16 1   
    12    7    9 1   
    13    9   11 3   
    14   10   17 1   
    15   11   18 1   
    16   12   19 1   
@<TRIPOS>SUBSTRUCTURE
     1 0UZ         1 TEMP              0 ****  ****    0 ROOT
