@<TRIPOS>MOLECULE
0UZ
   20    20     1     0     0
SMALL
bcc


@<TRIPOS>ATOM
      1 N          -2.3620    0.5580    1.8970 n3        1 0UZ     -0.884800
      2 CA         -2.1310   -0.2180    0.6810 c3        1 0UZ      0.047800
      3 C          -2.6850    0.4980   -0.6060 c         1 0UZ      0.892600
      4 O          -2.4710    1.7390   -0.7070 o         1 0UZ     -0.829800
      5 C1         -0.6700   -0.5170    0.4890 ca        1 0UZ     -0.037300
      6 C2          0.1970    0.5010    0.0730 ca        1 0UZ     -0.076000
      7 C3          1.5560    0.2340   -0.0990 ca        1 0UZ     -0.062600
      8 CL3         2.6050    1.4900   -0.5980 cl        1 0UZ     -0.137400
      9 C4          2.0550   -1.0600    0.1320 ca        1 0UZ      0.097100
     10 O4          3.3830   -1.4110   -0.0070 oh        1 0UZ     -0.514100
     11 C5          1.1850   -2.0820    0.5340 ca        1 0UZ     -0.166000
     12 C6         -0.1670   -1.8020    0.7130 ca        1 0UZ     -0.098000
     13 H1         -1.8540    1.4230    1.8160 hn        1 0UZ      0.333800
     14 H2         -3.3370    0.8000    1.9160 hn        1 0UZ      0.333800
     15 H4         -2.6920   -1.1910    0.7960 h1        1 0UZ      0.054700
     16 H6         -0.2280    1.5000   -0.1460 ha        1 0UZ      0.194000
     17 H7          3.8580   -0.6370   -0.3460 ho        1 0UZ      0.416000
     18 H8          1.5850   -3.0900    0.7040 ha        1 0UZ      0.133000
     19 H9         -0.8500   -2.6050    1.0300 ha        1 0UZ      0.132000
     20 O1         -3.3310   -0.2030   -1.4250 o         1 0UZ     -0.829800
@<TRIPOS>BOND
     1    1    2 1   
     2    1   13 1   
     3    1   14 1   
     4    2    3 1   
     5    2    5 1   
     6    2   15 1   
     7    3    4 1   
     8    3   20 1   
     9    5    6 ar  
    10    5   12 ar  
    11    6    7 ar  
    12    6   16 1   
    13    7    8 1   
    14    7    9 ar  
    15    9   10 1   
    16    9   11 ar  
    17   10   17 1   
    18   11   12 ar  
    19   11   18 1   
    20   12   19 1   
@<TRIPOS>SUBSTRUCTURE
     1 0UZ         1 TEMP              0 ****  ****    0 ROOT
