@<TRIPOS>MOLECULE
0V0
   46    48     1     0     0
SMALL
bcc


@<TRIPOS>ATOM
      1 C1          0.0830    1.0940    0.4850 c3        1 0V0     -0.109100
      2 C2          1.5390    0.7810    0.2400 c3        1 0V0      0.133400
      3 O3          2.0330    0.2050    1.4690 os        1 0V0     -0.397900
      4 C4          3.3920   -0.0170    1.5380 ca        1 0V0      0.191100
      5 C5          4.2470    0.0450    0.4420 ca        1 0V0     -0.235000
      6 C6          5.6150   -0.2460    0.6310 ca        1 0V0      0.226100
      7 O7          6.3680   -0.1570   -0.5020 os        1 0V0     -0.303900
      8 C8          7.7880   -0.4250   -0.3580 c3        1 0V0      0.228500
      9 C9          8.3780   -0.2610   -1.6510 c1        1 0V0     -0.183100
     10 C10         8.8900   -0.1270   -2.7270 cg        1 0V0     -0.019000
     11 C11         9.5080    0.0260   -3.9820 ca        1 0V0     -0.014000
     12 C12        10.2060    1.2350   -4.2730 ca        1 0V0     -0.089000
     13 C13        10.8170    1.4110   -5.4890 ca        1 0V0     -0.122000
     14 C14        10.7630    0.3920   -6.4770 ca        1 0V0      0.004000
     15 C15        11.3770    0.5200   -7.7530 ca        1 0V0     -0.232300
     16 C16        11.2730   -0.5250   -8.6550 ca        1 0V0      0.399200
     17 N17        10.6060   -1.6940   -8.3920 nb        1 0V0     -0.655000
     18 C18        10.0320   -1.8230   -7.2080 ca        1 0V0      0.428200
     19 C19        10.0680   -0.8120   -6.1880 ca        1 0V0     -0.174300
     20 C20         9.4440   -0.9810   -4.9300 ca        1 0V0     -0.054000
     21 C21         6.1060   -0.6010    1.9020 ca        1 0V0     -0.240000
     22 C22         5.2340   -0.6560    2.9800 ca        1 0V0     -0.014000
     23 C23         3.8750   -0.3610    2.8250 ca        1 0V0     -0.279300
     24 C24         2.9660   -0.3260    3.9950 c3        1 0V0      0.204100
     25 N25         1.8810   -1.3610    3.8710 n4        1 0V0     -0.847600
     26 HN25        1.2640   -1.3300    4.6850 hn        1 0V0      0.458133
     27 HN2A        1.3350   -1.1690    3.0190 hn        1 0V0      0.458133
     28 HN2B        2.2930   -2.2930    3.7890 hn        1 0V0      0.458133
     29 H1         -0.3510    1.5320   -0.4470 hc        1 0V0      0.058033
     30 H1A        -0.0310    1.8290    1.3170 hc        1 0V0      0.058033
     31 H1B        -0.4850    0.1680    0.7450 hc        1 0V0      0.058033
     32 H2          2.1260    1.7080    0.0070 h1        1 0V0      0.062700
     33 H2A         1.6670    0.0270   -0.5810 h1        1 0V0      0.062700
     34 H5          3.8960    0.3140   -0.5650 ha        1 0V0      0.179000
     35 H8          7.9180   -1.4790    0.0140 h1        1 0V0      0.067200
     36 H8A         8.2190    0.3090    0.3790 h1        1 0V0      0.067200
     37 H12        10.2450    2.0220   -3.5050 ha        1 0V0      0.143000
     38 H13        11.3580    2.3420   -5.7180 ha        1 0V0      0.147000
     39 H15        11.9230    1.4390   -8.0060 ha        1 0V0      0.151000
     40 H16        11.7330   -0.4720   -9.6580 h4        1 0V0      0.032100
     41 H18         9.4990   -2.7720   -7.0130 h4        1 0V0      0.025100
     42 H20         8.9090   -1.9210   -4.7210 ha        1 0V0      0.144000
     43 H21         7.1710   -0.8300    2.0530 ha        1 0V0      0.163000
     44 H22         5.6240   -0.9220    3.9760 ha        1 0V0      0.146000
     45 H24         2.4480    0.6770    4.0570 hx        1 0V0      0.106700
     46 H24A        3.5210   -0.5240    4.9560 hx        1 0V0      0.106700
@<TRIPOS>BOND
     1    1    2 1   
     2    1   29 1   
     3    1   30 1   
     4    1   31 1   
     5    2    3 1   
     6    2   32 1   
     7    2   33 1   
     8    3    4 1   
     9    4    5 ar  
    10    4   23 ar  
    11    5    6 ar  
    12    5   34 1   
    13    6    7 1   
    14    6   21 ar  
    15    7    8 1   
    16    8    9 1   
    17    8   35 1   
    18    8   36 1   
    19    9   10 3   
    20   10   11 1   
    21   11   12 ar  
    22   11   20 ar  
    23   12   13 ar  
    24   12   37 1   
    25   13   14 ar  
    26   13   38 1   
    27   14   15 ar  
    28   14   19 ar  
    29   15   16 ar  
    30   15   39 1   
    31   16   17 ar  
    32   16   40 1   
    33   17   18 ar  
    34   18   19 ar  
    35   18   41 1   
    36   19   20 ar  
    37   20   42 1   
    38   21   22 ar  
    39   21   43 1   
    40   22   23 ar  
    41   22   44 1   
    42   23   24 1   
    43   24   25 1   
    44   24   45 1   
    45   24   46 1   
    46   25   26 1   
    47   25   27 1   
    48   25   28 1   
@<TRIPOS>SUBSTRUCTURE
     1 0V0         1 TEMP              0 ****  ****    0 ROOT
