@<TRIPOS>MOLECULE
0V0
   46    48     1     0     0
SMALL
bcc


@<TRIPOS>ATOM
      1 C1         -0.0360   -0.9250    0.6220 c3        1 0V0     -0.109100
      2 C2          1.4350   -0.7330    0.3480 c3        1 0V0      0.133400
      3 O3          2.0590   -0.5560    1.6390 os        1 0V0     -0.397900
      4 C4          3.3920   -0.2030    1.6310 ca        1 0V0      0.191100
      5 C5          4.2040   -0.2530    0.5020 ca        1 0V0     -0.235000
      6 C6          5.5660    0.0920    0.6300 ca        1 0V0      0.226100
      7 O7          6.2750    0.0140   -0.5330 os        1 0V0     -0.303900
      8 C8          7.6760    0.3900   -0.4630 c3        1 0V0      0.228500
      9 C9          8.2080    0.2660   -1.7860 c1        1 0V0     -0.183100
     10 C10         8.6710    0.1680   -2.8860 cg        1 0V0     -0.019000
     11 C11         9.2320    0.0610   -4.1730 ca        1 0V0     -0.014000
     12 C12        10.0280   -1.0780   -4.4940 ca        1 0V0     -0.090000
     13 C13        10.5860   -1.2090   -5.7410 ca        1 0V0     -0.122000
     14 C14        10.3790   -0.2120   -6.7320 ca        1 0V0      0.004000
     15 C15        10.9320   -0.2960   -8.0390 ca        1 0V0     -0.233300
     16 C16        10.6770    0.7230   -8.9400 ca        1 0V0      0.400200
     17 N17         9.9140    1.8250   -8.6490 nb        1 0V0     -0.655000
     18 C18         9.3960    1.9120   -7.4350 ca        1 0V0      0.429200
     19 C19         9.5870    0.9220   -6.4120 ca        1 0V0     -0.174300
     20 C20         9.0180    1.0450   -5.1230 ca        1 0V0     -0.054000
     21 C21         6.0990    0.4690    1.8770 ca        1 0V0     -0.240000
     22 C22         5.2700    0.5100    2.9890 ca        1 0V0     -0.014000
     23 C23         3.9120    0.1860    2.8900 ca        1 0V0     -0.279300
     24 C24         3.0100    0.3250    4.0570 c3        1 0V0      0.204100
     25 N25         2.4220   -1.0020    4.4520 nz        1 0V0     -0.847600
     26 HN25        1.8060   -0.8940    5.2590 hn        1 0V0      0.458133
     27 HN2A        1.8840   -1.3760    3.6570 hn        1 0V0      0.458133
     28 HN2B        3.1690   -1.6640    4.6770 hn        1 0V0      0.458133
     29 H1         -0.5640   -1.0790   -0.3510 hc        1 0V0      0.058033
     30 H1A        -0.2080   -1.8170    1.2700 hc        1 0V0      0.058033
     31 H1B        -0.4660   -0.0270    1.1270 hc        1 0V0      0.058033
     32 H2          1.8850   -1.6370   -0.1420 h1        1 0V0      0.062700
     33 H2A         1.6230    0.1780   -0.2780 h1        1 0V0      0.062700
     34 H5          3.8210   -0.5480   -0.4860 ha        1 0V0      0.179000
     35 H8          7.7450    1.4520   -0.0980 h1        1 0V0      0.067200
     36 H8A         8.1980   -0.3060    0.2500 h1        1 0V0      0.067200
     37 H12        10.1860   -1.8490   -3.7250 ha        1 0V0      0.143000
     38 H13        11.2020   -2.0860   -5.9930 ha        1 0V0      0.147000
     39 H15        11.5500   -1.1610   -8.3150 ha        1 0V0      0.151000
     40 H16        11.0850    0.7030   -9.9670 h4        1 0V0      0.032100
     41 H18         8.7850    2.8070   -7.2170 h4        1 0V0      0.026100
     42 H20         8.4070    1.9310   -4.8900 ha        1 0V0      0.144000
     43 H21         7.1610    0.7360    1.9800 ha        1 0V0      0.163000
     44 H22         5.6880    0.8180    3.9620 ha        1 0V0      0.146000
     45 H24         3.5540    0.7400    4.9530 hx        1 0V0      0.106700
     46 H24A        2.1390    0.9980    3.7990 hx        1 0V0      0.106700
@<TRIPOS>BOND
     1    1    2 1   
     2    1   29 1   
     3    1   30 1   
     4    1   31 1   
     5    2    3 1   
     6    2   32 1   
     7    2   33 1   
     8    3    4 1   
     9    4    5 ar  
    10    4   23 ar  
    11    5    6 ar  
    12    5   34 1   
    13    6    7 1   
    14    6   21 ar  
    15    7    8 1   
    16    8    9 1   
    17    8   35 1   
    18    8   36 1   
    19    9   10 3   
    20   10   11 1   
    21   11   12 ar  
    22   11   20 ar  
    23   12   13 ar  
    24   12   37 1   
    25   13   14 ar  
    26   13   38 1   
    27   14   15 ar  
    28   14   19 ar  
    29   15   16 ar  
    30   15   39 1   
    31   16   17 ar  
    32   16   40 1   
    33   17   18 ar  
    34   18   19 ar  
    35   18   41 1   
    36   19   20 ar  
    37   20   42 1   
    38   21   22 ar  
    39   21   43 1   
    40   22   23 ar  
    41   22   44 1   
    42   23   24 1   
    43   24   25 1   
    44   24   45 1   
    45   24   46 1   
    46   25   26 1   
    47   25   27 1   
    48   25   28 1   
@<TRIPOS>SUBSTRUCTURE
     1 0V0         1 TEMP              0 ****  ****    0 ROOT
