@<TRIPOS>MOLECULE
0V0
   46    48     1     0     0
SMALL
bcc


@<TRIPOS>ATOM
      1 C1         -0.0440   -0.8800    0.6240 c3        1 0V0     -0.109100
      2 C2          1.4290   -0.7010    0.3500 c3        1 0V0      0.133400
      3 O3          2.0570   -0.5380    1.6400 os        1 0V0     -0.397900
      4 C4          3.3930   -0.1980    1.6330 ca        1 0V0      0.191100
      5 C5          4.2020   -0.2490    0.5020 ca        1 0V0     -0.235000
      6 C6          5.5680    0.0830    0.6300 ca        1 0V0      0.226100
      7 O7          6.2740    0.0050   -0.5340 os        1 0V0     -0.303900
      8 C8          7.6790    0.3660   -0.4630 c3        1 0V0      0.228500
      9 C9          8.2080    0.2450   -1.7880 c1        1 0V0     -0.183100
     10 C10         8.6690    0.1510   -2.8900 cg        1 0V0     -0.019000
     11 C11         9.2260    0.0460   -4.1780 ca        1 0V0     -0.014000
     12 C12         9.9910   -1.1090   -4.5160 ca        1 0V0     -0.090000
     13 C13        10.5450   -1.2370   -5.7640 ca        1 0V0     -0.122000
     14 C14        10.3660   -0.2210   -6.7410 ca        1 0V0      0.004000
     15 C15        10.9160   -0.3020   -8.0490 ca        1 0V0     -0.233300
     16 C16        10.6890    0.7360   -8.9360 ca        1 0V0      0.400200
     17 N17         9.9560    1.8530   -8.6290 nb        1 0V0     -0.655000
     18 C18         9.4400    1.9380   -7.4140 ca        1 0V0      0.429200
     19 C19         9.6040    0.9290   -6.4050 ca        1 0V0     -0.174300
     20 C20         9.0390    1.0490   -5.1140 ca        1 0V0     -0.054000
     21 C21         6.1060    0.4460    1.8790 ca        1 0V0     -0.240000
     22 C22         5.2790    0.4880    2.9920 ca        1 0V0     -0.014000
     23 C23         3.9180    0.1790    2.8940 ca        1 0V0     -0.279300
     24 C24         3.0190    0.3190    4.0630 c3        1 0V0      0.204100
     25 N25         2.4190   -1.0040    4.4500 n4        1 0V0     -0.847600
     26 HN25        1.8050   -0.8950    5.2590 hn        1 0V0      0.458133
     27 HN2A        1.8760   -1.3680    3.6540 hn        1 0V0      0.458133
     28 HN2B        3.1600   -1.6750    4.6700 hn        1 0V0      0.458133
     29 H1         -0.5750   -1.0230   -0.3490 hc        1 0V0      0.058033
     30 H1A        -0.2230   -1.7740    1.2670 hc        1 0V0      0.058033
     31 H1B        -0.4650    0.0180    1.1360 hc        1 0V0      0.058033
     32 H2          1.8690   -1.6050   -0.1460 h1        1 0V0      0.062700
     33 H2A         1.6250    0.2120   -0.2710 h1        1 0V0      0.062700
     34 H5          3.8150   -0.5340   -0.4870 ha        1 0V0      0.179000
     35 H8          7.7600    1.4250   -0.0910 h1        1 0V0      0.067200
     36 H8A         8.1950   -0.3400    0.2440 h1        1 0V0      0.067200
     37 H12        10.1290   -1.8940   -3.7570 ha        1 0V0      0.143000
     38 H13        11.1380   -2.1270   -6.0290 ha        1 0V0      0.147000
     39 H15        11.5110   -1.1790   -8.3380 ha        1 0V0      0.151000
     40 H16        11.0960    0.7200   -9.9630 h4        1 0V0      0.032100
     41 H18         8.8530    2.8460   -7.1840 h4        1 0V0      0.026100
     42 H20         8.4520    1.9480   -4.8690 ha        1 0V0      0.144000
     43 H21         7.1710    0.7020    1.9830 ha        1 0V0      0.163000
     44 H22         5.7020    0.7860    3.9660 ha        1 0V0      0.146000
     45 H24         3.5690    0.7230    4.9610 hx        1 0V0      0.106700
     46 H24A        2.1550    1.0020    3.8110 hx        1 0V0      0.106700
@<TRIPOS>BOND
     1    1    2 1   
     2    1   29 1   
     3    1   30 1   
     4    1   31 1   
     5    2    3 1   
     6    2   32 1   
     7    2   33 1   
     8    3    4 1   
     9    4    5 ar  
    10    4   23 ar  
    11    5    6 ar  
    12    5   34 1   
    13    6    7 1   
    14    6   21 ar  
    15    7    8 1   
    16    8    9 1   
    17    8   35 1   
    18    8   36 1   
    19    9   10 3   
    20   10   11 1   
    21   11   12 ar  
    22   11   20 ar  
    23   12   13 ar  
    24   12   37 1   
    25   13   14 ar  
    26   13   38 1   
    27   14   15 ar  
    28   14   19 ar  
    29   15   16 ar  
    30   15   39 1   
    31   16   17 ar  
    32   16   40 1   
    33   17   18 ar  
    34   18   19 ar  
    35   18   41 1   
    36   19   20 ar  
    37   20   42 1   
    38   21   22 ar  
    39   21   43 1   
    40   22   23 ar  
    41   22   44 1   
    42   23   24 1   
    43   24   25 1   
    44   24   45 1   
    45   24   46 1   
    46   25   26 1   
    47   25   27 1   
    48   25   28 1   
@<TRIPOS>SUBSTRUCTURE
     1 0V0         1 TEMP              0 ****  ****    0 ROOT
