@<TRIPOS>MOLECULE
0V2
   76    81     1     0     0
SMALL
bcc


@<TRIPOS>ATOM
      1 N1          6.0680    2.4850    0.2540 nc        1 0V2     -0.671100
      2 C1          6.6720    1.2260    0.2170 ca        1 0V2      0.203400
      3 C2          5.8930    0.0810    0.5410 ca        1 0V2     -0.041300
      4 C3          4.4650    0.1820    0.9470 c3        1 0V2     -0.024100
      5 C4          3.5590    0.1730   -0.2890 c3        1 0V2      0.168800
      6 N2          2.1480    0.2010    0.0480 n3        1 0V2     -0.824200
      7 C5          1.2940   -0.0110   -1.1030 c3        1 0V2      0.166800
      8 C6         -0.1840   -0.2160   -0.7440 c3        1 0V2     -0.066700
      9 C7         -0.9520   -0.5920   -2.0050 c3        1 0V2     -0.073900
     10 C8         -2.4270   -0.7710   -1.7180 c3        1 0V2     -0.070900
     11 C9         -3.0180    0.4940   -1.0970 c3        1 0V2      0.014400
     12 C24        -2.2530    0.8600    0.1740 c3        1 0V2     -0.070900
     13 C25        -0.7770    1.0340   -0.1150 c3        1 0V2     -0.073900
     14 C26         6.5180   -1.1680    0.4710 ca        1 0V2      0.138400
     15 C27         7.9230   -1.2800    0.1020 ca        1 0V2     -0.115200
     16 N3          8.2630   -2.6450    0.1980 na        1 0V2     -0.283300
     17 C28         7.0310   -3.3170    0.5040 cc        1 0V2      0.609700
     18 N4          6.9290   -4.7220    0.5240 nh        1 0V2     -0.773200
     19 C29         8.0910   -5.4740    0.9120 c3        1 0V2      0.165100
     20 N5          5.9950   -2.4530    0.7260 nd        1 0V2     -0.624100
     21 C30         8.6830   -0.1640   -0.2020 ca        1 0V2     -0.051000
     22 C40         8.0440    1.0790   -0.1480 ca        1 0V2     -0.199600
     23 C41         8.8300    2.2810   -0.4740 c         1 0V2      0.719100
     24 O1         10.0320    2.2830   -0.8020 o         1 0V2     -0.631500
     25 N6          8.1590    3.5120   -0.4190 n         1 0V2     -0.504400
     26 C42         6.8040    3.5670   -0.0170 cd        1 0V2      0.655800
     27 N7          6.2390    4.8600    0.1510 nh        1 0V2     -0.881800
     28 H2          4.2020   -0.6800    1.6180 hc        1 0V2      0.066200
     29 H3          4.2870    1.1200    1.5380 hc        1 0V2      0.066200
     30 H4          3.7750    1.0900   -0.9060 h1        1 0V2      0.035700
     31 H5          3.8270   -0.7290   -0.9170 h1        1 0V2      0.035700
     32 H6          1.9440   -0.4700    0.7660 hn        1 0V2      0.354800
     33 H8          1.3860    0.8990   -1.7600 h1        1 0V2      0.028200
     34 H9          1.6260   -0.9010   -1.7190 h1        1 0V2      0.028200
     35 H10        -0.2750   -1.0650   -0.0090 hc        1 0V2      0.048700
     36 H11        -0.8120    0.2090   -2.7780 hc        1 0V2      0.046700
     37 H12        -0.5390   -1.5450   -2.4270 hc        1 0V2      0.046700
     38 H13        -2.9700   -1.0090   -2.6700 hc        1 0V2      0.047200
     39 H14        -2.5760   -1.6340   -1.0180 hc        1 0V2      0.047200
     40 H15        -2.8960    1.3410   -1.8380 hc        1 0V2      0.066700
     41 H17        -2.6680    1.8110    0.5980 hc        1 0V2      0.047200
     42 H18        -2.3980    0.0550    0.9410 hc        1 0V2      0.047200
     43 H19        -0.2380    1.2680    0.8400 hc        1 0V2      0.046700
     44 H20        -0.6270    1.9050   -0.8070 hc        1 0V2      0.046700
     45 H21         8.9830   -3.0550   -0.3400 hn        1 0V2      0.295700
     46 H22         6.0840   -5.0280    0.9690 hn        1 0V2      0.425800
     47 H23         8.8870   -5.3670    0.1280 h1        1 0V2      0.046700
     48 H24         8.5190   -5.1560    1.9010 h1        1 0V2      0.046700
     49 H25         7.7990   -6.5570    0.9740 h1        1 0V2      0.046700
     50 H27         9.7480   -0.2240   -0.4770 ha        1 0V2      0.163000
     51 H28         6.4480    5.4940   -0.5900 hn        1 0V2      0.410300
     52 H29         5.2660    4.8410    0.3830 hn        1 0V2      0.410300
     53 C10        -4.4220    0.3340   -0.8310 c1        1 0V2     -0.104100
     54 C11        -5.5950    0.2110   -0.6180 cg        1 0V2     -0.132000
     55 C12        -6.9720    0.0680   -0.3690 ca        1 0V2      0.034000
     56 C13        -7.5170    0.4720    0.8610 ca        1 0V2     -0.111000
     57 C14        -8.8800    0.3320    1.1040 ca        1 0V2     -0.122000
     58 C15        -9.7260   -0.2170    0.1310 cp        1 0V2     -0.032000
     59 C16        -9.1800   -0.6220   -1.0960 ca        1 0V2     -0.122000
     60 C17        -7.8190   -0.4810   -1.3460 ca        1 0V2     -0.111000
     61 H7         -6.8620    0.9010    1.6330 ha        1 0V2      0.139500
     62 H16        -9.2960    0.6470    2.0740 ha        1 0V2      0.137000
     63 H30        -9.8360   -1.0480   -1.8700 ha        1 0V2      0.137000
     64 H31        -7.4010   -0.7980   -2.3130 ha        1 0V2      0.139500
     65 C18       -11.1570   -0.3650    0.3900 cp        1 0V2     -0.039000
     66 C19       -11.8400   -1.5160   -0.0310 ca        1 0V2     -0.118000
     67 C20       -13.2030   -1.6550    0.2180 ca        1 0V2     -0.131000
     68 C21       -13.9010   -0.6490    0.8870 ca        1 0V2     -0.127000
     69 C22       -13.2290    0.4980    1.3080 ca        1 0V2     -0.131000
     70 C23       -11.8650    0.6410    1.0630 ca        1 0V2     -0.118000
     71 H26       -11.2920   -2.3140   -0.5540 ha        1 0V2      0.135000
     72 H32       -13.7300   -2.5620   -0.1130 ha        1 0V2      0.132000
     73 H33       -14.9770   -0.7610    1.0830 ha        1 0V2      0.132000
     74 H34       -13.7760    1.2940    1.8340 ha        1 0V2      0.132000
     75 H35       -11.3390    1.5500    1.3920 ha        1 0V2      0.135000
     76 H351        8.6840    4.3450   -0.5610 hn        1 0V2      0.336500
@<TRIPOS>BOND
     1    1    2 1   
     2    1   26 2   
     3    2    3 ar  
     4    2   22 ar  
     5    3    4 1   
     6    3   14 ar  
     7    4    5 1   
     8    4   28 1   
     9    4   29 1   
    10    5    6 1   
    11    5   30 1   
    12    5   31 1   
    13    6    7 1   
    14    6   32 1   
    15    7    8 1   
    16    7   33 1   
    17    7   34 1   
    18    8    9 1   
    19    8   13 1   
    20    8   35 1   
    21    9   10 1   
    22    9   36 1   
    23    9   37 1   
    24   10   11 1   
    25   10   38 1   
    26   10   39 1   
    27   11   12 1   
    28   11   40 1   
    29   11   53 1   
    30   12   13 1   
    31   12   41 1   
    32   12   42 1   
    33   13   43 1   
    34   13   44 1   
    35   14   15 ar  
    36   14   20 1   
    37   15   16 1   
    38   15   21 ar  
    39   16   17 1   
    40   16   45 1   
    41   17   18 1   
    42   17   20 2   
    43   18   19 1   
    44   18   46 1   
    45   19   47 1   
    46   19   48 1   
    47   19   49 1   
    48   21   22 ar  
    49   21   50 1   
    50   22   23 1   
    51   23   24 2   
    52   23   25 1   
    53   25   26 1   
    54   25   76 1   
    55   26   27 1   
    56   27   51 1   
    57   27   52 1   
    58   53   54 3   
    59   54   55 1   
    60   55   56 ar  
    61   55   60 ar  
    62   56   57 ar  
    63   56   61 1   
    64   57   58 ar  
    65   57   62 1   
    66   58   59 ar  
    67   58   65 1   
    68   59   60 ar  
    69   59   63 1   
    70   60   64 1   
    71   65   66 ar  
    72   65   70 ar  
    73   66   67 ar  
    74   66   71 1   
    75   67   68 ar  
    76   67   72 1   
    77   68   69 ar  
    78   68   73 1   
    79   69   70 ar  
    80   69   74 1   
    81   70   75 1   
@<TRIPOS>SUBSTRUCTURE
     1 0V2         1 TEMP              0 ****  ****    0 ROOT
