@<TRIPOS>MOLECULE
0V2
   78    83     1     0     0
SMALL
bcc


@<TRIPOS>ATOM
      1 N1         -1.6020    0.3810    0.4220 nc        1 0V2     -0.581100
      2 C1         -0.2120    0.2800    0.6090 ca        1 0V2      0.168400
      3 C2          0.2940   -0.1170    1.8720 ca        1 0V2     -0.053300
      4 C3         -0.5750   -0.3820    3.0500 c3        1 0V2     -0.043100
      5 C4         -0.4690   -1.8170    3.5700 c3        1 0V2      0.115800
      6 N2          0.5100   -1.9840    4.6810 ny        1 0V2     -0.775000
      7 C5          0.5280   -3.3830    5.2010 c3        1 0V2      0.102800
      8 C6          1.4480   -3.5490    6.4150 c3        1 0V2     -0.083700
      9 C7          1.4030   -5.0080    6.8630 c3        1 0V2     -0.083400
     10 C8          0.2980   -5.2660    7.8630 c3        1 0V2     -0.073400
     11 C9          0.4990   -4.4630    9.1530 c3        1 0V2      0.028400
     12 C24         1.3480   -3.2150    8.9000 c3        1 0V2     -0.073400
     13 C25         1.0480   -2.6080    7.5460 c3        1 0V2     -0.083400
     14 C26         1.6900   -0.1880    2.0120 ca        1 0V2      0.145400
     15 C27         2.5680    0.1510    0.8990 ca        1 0V2     -0.058200
     16 N3          3.8780    0.0190    1.3730 na        1 0V2     -0.284300
     17 C28         3.7800   -0.4100    2.7250 cc        1 0V2      0.717700
     18 N4          4.8770   -0.7150    3.5020 nu        1 0V2     -0.795200
     19 C29         6.2100   -0.4060    3.0670 c3        1 0V2      0.169100
     20 N5          2.4560   -0.5370    3.1280 nd        1 0V2     -0.754100
     21 C30         2.0660    0.5330   -0.3370 ca        1 0V2     -0.025000
     22 C40         0.6760    0.5900   -0.4680 ca        1 0V2     -0.168600
     23 C41         0.1350    1.0060   -1.7750 c         1 0V2      0.724100
     24 O1          0.7890    1.2850   -2.7830 o         1 0V2     -0.520500
     25 N6         -1.2830    1.0940   -1.8770 ns        1 0V2     -0.504400
     26 C42        -2.0470    0.7760   -0.7560 cd        1 0V2      0.543800
     27 N7         -3.5410    0.8920   -0.8970 nz        1 0V2     -0.804600
     28 H2         -1.6590   -0.2110    2.8080 hc        1 0V2      0.090700
     29 H3         -0.3140    0.3630    3.8550 hc        1 0V2      0.090700
     30 H4         -1.4770   -2.1450    3.9590 hx        1 0V2      0.101700
     31 H5         -0.1650   -2.5120    2.7370 hx        1 0V2      0.101700
     32 H6          1.4590   -1.7210    4.3450 hn        1 0V2      0.467800
     33 H8          0.8710   -4.0550    4.3640 hx        1 0V2      0.101700
     34 H9         -0.5250   -3.6680    5.4880 hx        1 0V2      0.101700
     35 H10         2.5050   -3.3160    6.1010 hc        1 0V2      0.061700
     36 H11         1.2730   -5.6810    5.9750 hc        1 0V2      0.051950
     37 H12         2.3920   -5.2640    7.3300 hc        1 0V2      0.051950
     38 H13        -0.6920   -5.0070    7.4020 hc        1 0V2      0.061700
     39 H14         0.2700   -6.3590    8.1130 hc        1 0V2      0.061700
     40 H15         1.0630   -5.1110    9.8910 hc        1 0V2      0.087700
     41 H17         1.1520   -2.4560    9.7010 hc        1 0V2      0.061700
     42 H18         2.4330   -3.4930    8.9560 hc        1 0V2      0.061700
     43 H19        -0.0520   -2.3880    7.4980 hc        1 0V2      0.051950
     44 H20         1.6010   -1.6370    7.4430 hc        1 0V2      0.051950
     45 H21         4.7080    0.1380    0.8470 hn        1 0V2      0.340700
     46 H22         4.7180   -0.7740    4.4860 hn        1 0V2      0.463800
     47 H23         6.4480   -0.9700    2.1250 h1        1 0V2      0.071033
     48 H24         6.3510    0.6950    2.8860 h1        1 0V2      0.071033
     49 H25         6.9250   -0.7350    3.8700 h1        1 0V2      0.071033
     50 H27         2.7160    0.7900   -1.1920 ha        1 0V2      0.195000
     51 H28        -3.8670    0.2640   -1.6430 hn        1 0V2      0.486133
     52 H29        -3.9990    0.6300   -0.0110 hn        1 0V2      0.486133
     53 C10        -0.7670   -4.1260    9.7430 c1        1 0V2     -0.177100
     54 C11        -1.8160   -3.8630   10.2610 cg        1 0V2     -0.065000
     55 C12        -3.0450   -3.5570   10.8730 ca        1 0V2     -0.010000
     56 C13        -3.1400   -2.4860   11.7770 ca        1 0V2     -0.103000
     57 C14        -4.3540   -2.1910   12.3880 ca        1 0V2     -0.125000
     58 C15        -5.4970   -2.9580   12.1140 cp        1 0V2     -0.001000
     59 C16        -5.3980   -4.0280   11.2130 ca        1 0V2     -0.125000
     60 C17        -4.1860   -4.3270   10.5980 ca        1 0V2     -0.103000
     61 H7         -2.2480   -1.8870   12.0120 ha        1 0V2      0.136500
     62 H16        -4.4170   -1.3590   13.1060 ha        1 0V2      0.146000
     63 H30        -6.2880   -4.6380   10.9920 ha        1 0V2      0.146000
     64 H31        -4.1200   -5.1760    9.9010 ha        1 0V2      0.136500
     65 C18        -6.7690   -2.6500   12.7630 cp        1 0V2     -0.061000
     66 C19        -7.6060   -3.6840   13.2090 ca        1 0V2     -0.114000
     67 C20        -8.8160   -3.3880   13.8330 ca        1 0V2     -0.127500
     68 C21        -9.2060   -2.0610   14.0160 ca        1 0V2     -0.113000
     69 C22        -8.3790   -1.0280   13.5740 ca        1 0V2     -0.127500
     70 C23        -7.1660   -1.3180   12.9530 ca        1 0V2     -0.114000
     71 H26        -7.2990   -4.7320   13.0770 ha        1 0V2      0.133000
     72 H32        -9.4640   -4.2050   14.1860 ha        1 0V2      0.139500
     73 H33       -10.1610   -1.8300   14.5110 ha        1 0V2      0.142000
     74 H34        -8.6830    0.0190   13.7190 ha        1 0V2      0.139500
     75 H35        -6.5190   -0.5000   12.6060 ha        1 0V2      0.133000
     76 H351       -1.6800    1.3880   -2.7450 hn        1 0V2      0.362500
     77 H221        0.2690   -1.3460    5.4480 hn        1 0V2      0.467800
     78 H73        -3.7880    1.8640   -1.1260 hn        1 0V2      0.486133
@<TRIPOS>BOND
     1    1    2 1   
     2    1   26 2   
     3    2    3 ar  
     4    2   22 ar  
     5    3    4 1   
     6    3   14 ar  
     7    4    5 1   
     8    4   28 1   
     9    4   29 1   
    10    5    6 1   
    11    5   30 1   
    12    5   31 1   
    13    6    7 1   
    14    6   32 1   
    15    6   77 1   
    16    7    8 1   
    17    7   33 1   
    18    7   34 1   
    19    8    9 1   
    20    8   13 1   
    21    8   35 1   
    22    9   10 1   
    23    9   36 1   
    24    9   37 1   
    25   10   11 1   
    26   10   38 1   
    27   10   39 1   
    28   11   12 1   
    29   11   40 1   
    30   11   53 1   
    31   12   13 1   
    32   12   41 1   
    33   12   42 1   
    34   13   43 1   
    35   13   44 1   
    36   14   15 ar  
    37   14   20 1   
    38   15   16 1   
    39   15   21 ar  
    40   16   17 1   
    41   16   45 1   
    42   17   18 1   
    43   17   20 2   
    44   18   19 1   
    45   18   46 1   
    46   19   47 1   
    47   19   48 1   
    48   19   49 1   
    49   21   22 ar  
    50   21   50 1   
    51   22   23 1   
    52   23   24 2   
    53   23   25 1   
    54   25   26 1   
    55   25   76 1   
    56   26   27 1   
    57   27   51 1   
    58   27   52 1   
    59   27   78 1   
    60   53   54 3   
    61   54   55 1   
    62   55   56 ar  
    63   55   60 ar  
    64   56   57 ar  
    65   56   61 1   
    66   57   58 ar  
    67   57   62 1   
    68   58   59 ar  
    69   58   65 1   
    70   59   60 ar  
    71   59   63 1   
    72   60   64 1   
    73   65   66 ar  
    74   65   70 ar  
    75   66   67 ar  
    76   66   71 1   
    77   67   68 ar  
    78   67   72 1   
    79   68   69 ar  
    80   68   73 1   
    81   69   70 ar  
    82   69   74 1   
    83   70   75 1   
@<TRIPOS>SUBSTRUCTURE
     1 0V2         1 TEMP              0 ****  ****    0 ROOT
