@<TRIPOS>MOLECULE
0V2
   76    69     1     0     0
SMALL
bcc


@<TRIPOS>ATOM
      1 N1          5.5850   -0.7590   -5.2190 n1        1 0V2     -0.244000
      2 C1          5.9790   -1.7910   -4.2250 c1        1 0V2      0.064000
      3 C2          5.1610   -2.0420   -3.1090 c2        1 0V2     -0.033000
      4 C3          4.1800   -0.8640   -2.7050 c3        1 0V2     -0.111000
      5 C4          2.7730   -1.2870   -2.9320 c3        1 0V2     -0.069000
      6 N2          1.8960   -0.3860   -2.2660 n3        1 0V2     -0.302000
      7 C5          0.5460   -0.9220   -2.2760 c3        1 0V2     -0.069000
      8 C6         -0.3290   -0.1450   -1.2360 c3        1 0V2     -0.110000
      9 C7         -0.7340   -1.1050   -0.1480 c3        1 0V2     -0.155000
     10 C8         -1.7200   -0.5180    0.8180 c3        1 0V2     -0.149000
     11 C9         -2.9570    0.0890    0.1320 c3        1 0V2      0.003000
     12 C24        -2.4890    1.0760   -0.9790 c3        1 0V2     -0.149000
     13 C25        -1.4810    0.4610   -1.9340 c3        1 0V2     -0.155000
     14 C26         5.5360   -3.0200   -2.1660 c1        1 0V2     -0.001000
     15 C27         6.6990   -3.7270   -2.3360 c1        1 0V2     -0.070000
     16 N3          6.8630   -4.5350   -1.2490 n1        1 0V2     -0.218500
     17 C28         5.8050   -4.3290   -0.4090 c1        1 0V2      0.131000
     18 N4          5.2320   -5.0070    0.6530 n2        1 0V2     -0.258000
     19 C29         5.9510   -5.1610    1.8610 c3        1 0V2     -0.111000
     20 N5          4.9880   -3.3940   -0.9770 n1        1 0V2     -0.218500
     21 C30         7.5210   -3.4740   -3.4580 c1        1 0V2     -0.051000
     22 C40         7.1480   -2.5020   -4.3950 c2        1 0V2     -0.179000
     23 C41         8.0400   -2.2290   -5.6100 c2        1 0V2      0.356000
     24 O1          9.1060   -2.8420   -5.7440 o         1 0V2     -0.356000
     25 N6          7.6650   -1.2470   -6.5560 n         1 0V2     -0.344000
     26 C42         6.4540   -0.4660   -6.3490 c2        1 0V2      0.209000
     27 N7          6.0940    0.5390   -7.2790 n3        1 0V2     -0.320000
     28 H2          4.3780   -0.0670   -3.2530 hc        1 0V2      0.105500
     29 H3          4.3070   -0.6400   -1.7230 hc        1 0V2      0.105500
     30 H4          2.5780   -1.2810   -3.8980 h1        1 0V2      0.075000
     31 H5          2.6400   -2.2180   -2.5670 h1        1 0V2      0.075000
     32 H6          2.1780   -0.2700   -1.3860 hn        1 0V2      0.150000
     33 H8          0.1620   -0.8220   -3.1660 h1        1 0V2      0.067500
     34 H9          0.5720   -1.9050   -2.0270 h1        1 0V2      0.067500
     35 H10         0.2160    0.5780   -0.8370 hc        1 0V2      0.105000
     36 H11        -1.1290   -1.8890   -0.5580 hc        1 0V2      0.081750
     37 H12         0.0710   -1.3770    0.3470 hc        1 0V2      0.081750
     38 H13        -2.0160   -1.2250    1.4360 hc        1 0V2      0.087750
     39 H14        -1.2850    0.1620    1.3180 hc        1 0V2      0.087750
     40 H15        -3.5300   -0.5770   -0.1920 hc        1 0V2      0.105000
     41 H17        -2.0630    1.9000   -0.5310 hc        1 0V2      0.087750
     42 H18        -3.2890    1.3740   -1.5040 hc        1 0V2      0.087750
     43 H19        -1.1700    1.1250   -2.5120 hc        1 0V2      0.081750
     44 H20        -1.9410   -0.2500   -2.4770 hc        1 0V2      0.081750
     45 H21         7.6090   -5.0880   -1.0760 DU        1 0V2      0.204500
     46 H22         4.4020   -5.4090    0.5520 hn        1 0V2      0.221000
     47 H23         5.3400   -5.4060    2.5710 h1        1 0V2      0.086000
     48 H24         6.6510   -5.8940    1.7480 h1        1 0V2      0.086000
     49 H25         6.4160   -4.2710    2.1000 h1        1 0V2      0.086000
     50 H27         8.3190   -4.0030   -3.6020 DU        1 0V2      0.204500
     51 H28         6.5830    0.6460   -8.0520 hn        1 0V2      0.205500
     52 H29         5.3690    1.1230   -7.0910 hn        1 0V2      0.205500
     53 C10        -3.8530    0.7920    1.1250 c1        1 0V2     -0.132000
     54 C11        -4.5730    1.3570    1.9140 c1        1 0V2     -0.134000
     55 C12        -5.4880    2.0690    2.9060 c1        1 0V2      0.037000
     56 C13        -6.8650    1.9920    2.7530 c2        1 0V2     -0.111000
     57 C14        -7.7020    2.7280    3.5880 c1        1 0V2     -0.122000
     58 C15        -7.1560    3.5430    4.5810 c1        1 0V2     -0.031000
     59 C16        -5.7940    3.6200    4.7330 c1        1 0V2     -0.122000
     60 C17        -4.9470    2.8750    3.8860 c1        1 0V2     -0.110000
     61 H7         -7.2310    1.4450    2.0860 ha        1 0V2      0.139000
     62 H16        -8.7110    2.6690    3.4750 ha        1 0V2      0.137000
     63 H30        -5.4270    4.1680    5.4000 ha        1 0V2      0.137000
     64 H31        -3.9910    2.9290    3.9920 ha        1 0V2      0.140000
     65 C18        -8.0620    4.2770    5.5300 c2        1 0V2     -0.039000
     66 C19        -8.5250    3.6350    6.6910 c2        1 0V2     -0.118000
     67 C20        -9.2080    4.3650    7.6670 c1        1 0V2     -0.131000
     68 C21        -9.4260    5.7050    7.4920 c1        1 0V2     -0.129000
     69 C22        -8.9660    6.3440    6.3390 c1        1 0V2     -0.129000
     70 C23        -8.2820    5.6180    5.3580 c1        1 0V2     -0.118000
     71 H26        -8.3750    2.7030    6.8130 ha        1 0V2      0.135000
     72 H32        -9.5450    3.9010    8.5090 ha        1 0V2      0.132000
     73 H33        -9.9020    6.2130    8.1730 ha        1 0V2      0.132000
     74 H34        -9.1240    7.3090    6.2170 ha        1 0V2      0.132000
     75 H35        -7.9610    6.0700    4.5490 ha        1 0V2      0.135000
     76 H351        8.2380   -1.0560   -7.3010 hn        1 0V2      0.250000
@<TRIPOS>BOND
     1    1   26 1   
     2    2    3 1   
     3    2   22 1   
     4    3    4 1   
     5    3   14 1   
     6    4    5 1   
     7    4   28 1   
     8    4   29 1   
     9    5    6 1   
    10    5   30 1   
    11    5   31 1   
    12    6    7 1   
    13    6   32 1   
    14    7    8 1   
    15    7   33 1   
    16    7   34 1   
    17    8    9 1   
    18    8   13 1   
    19    8   35 1   
    20    9   10 1   
    21    9   36 1   
    22    9   37 1   
    23   10   11 1   
    24   10   38 1   
    25   10   39 1   
    26   11   12 1   
    27   11   40 1   
    28   11   53 1   
    29   12   13 1   
    30   12   41 1   
    31   12   42 1   
    32   13   43 1   
    33   13   44 1   
    34   15   21 1   
    35   16   17 1   
    36   17   20 1   
    37   18   19 1   
    38   18   46 1   
    39   19   47 1   
    40   19   48 1   
    41   19   49 1   
    42   21   22 1   
    43   22   23 1   
    44   23   24 1   
    45   23   25 1   
    46   25   26 1   
    47   25   76 1   
    48   26   27 1   
    49   27   51 1   
    50   27   52 1   
    51   53   54 1   
    52   55   56 1   
    53   55   60 1   
    54   56   57 1   
    55   56   61 1   
    56   57   62 1   
    57   58   59 1   
    58   58   65 1   
    59   59   63 1   
    60   60   64 1   
    61   65   66 1   
    62   65   70 1   
    63   66   67 1   
    64   66   71 1   
    65   67   72 1   
    66   68   69 1   
    67   68   73 1   
    68   69   74 1   
    69   70   75 1   
@<TRIPOS>SUBSTRUCTURE
     1 0V2         1 TEMP              0 ****  ****    0 ROOT
