@<TRIPOS>MOLECULE
0V2
   78    82     1     0     0
SMALL
bcc


@<TRIPOS>ATOM
      1 N1         -0.0250   -0.5620   -1.4340 nc        1 0V2     -0.584100
      2 C1          1.2130   -0.9590   -0.8970 ca        1 0V2      0.168400
      3 C2          1.5850   -0.5140    0.3950 ca        1 0V2     -0.067300
      4 C3          0.7680    0.4330    1.1990 c3        1 0V2     -0.046100
      5 C4         -0.0070   -0.2180    2.3410 c3        1 0V2      0.109800
      6 N2          0.8470   -0.6350    3.4910 n4        1 0V2     -0.756000
      7 C5          0.0520   -0.9800    4.7120 c3        1 0V2      0.099800
      8 C6          0.0170    0.1370    5.7680 c3        1 0V2     -0.033500
      9 C7         -0.7200   -0.4040    6.9470 c2        1 0V2     -0.250200
     10 C8         -0.1440   -0.6080    8.1360 c2        1 0V2     -0.081200
     11 C9         -2.2960   -1.4400    9.1630 c3        1 0V2      0.020700
     12 C24        -0.8240   -1.1090    9.3510 c3        1 0V2     -0.069200
     13 C25        -0.6620    1.3870    5.2490 c3        1 0V2     -0.112100
     14 C26         2.8390   -0.9230    0.8820 ca        1 0V2      0.135400
     15 C27         3.7250   -1.7410    0.0610 ca        1 0V2     -0.061200
     16 N3          4.8980   -1.9190    0.8010 na        1 0V2     -0.287300
     17 C28         4.7040   -1.2400    2.0380 cc        1 0V2      0.711700
     18 N4          5.6300   -1.2530    3.0580 nh        1 0V2     -0.793200
     19 C29         6.9620   -1.7480    2.8550 c3        1 0V2      0.169100
     20 N5          3.4530   -0.6360    2.1040 nd        1 0V2     -0.736100
     21 C30         3.3520   -2.1750   -1.2030 ca        1 0V2     -0.024000
     22 C40         2.0930   -1.7830   -1.6660 ca        1 0V2     -0.171600
     23 C41         1.6970   -2.2310   -3.0130 c         1 0V2      0.724100
     24 O1          2.3480   -2.9590   -3.7650 o         1 0V2     -0.519500
     25 N6          0.4350   -1.7690   -3.4910 n         1 0V2     -0.504400
     26 C42        -0.3290   -0.9550   -2.6580 cd        1 0V2      0.544800
     27 N7         -1.6450   -0.4700   -3.2040 n4        1 0V2     -0.804600
     28 H2          0.0040    0.9550    0.5600 hc        1 0V2      0.096700
     29 H3          1.4430    1.2430    1.6000 hc        1 0V2      0.096700
     30 H4         -0.5560   -1.1310    1.9720 hx        1 0V2      0.103200
     31 H5         -0.7620    0.5250    2.7360 hx        1 0V2      0.103200
     32 H6          1.5020    0.1280    3.7160 hn        1 0V2      0.460800
     33 H8          0.5220   -1.8970    5.1720 hx        1 0V2      0.105200
     34 H9         -0.9990   -1.2380    4.3980 hx        1 0V2      0.105200
     35 H10         1.0750    0.3930    6.0640 hc        1 0V2      0.067700
     36 H11        -0.7200   -0.3330   10.1600 hc        1 0V2      0.081700
     37 H12        -1.7930   -0.5900    6.7770 ha        1 0V2      0.143000
     38 H13        -2.4100   -2.2040    8.3430 hc        1 0V2      0.051700
     39 H14         0.9310   -0.3920    8.2860 ha        1 0V2      0.124000
     40 H15        -2.8530   -0.5140    8.8420 hc        1 0V2      0.051700
     41 H17        -0.2800   -2.0260    9.7110 hc        1 0V2      0.081700
     42 H18        -1.6780    1.1550    4.8480 hc        1 0V2      0.053033
     43 H19        -0.7830    2.1200    6.0860 hc        1 0V2      0.053033
     44 H20        -0.0540    1.8750    4.4500 hc        1 0V2      0.053033
     45 H21         5.6940   -2.4370    0.5260 hn        1 0V2      0.340700
     46 H22         5.4970   -0.5750    3.7800 hn        1 0V2      0.467800
     47 H23         6.9300   -2.8380    2.5840 h1        1 0V2      0.071033
     48 H24         7.5280   -1.6370    3.8200 h1        1 0V2      0.071033
     49 H25         7.5050   -1.1820    2.0490 h1        1 0V2      0.071033
     50 H27         4.0080   -2.7990   -1.8370 ha        1 0V2      0.195000
     51 H28        -2.1250    0.1120   -2.5010 hn        1 0V2      0.486133
     52 H29        -2.2400   -1.2750   -3.4380 hn        1 0V2      0.486133
     53 C10        -2.8800   -1.9490   10.3650 c1        1 0V2     -0.181100
     54 C11        -3.3870   -2.3750   11.3640 cg        1 0V2     -0.056000
     55 C12        -3.9820   -2.8720   12.5380 ca        1 0V2     -0.007000
     56 C13        -4.0310   -4.2540   12.7800 ca        1 0V2     -0.099500
     57 C14        -4.6200   -4.7420   13.9410 ca        1 0V2     -0.125500
     58 C15        -5.1710   -3.8640   14.8860 cp        1 0V2     -0.003000
     59 C16        -5.1210   -2.4830   14.6420 ca        1 0V2     -0.125500
     60 C17        -4.5340   -1.9890   13.4820 ca        1 0V2     -0.099500
     61 H7         -3.5990   -4.9530   12.0480 ha        1 0V2      0.136500
     62 H16        -4.6480   -5.8270   14.1260 ha        1 0V2      0.145000
     63 H30        -5.5560   -1.7850   15.3740 ha        1 0V2      0.145000
     64 H31        -4.5040   -0.9050   13.3000 ha        1 0V2      0.136500
     65 C18        -5.7880   -4.3790   16.1060 cp        1 0V2     -0.058000
     66 C19        -6.5850   -5.5320   16.0660 ca        1 0V2     -0.114000
     67 C20        -7.1750   -6.0200   17.2300 ca        1 0V2     -0.128500
     68 C21        -6.9720   -5.3660   18.4460 ca        1 0V2     -0.115000
     69 C22        -6.1790   -4.2200   18.4940 ca        1 0V2     -0.128500
     70 C23        -5.5910   -3.7250   17.3310 ca        1 0V2     -0.114000
     71 H26        -6.7520   -6.0480   15.1080 ha        1 0V2      0.133500
     72 H32        -7.8020   -6.9230   17.1890 ha        1 0V2      0.138500
     73 H33        -7.4380   -5.7540   19.3640 ha        1 0V2      0.140000
     74 H34        -6.0160   -3.7030   19.4520 ha        1 0V2      0.138500
     75 H35        -4.9620   -2.8240   17.3760 ha        1 0V2      0.133500
     76 H351        0.1510   -2.0320   -4.4110 hn        1 0V2      0.362500
     77 H221        1.4040   -1.4500    3.2110 hn        1 0V2      0.460800
     78 H73        -1.4760    0.0950   -4.0470 hn        1 0V2      0.486133
@<TRIPOS>BOND
     1    1    2 1   
     2    1   26 2   
     3    2    3 ar  
     4    2   22 ar  
     5    3    4 1   
     6    3   14 ar  
     7    4    5 1   
     8    4   28 1   
     9    4   29 1   
    10    5    6 1   
    11    5   30 1   
    12    5   31 1   
    13    6    7 1   
    14    6   32 1   
    15    6   77 1   
    16    7    8 1   
    17    7   33 1   
    18    7   34 1   
    19    8    9 1   
    20    8   13 1   
    21    8   35 1   
    22    9   10 2   
    23    9   37 1   
    24   10   12 1   
    25   10   39 1   
    26   11   12 1   
    27   11   38 1   
    28   11   40 1   
    29   11   53 1   
    30   12   36 1   
    31   12   41 1   
    32   13   42 1   
    33   13   43 1   
    34   13   44 1   
    35   14   15 ar  
    36   14   20 1   
    37   15   16 1   
    38   15   21 ar  
    39   16   17 1   
    40   16   45 1   
    41   17   18 1   
    42   17   20 2   
    43   18   19 1   
    44   18   46 1   
    45   19   47 1   
    46   19   48 1   
    47   19   49 1   
    48   21   22 ar  
    49   21   50 1   
    50   22   23 1   
    51   23   24 2   
    52   23   25 1   
    53   25   26 1   
    54   25   76 1   
    55   26   27 1   
    56   27   51 1   
    57   27   52 1   
    58   27   78 1   
    59   53   54 3   
    60   54   55 1   
    61   55   56 ar  
    62   55   60 ar  
    63   56   57 ar  
    64   56   61 1   
    65   57   58 ar  
    66   57   62 1   
    67   58   59 ar  
    68   58   65 1   
    69   59   60 ar  
    70   59   63 1   
    71   60   64 1   
    72   65   66 ar  
    73   65   70 ar  
    74   66   67 ar  
    75   66   71 1   
    76   67   68 ar  
    77   67   72 1   
    78   68   69 ar  
    79   68   73 1   
    80   69   70 ar  
    81   69   74 1   
    82   70   75 1   
@<TRIPOS>SUBSTRUCTURE
     1 0V2         1 TEMP              0 ****  ****    0 ROOT
