@<TRIPOS>MOLECULE
0V2
   79    84     1     0     0
SMALL
bcc


@<TRIPOS>ATOM
      1 N1          0.0850   -0.2240   -0.5580 nc        1 0V2     -0.607100
      2 C1          1.4680   -0.2730   -0.2940 ca        1 0V2      0.173400
      3 C2          1.9340   -0.1340    1.0310 ca        1 0V2      0.009700
      4 C3          1.0380    0.1080    2.1970 c3        1 0V2     -0.058100
      5 C4          0.8190   -1.1790    2.9970 c3        1 0V2      0.107800
      6 N2          0.0230   -0.9570    4.2380 n4        1 0V2     -0.765000
      7 C5         -0.2060   -2.2300    5.0000 c3        1 0V2      0.106800
      8 C6         -1.0410   -1.9990    6.2630 c3        1 0V2     -0.095700
      9 C7         -1.1950   -3.3350    6.9830 c3        1 0V2     -0.077400
     10 C8         -1.8460   -3.1420    8.3390 c3        1 0V2     -0.079400
     11 C9         -2.8300   -1.9690    8.3500 c3        1 0V2      0.050400
     12 C24        -3.4500   -1.7790    6.9670 c3        1 0V2     -0.079400
     13 C25        -2.4020   -1.3990    5.9360 c3        1 0V2     -0.077400
     14 C26         3.3340   -0.1530    1.2270 ca        1 0V2      0.090400
     15 C27         4.2450   -0.3000    0.1050 ca        1 0V2     -0.038200
     16 N3          5.5410   -0.2330    0.6180 na        1 0V2     -0.225300
     17 C28         5.3850   -0.0420    2.0100 cc        1 0V2      0.463700
     18 N4          6.5270    0.1210    2.9220 n4        1 0V2     -0.686000
     19 C29         7.4380   -1.0560    2.9250 c3        1 0V2      0.077100
     20 N5          4.0800   -0.0040    2.4090 nd        1 0V2     -0.520100
     21 C30         3.7730   -0.4560   -1.2060 ca        1 0V2     -0.011000
     22 C40         2.3970   -0.4390   -1.3800 ca        1 0V2     -0.133600
     23 C41         1.8910   -0.5780   -2.7670 c         1 0V2      0.715100
     24 O1          2.5850   -0.7580   -3.7660 o         1 0V2     -0.476500
     25 N6          0.4810   -0.4870   -2.9390 n         1 0V2     -0.497400
     26 C42        -0.3190   -0.3070   -1.8160 cd        1 0V2      0.588800
     27 N7         -1.8010   -0.1960   -2.0560 n4        1 0V2     -0.808600
     28 H2          0.0490    0.5230    1.8630 hc        1 0V2      0.093200
     29 H3          1.5100    0.8950    2.8530 hc        1 0V2      0.093200
     30 H4          1.8120   -1.6190    3.3000 hx        1 0V2      0.109200
     31 H5          0.2710   -1.9360    2.3660 hx        1 0V2      0.109200
     32 H6          0.5090   -0.2880    4.8480 hn        1 0V2      0.454800
     33 H8         -0.7350   -2.9530    4.3160 hx        1 0V2      0.105200
     34 H9          0.8010   -2.6540    5.2750 hx        1 0V2      0.105200
     35 H10        -0.4870   -1.2990    6.9520 hc        1 0V2      0.077700
     36 H11        -1.8240   -4.0190    6.3550 hc        1 0V2      0.041200
     37 H12        -0.1920   -3.8180    7.1150 hc        1 0V2      0.041200
     38 H13        -1.0620   -2.9610    9.1200 hc        1 0V2      0.074700
     39 H14        -2.3770   -4.0900    8.6200 hc        1 0V2      0.074700
     40 H15        -2.2580   -1.0270    8.6080 hc        1 0V2      0.052700
     41 H17        -4.2350   -0.9790    7.0130 hc        1 0V2      0.074700
     42 H18        -3.9580   -2.7300    6.6590 hc        1 0V2      0.074700
     43 H19        -2.7490   -1.7500    4.9280 hc        1 0V2      0.041200
     44 H20        -2.3110   -0.2810    5.8960 hc        1 0V2      0.041200
     45 H21         6.3850   -0.2870    0.0960 hn        1 0V2      0.357700
     46 H22         6.1560    0.2690    3.8790 hn        1 0V2      0.494300
     47 H23         7.9220   -1.1730    1.9180 hx        1 0V2      0.128367
     48 H24         8.2350   -0.8810    3.7040 hx        1 0V2      0.128367
     49 H25         6.8590   -1.9860    3.1790 hx        1 0V2      0.128367
     50 H27         4.4530   -0.5780   -2.0710 ha        1 0V2      0.215000
     51 H28        -2.1450   -1.0550   -2.5110 hn        1 0V2      0.496133
     52 H29        -2.3000   -0.0670   -1.1630 hn        1 0V2      0.496133
     53 C10        -3.8460   -2.1570    9.3450 c1        1 0V2     -0.218100
     54 C11        -4.6840   -2.2990   10.1890 cg        1 0V2     -0.012000
     55 C12        -5.6680   -2.4660   11.1810 ca        1 0V2     -0.030000
     56 C13        -6.4880   -3.6070   11.1830 ca        1 0V2     -0.094000
     57 C14        -7.4570   -3.7700   12.1670 ca        1 0V2     -0.127000
     58 C15        -7.6300   -2.8010   13.1680 cp        1 0V2      0.013000
     59 C16        -6.8090   -1.6630   13.1620 ca        1 0V2     -0.127000
     60 C17        -5.8380   -1.4950   12.1820 ca        1 0V2     -0.094000
     61 H7         -6.3640   -4.3730   10.4040 ha        1 0V2      0.135000
     62 H16        -8.1000   -4.6640   12.1580 ha        1 0V2      0.149500
     63 H30        -6.9310   -0.9010   13.9480 ha        1 0V2      0.149500
     64 H31        -5.1970   -0.6000   12.1920 ha        1 0V2      0.135000
     65 C18        -8.6490   -2.9760   14.2000 cp        1 0V2     -0.068000
     66 C19        -9.4080   -1.8810   14.6400 ca        1 0V2     -0.111500
     67 C20       -10.3800   -2.0510   15.6230 ca        1 0V2     -0.127000
     68 C21       -10.6010   -3.3100   16.1810 ca        1 0V2     -0.109000
     69 C22        -9.8480   -4.4030   15.7500 ca        1 0V2     -0.127000
     70 C23        -8.8790   -4.2400   14.7630 ca        1 0V2     -0.111500
     71 H26        -9.2410   -0.8870   14.2000 ha        1 0V2      0.132500
     72 H32       -10.9740   -1.1880   15.9600 ha        1 0V2      0.141500
     73 H33       -11.3680   -3.4420   16.9600 ha        1 0V2      0.144000
     74 H34       -10.0190   -5.3970   16.1910 ha        1 0V2      0.141500
     75 H35        -8.2830   -5.1040   14.4320 ha        1 0V2      0.132500
     76 H351        0.1180   -0.5500   -3.8720 hn        1 0V2      0.379500
     77 H221       -0.8920   -0.5510    4.0020 hn        1 0V2      0.454800
     78 H42         7.0470    0.9720    2.6460 hn        1 0V2      0.494300
     79 H73        -1.9900    0.6160   -2.6630 hn        1 0V2      0.496133
@<TRIPOS>BOND
     1    1    2 1   
     2    1   26 2   
     3    2    3 ar  
     4    2   22 ar  
     5    3    4 1   
     6    3   14 ar  
     7    4    5 1   
     8    4   28 1   
     9    4   29 1   
    10    5    6 1   
    11    5   30 1   
    12    5   31 1   
    13    6    7 1   
    14    6   32 1   
    15    6   77 1   
    16    7    8 1   
    17    7   33 1   
    18    7   34 1   
    19    8    9 1   
    20    8   13 1   
    21    8   35 1   
    22    9   10 1   
    23    9   36 1   
    24    9   37 1   
    25   10   11 1   
    26   10   38 1   
    27   10   39 1   
    28   11   12 1   
    29   11   40 1   
    30   11   53 1   
    31   12   13 1   
    32   12   41 1   
    33   12   42 1   
    34   13   43 1   
    35   13   44 1   
    36   14   15 ar  
    37   14   20 1   
    38   15   16 1   
    39   15   21 ar  
    40   16   17 1   
    41   16   45 1   
    42   17   18 1   
    43   17   20 2   
    44   18   19 1   
    45   18   46 1   
    46   18   78 1   
    47   19   47 1   
    48   19   48 1   
    49   19   49 1   
    50   21   22 ar  
    51   21   50 1   
    52   22   23 1   
    53   23   24 2   
    54   23   25 1   
    55   25   26 1   
    56   25   76 1   
    57   26   27 1   
    58   27   51 1   
    59   27   52 1   
    60   27   79 1   
    61   53   54 3   
    62   54   55 1   
    63   55   56 ar  
    64   55   60 ar  
    65   56   57 ar  
    66   56   61 1   
    67   57   58 ar  
    68   57   62 1   
    69   58   59 ar  
    70   58   65 1   
    71   59   60 ar  
    72   59   63 1   
    73   60   64 1   
    74   65   66 ar  
    75   65   70 ar  
    76   66   67 ar  
    77   66   71 1   
    78   67   68 ar  
    79   67   72 1   
    80   68   69 ar  
    81   68   73 1   
    82   69   70 ar  
    83   69   74 1   
    84   70   75 1   
@<TRIPOS>SUBSTRUCTURE
     1 0V2         1 TEMP              0 ****  ****    0 ROOT
