@<TRIPOS>MOLECULE
0V3
   67    71     1     0     0
SMALL
bcc


@<TRIPOS>ATOM
      1 N2          0.5440    0.1720    1.8430 nc        1 0V3     -0.582100
      2 C1          1.4900    0.0390    0.8110 ca        1 0V3      0.169400
      3 C2          2.8860    0.1000    1.1120 ca        1 0V3     -0.168600
      4 C3          3.8740    0.0020    0.1280 ca        1 0V3     -0.024000
      5 C4          3.4460   -0.1680   -1.1810 ca        1 0V3     -0.058200
      6 N3          4.1490   -0.2720   -2.3860 na        1 0V3     -0.284300
      7 C5          3.1770   -0.4370   -3.4110 cc        1 0V3      0.718700
      8 N4          3.5020   -0.6430   -4.7340 nh        1 0V3     -0.795200
      9 C6          4.8500   -0.4870   -5.2070 c3        1 0V3      0.169100
     10 N5          1.8850   -0.4220   -2.8990 nd        1 0V3     -0.756100
     11 C7          2.0300   -0.2510   -1.5190 ca        1 0V3      0.145400
     12 C8          1.0460   -0.1400   -0.5230 ca        1 0V3     -0.055300
     13 C9         -0.3910   -0.1360   -0.9090 c3        1 0V3     -0.042100
     14 C10        -0.8560   -1.4520   -1.5360 c3        1 0V3      0.115800
     15 N6         -0.7860   -1.4670   -3.0240 n4        1 0V3     -0.775000
     16 C11        -1.3150   -2.7400   -3.5950 c3        1 0V3      0.103800
     17 C12        -1.2500   -2.7770   -5.1250 c3        1 0V3     -0.089700
     18 C13        -2.2140   -1.7820   -5.7530 c3        1 0V3     -0.078900
     19 C14        -2.1790   -1.8790   -7.2650 c3        1 0V3     -0.075900
     20 C15        -2.4980   -3.2980   -7.7360 c3        1 0V3      0.033400
     21 C16        -2.4330   -3.3830   -9.1680 c1        1 0V3     -0.169100
     22 C17        -2.3920   -3.4590  -10.3630 cg        1 0V3     -0.053000
     23 C23        -1.5440   -4.2990   -7.0870 c3        1 0V3     -0.075900
     24 C24        -1.5870   -4.1950   -5.5770 c3        1 0V3     -0.078900
     25 C25         3.3350    0.2910    2.5040 c         1 0V3      0.724100
     26 O1          4.5020    0.3440    2.8970 o         1 0V3     -0.519500
     27 N8          2.3130    0.4280    3.4880 n         1 0V3     -0.504400
     28 C26         0.9840    0.3630    3.0730 cd        1 0V3      0.544800
     29 N9         -0.0680    0.5250    4.1370 n4        1 0V3     -0.804600
     30 H2          4.9420    0.0640    0.4040 ha        1 0V3      0.195000
     31 H3          5.1330   -0.2900   -2.4920 hn        1 0V3      0.341700
     32 H4          2.7660   -0.5130   -5.3950 hn        1 0V3      0.464800
     33 H5          5.5240   -1.2280   -4.6990 h1        1 0V3      0.071700
     34 H6          4.8590   -0.6950   -6.3110 h1        1 0V3      0.071700
     35 H7          5.2420    0.5520   -5.0300 h1        1 0V3      0.071700
     36 H9         -0.5660    0.7310   -1.6080 hc        1 0V3      0.090200
     37 H10        -1.0540    0.0430   -0.0200 hc        1 0V3      0.090200
     38 H11        -1.9310   -1.6410   -1.2480 hx        1 0V3      0.101200
     39 H12        -0.2290   -2.3080   -1.1540 hx        1 0V3      0.101200
     40 H13        -1.3270   -0.6800   -3.4000 hn        1 0V3      0.468300
     41 H15        -2.3850   -2.8600   -3.2570 hx        1 0V3      0.100200
     42 H16        -0.7040   -3.5860   -3.1690 hx        1 0V3      0.100200
     43 H17        -0.2030   -2.5390   -5.4650 hc        1 0V3      0.066700
     44 H18        -3.2560   -1.9860   -5.3890 hc        1 0V3      0.047450
     45 H19        -1.9460   -0.7340   -5.4560 hc        1 0V3      0.047450
     46 H20        -2.9280   -1.1660   -7.7000 hc        1 0V3      0.065450
     47 H21        -1.1670   -1.5790   -7.6420 hc        1 0V3      0.065450
     48 H22        -3.5530   -3.5510   -7.4120 hc        1 0V3      0.071700
     49 H24        -0.5000   -4.1150   -7.4530 hc        1 0V3      0.065450
     50 H25        -1.8310   -5.3390   -7.3940 hc        1 0V3      0.065450
     51 H26        -0.8530   -4.9180   -5.1340 hc        1 0V3      0.047450
     52 H27        -2.6090   -4.4730   -5.2080 hc        1 0V3      0.047450
     53 H28         0.0330    1.4480    4.5790 hn        1 0V3      0.486133
     54 H29        -1.0070    0.4550    3.7170 hn        1 0V3      0.486133
     55 C18        -2.3340   -3.5420  -11.7630 ca        1 0V3     -0.122300
     56 C19        -1.2200   -3.0220  -12.4680 ca        1 0V3      0.422200
     57 N1         -1.1030   -3.0700  -13.8050 nb        1 0V3     -0.660000
     58 C21        -2.1040   -3.6460  -14.5010 ca        1 0V3      0.417200
     59 C22        -3.2510   -4.1920  -13.8960 ca        1 0V3     -0.243300
     60 C27        -3.3670   -4.1390  -12.5080 ca        1 0V3     -0.061000
     61 H8         -0.3850   -2.5450  -11.9260 h4        1 0V3      0.022100
     62 H14        -1.9740   -3.6680  -15.5990 h4        1 0V3      0.037100
     63 H23        -4.0380   -4.6500  -14.5110 ha        1 0V3      0.158000
     64 H30        -4.2500   -4.5560  -12.0010 ha        1 0V3      0.148000
     65 H1          2.5840    0.5750    4.4380 hn        1 0V3      0.362500
     66 H62         0.2030   -1.3320   -3.3230 hn        1 0V3      0.468300
     67 H93         0.0400   -0.2130    4.8440 hn        1 0V3      0.486133
@<TRIPOS>BOND
     1    1    2 1   
     2    1   28 2   
     3    2    3 ar  
     4    2   12 ar  
     5    3    4 ar  
     6    3   25 1   
     7    4    5 ar  
     8    4   30 1   
     9    5    6 1   
    10    5   11 ar  
    11    6    7 1   
    12    6   31 1   
    13    7    8 1   
    14    7   10 2   
    15    8    9 1   
    16    8   32 1   
    17    9   33 1   
    18    9   34 1   
    19    9   35 1   
    20   10   11 1   
    21   11   12 ar  
    22   12   13 1   
    23   13   14 1   
    24   13   36 1   
    25   13   37 1   
    26   14   15 1   
    27   14   38 1   
    28   14   39 1   
    29   15   16 1   
    30   15   40 1   
    31   15   66 1   
    32   16   17 1   
    33   16   41 1   
    34   16   42 1   
    35   17   18 1   
    36   17   24 1   
    37   17   43 1   
    38   18   19 1   
    39   18   44 1   
    40   18   45 1   
    41   19   20 1   
    42   19   46 1   
    43   19   47 1   
    44   20   21 1   
    45   20   23 1   
    46   20   48 1   
    47   21   22 3   
    48   22   55 1   
    49   23   24 1   
    50   23   49 1   
    51   23   50 1   
    52   24   51 1   
    53   24   52 1   
    54   25   26 2   
    55   25   27 1   
    56   27   28 1   
    57   27   65 1   
    58   28   29 1   
    59   29   53 1   
    60   29   54 1   
    61   29   67 1   
    62   55   56 ar  
    63   55   60 ar  
    64   56   57 ar  
    65   56   61 1   
    66   57   58 ar  
    67   58   59 ar  
    68   58   62 1   
    69   59   60 ar  
    70   59   63 1   
    71   60   64 1   
@<TRIPOS>SUBSTRUCTURE
     1 0V3         1 TEMP              0 ****  ****    0 ROOT
