@<TRIPOS>MOLECULE
0V3
   68    72     1     0     0
SMALL
bcc


@<TRIPOS>ATOM
      1 N2         -0.0230   -0.2420    0.7020 nc        1 0V3     -0.608100
      2 C1          1.3560   -0.1000    0.4520 ca        1 0V3      0.174400
      3 C2          2.2810   -0.0480    1.5530 ca        1 0V3     -0.133600
      4 C3          3.6460    0.1330    1.3900 ca        1 0V3     -0.011000
      5 C4          4.1110    0.2690    0.0750 ca        1 0V3     -0.038200
      6 N3          5.3910    0.5000   -0.4320 na        1 0V3     -0.225300
      7 C5          5.2330    0.5720   -1.8350 cc        1 0V3      0.463700
      8 N4          6.3520    0.8470   -2.7480 n4        1 0V3     -0.686000
      9 C6          7.4350   -0.1700   -2.6580 c3        1 0V3      0.077100
     10 N5          3.9440    0.3820   -2.2450 nd        1 0V3     -0.520100
     11 C7          3.2090    0.2000   -1.0610 ca        1 0V3      0.090400
     12 C8          1.8180    0.0180   -0.8760 ca        1 0V3      0.008700
     13 C9          0.9170    0.0420   -2.0630 c3        1 0V3     -0.058100
     14 C10         0.9120   -1.3130   -2.7770 c3        1 0V3      0.107800
     15 N6          0.1270   -1.2920   -4.0440 n4        1 0V3     -0.765000
     16 C11         0.1030   -2.6330   -4.7200 c3        1 0V3      0.105800
     17 C12        -0.6560   -2.6030   -6.0490 c3        1 0V3     -0.095700
     18 C13        -2.1420   -2.3510   -5.8460 c3        1 0V3     -0.076900
     19 C14        -2.8770   -2.3830   -7.1720 c3        1 0V3     -0.078900
     20 C15        -2.6590   -3.7130   -7.8940 c3        1 0V3      0.042400
     21 C16        -3.3320   -3.7150   -9.1600 c1        1 0V3     -0.196100
     22 C17        -3.9030   -3.7290  -10.2140 cg        1 0V3     -0.025000
     23 C23        -1.1640   -3.9790   -8.0720 c3        1 0V3     -0.078900
     24 C24        -0.4390   -3.9460   -6.7420 c3        1 0V3     -0.076900
     25 C25         1.7770   -0.1680    2.9430 c         1 0V3      0.715100
     26 O1          2.4720   -0.1740    3.9570 o         1 0V3     -0.476500
     27 N8          0.3670   -0.2790    3.0990 n         1 0V3     -0.496400
     28 C26        -0.4320   -0.2980    1.9600 cd        1 0V3      0.588800
     29 N9         -1.9170   -0.3950    2.1820 n4        1 0V3     -0.808600
     30 H2          4.3210    0.1740    2.2670 ha        1 0V3      0.215000
     31 H3          6.2240    0.6110    0.0990 hn        1 0V3      0.357700
     32 H4          5.9810    0.8680   -3.7150 hn        1 0V3      0.494300
     33 H5          7.9140   -0.1370   -1.6430 hx        1 0V3      0.128700
     34 H6          7.0130   -1.1940   -2.8480 hx        1 0V3      0.128700
     35 H7          8.2090    0.0720   -3.4430 hx        1 0V3      0.128700
     36 H9         -0.1300    0.3190   -1.7650 hc        1 0V3      0.093200
     37 H10         1.2750    0.8480   -2.7670 hc        1 0V3      0.093200
     38 H11         1.9680   -1.6190   -3.0320 hx        1 0V3      0.109200
     39 H12         0.4650   -2.1010   -2.1060 hx        1 0V3      0.109200
     40 H13         0.5290   -0.6020   -4.6900 hn        1 0V3      0.455300
     41 H15         1.1720   -2.9460   -4.8960 hx        1 0V3      0.104700
     42 H16        -0.3840   -3.3650   -4.0150 hx        1 0V3      0.104700
     43 H17        -0.2320   -1.7950   -6.7120 hc        1 0V3      0.074700
     44 H18        -2.5680   -3.1340   -5.1640 hc        1 0V3      0.043700
     45 H19        -2.3090   -1.3490   -5.3690 hc        1 0V3      0.043700
     46 H20        -3.9740   -2.2350   -6.9910 hc        1 0V3      0.072700
     47 H21        -2.5250   -1.5410   -7.8230 hc        1 0V3      0.072700
     48 H22        -3.0940   -4.5400   -7.2560 hc        1 0V3      0.068700
     49 H24        -1.0210   -4.9870   -8.5440 hc        1 0V3      0.072700
     50 H25        -0.7260   -3.2170   -8.7670 hc        1 0V3      0.072700
     51 H26         0.6560   -4.1130   -6.9120 hc        1 0V3      0.043700
     52 H27        -0.8170   -4.7730   -6.0850 hc        1 0V3      0.043700
     53 H28        -2.4150   -0.4030    1.2780 hn        1 0V3      0.496133
     54 H29        -2.1380   -1.2620    2.6940 hn        1 0V3      0.496133
     55 C18        -4.5650   -3.7320  -11.4510 ca        1 0V3     -0.136300
     56 C19        -4.5190   -2.5920  -12.2920 ca        1 0V3      0.426200
     57 N1         -5.1300   -2.5280  -13.4860 nb        1 0V3     -0.657000
     58 C21        -5.8190   -3.6110  -13.8950 ca        1 0V3      0.425200
     59 C22        -5.9260   -4.7920  -13.1350 ca        1 0V3     -0.242300
     60 C27        -5.2900   -4.8520  -11.8960 ca        1 0V3     -0.058000
     61 H8         -3.9620   -1.6880  -11.9860 h4        1 0V3      0.022100
     62 H14        -6.3100   -3.5250  -14.8830 h4        1 0V3      0.042100
     63 H23        -6.5020   -5.6470  -13.5160 ha        1 0V3      0.161000
     64 H30        -5.3530   -5.7580  -11.2760 ha        1 0V3      0.148000
     65 H1          0.0010   -0.3330    4.0300 hn        1 0V3      0.379500
     66 H42         6.7280    1.7860   -2.5300 hn        1 0V3      0.494300
     67 H62        -0.8420   -1.0060   -3.8510 hn        1 0V3      0.455300
     68 H93        -2.2360    0.4200    2.7290 hn        1 0V3      0.496133
@<TRIPOS>BOND
     1    1    2 1   
     2    1   28 2   
     3    2    3 ar  
     4    2   12 ar  
     5    3    4 ar  
     6    3   25 1   
     7    4    5 ar  
     8    4   30 1   
     9    5    6 1   
    10    5   11 ar  
    11    6    7 1   
    12    6   31 1   
    13    7    8 1   
    14    7   10 2   
    15    8    9 1   
    16    8   32 1   
    17    8   66 1   
    18    9   33 1   
    19    9   34 1   
    20    9   35 1   
    21   10   11 1   
    22   11   12 ar  
    23   12   13 1   
    24   13   14 1   
    25   13   36 1   
    26   13   37 1   
    27   14   15 1   
    28   14   38 1   
    29   14   39 1   
    30   15   16 1   
    31   15   40 1   
    32   15   67 1   
    33   16   17 1   
    34   16   41 1   
    35   16   42 1   
    36   17   18 1   
    37   17   24 1   
    38   17   43 1   
    39   18   19 1   
    40   18   44 1   
    41   18   45 1   
    42   19   20 1   
    43   19   46 1   
    44   19   47 1   
    45   20   21 1   
    46   20   23 1   
    47   20   48 1   
    48   21   22 3   
    49   22   55 1   
    50   23   24 1   
    51   23   49 1   
    52   23   50 1   
    53   24   51 1   
    54   24   52 1   
    55   25   26 2   
    56   25   27 1   
    57   27   28 1   
    58   27   65 1   
    59   28   29 1   
    60   29   53 1   
    61   29   54 1   
    62   29   68 1   
    63   55   56 ar  
    64   55   60 ar  
    65   56   57 ar  
    66   56   61 1   
    67   57   58 ar  
    68   58   59 ar  
    69   58   62 1   
    70   59   60 ar  
    71   59   63 1   
    72   60   64 1   
@<TRIPOS>SUBSTRUCTURE
     1 0V3         1 TEMP              0 ****  ****    0 ROOT
