@<TRIPOS>MOLECULE
0V3
   65    59     1     0     0
SMALL
bcc


@<TRIPOS>ATOM
      1 N2         -0.0550    2.4010    5.2000 n1        1 0V3     -0.245000
      2 C1          1.3460    2.0430    4.9630 c1        1 0V3      0.064000
      3 C2          2.2270    1.9990    6.0100 c1        1 0V3     -0.179000
      4 C3          3.5750    1.6560    5.7830 c1        1 0V3     -0.051000
      5 C4          4.0170    1.3560    4.4760 c1        1 0V3     -0.071000
      6 N3          5.2480    1.0590    3.9780 n1        1 0V3     -0.240000
      7 C5          5.1330    0.9180    2.6300 c1        1 0V3      0.132000
      8 N4          6.0140    0.5140    1.6030 n2        1 0V3     -0.258000
      9 C6          7.2590    1.1830    1.4320 c3        1 0V3     -0.111000
     10 N5          3.8280    1.1300    2.2920 n2        1 0V3     -0.197000
     11 C7          3.1380    1.4000    3.4300 c1        1 0V3     -0.001000
     12 C8          1.7890    1.7440    3.6560 c1        1 0V3     -0.034000
     13 C9          0.8790    1.9140    2.4330 c3        1 0V3     -0.110000
     14 C10         0.4960    0.5260    1.8790 c3        1 0V3     -0.069000
     15 N6         -0.2960    0.6870    0.6700 n3        1 0V3     -0.302000
     16 C11        -0.9950   -0.5520    0.3800 c3        1 0V3     -0.069000
     17 C12        -1.4240   -0.5710   -1.1420 c3        1 0V3     -0.110000
     18 C13        -2.8600   -0.9760   -1.2300 c3        1 0V3     -0.155000
     19 C14        -3.3260   -1.1980   -2.6560 c3        1 0V3     -0.149000
     20 C15        -2.4230   -2.1760   -3.4440 c3        1 0V3      0.001000
     21 C16        -2.8840   -2.3040   -4.9030 c1        1 0V3     -0.120000
     22 C17        -3.2540   -2.4050   -6.0630 c1        1 0V3     -0.139000
     23 C23        -0.9460   -1.7130   -3.3200 c3        1 0V3     -0.149000
     24 C24        -0.5130   -1.4830   -1.8820 c3        1 0V3     -0.155000
     25 C25         1.7520    2.3240    7.4110 c2        1 0V3      0.356000
     26 O1          2.5220    2.2370    8.3510 o         1 0V3     -0.356000
     27 N8          0.4090    2.6700    7.6340 n         1 0V3     -0.344000
     28 C26        -0.5100    2.7090    6.5400 c2        1 0V3      0.209000
     29 N9         -1.8990    3.0210    6.7780 n3        1 0V3     -0.320000
     30 H2          4.2160    1.6730    6.5250 ha        1 0V3      0.163000
     31 H3          6.0260    1.0160    4.4580 DU        1 0V3      0.246000
     32 H4          5.7630   -0.1350    1.0180 hn        1 0V3      0.221000
     33 H5          7.1060    2.1530    1.3850 h1        1 0V3      0.086000
     34 H6          7.8470    0.9810    2.1920 h1        1 0V3      0.086000
     35 H7          7.6820    0.8790    0.6010 h1        1 0V3      0.086000
     36 H9          0.0700    2.3960    2.6940 hc        1 0V3      0.105500
     37 H10         1.3520    2.4200    1.7450 hc        1 0V3      0.105500
     38 H11         1.3110    0.0210    1.6710 h1        1 0V3      0.075000
     39 H12        -0.0290    0.0380    2.5520 h1        1 0V3      0.075000
     40 H13         0.2540    0.8970   -0.0290 hn        1 0V3      0.149000
     41 H15        -0.4040   -1.3070    0.5610 h1        1 0V3      0.067500
     42 H16        -1.7930   -0.6170    0.9460 h1        1 0V3      0.067500
     43 H17        -1.3300    0.3290   -1.5060 hc        1 0V3      0.105000
     44 H18        -2.9850   -1.8050   -0.7250 hc        1 0V3      0.082500
     45 H19        -3.4070   -0.2790   -0.8270 hc        1 0V3      0.082500
     46 H20        -4.2350   -1.5560   -2.6380 hc        1 0V3      0.088000
     47 H21        -3.3360   -0.3400   -3.1190 hc        1 0V3      0.088000
     48 H22        -2.5280   -3.0980   -3.1290 hc        1 0V3      0.107000
     49 H24        -0.3700   -2.3940   -3.7150 hc        1 0V3      0.088000
     50 H25        -0.8350   -0.8820   -3.8170 hc        1 0V3      0.088000
     51 H26         0.3830   -1.0990   -1.8810 hc        1 0V3      0.082500
     52 H27        -0.4880   -2.3450   -1.4190 hc        1 0V3      0.082500
     53 H28        -2.4510    3.2220    6.0720 hn        1 0V3      0.205500
     54 H29        -2.2360    3.0050    7.6390 hn        1 0V3      0.205500
     55 C18        -3.7230   -2.5300   -7.5200 c1        1 0V3     -0.011000
     56 C19        -3.0800   -3.4020   -8.3810 c2        1 0V3     -0.052000
     57 N1         -3.5630   -3.5960   -9.6450 n1        1 0V3     -0.139000
     58 C21        -4.6820   -2.9300  -10.0610 c1        1 0V3     -0.126000
     59 C22        -5.3260   -2.0570   -9.2010 c1        1 0V3     -0.126000
     60 C27        -4.8440   -1.8610   -7.9360 c1        1 0V3     -0.076000
     61 H8         -2.2830   -3.8770   -8.0870 h4        1 0V3      0.166000
     62 H14        -5.0270   -3.0690  -10.9660 ha        1 0V3      0.152500
     63 H23        -6.1270   -1.5800   -9.4980 ha        1 0V3      0.152500
     64 H30        -5.2980   -1.2460   -7.3310 ha        1 0V3      0.145000
     65 H1          0.1210    2.8650    8.4800 hn        1 0V3      0.250000
@<TRIPOS>BOND
     1    1   28 1   
     2    2   12 1   
     3    3    4 1   
     4    3   25 1   
     5    4   30 1   
     6    5   11 1   
     7    6    7 1   
     8    7   10 1   
     9    8    9 1   
    10    8   32 1   
    11    9   33 1   
    12    9   34 1   
    13    9   35 1   
    14   10   11 1   
    15   12   13 1   
    16   13   14 1   
    17   13   36 1   
    18   13   37 1   
    19   14   15 1   
    20   14   38 1   
    21   14   39 1   
    22   15   16 1   
    23   15   40 1   
    24   16   17 1   
    25   16   41 1   
    26   16   42 1   
    27   17   18 1   
    28   17   24 1   
    29   17   43 1   
    30   18   19 1   
    31   18   44 1   
    32   18   45 1   
    33   19   20 1   
    34   19   46 1   
    35   19   47 1   
    36   20   21 1   
    37   20   23 1   
    38   20   48 1   
    39   21   22 1   
    40   23   24 1   
    41   23   49 1   
    42   23   50 1   
    43   24   51 1   
    44   24   52 1   
    45   25   26 1   
    46   25   27 1   
    47   27   28 1   
    48   27   65 1   
    49   28   29 1   
    50   29   53 1   
    51   29   54 1   
    52   55   56 1   
    53   55   60 1   
    54   56   57 1   
    55   56   61 1   
    56   58   59 1   
    57   58   62 1   
    58   59   63 1   
    59   60   64 1   
@<TRIPOS>SUBSTRUCTURE
     1 0V3         1 TEMP              0 ****  ****    0 ROOT
