@<TRIPOS>MOLECULE
0V3
   67    69     1     0     0
SMALL
bcc


@<TRIPOS>ATOM
      1 N2          0.1000   -0.5550    0.9300 nc        1 0V3     -0.599300
      2 C1          1.4240   -0.3780    0.5150 cc        1 0V3      0.274600
      3 C2          2.4830   -0.5250    1.4120 cd        1 0V3     -0.185200
      4 C3          3.8560   -0.3320    1.0400 cd        1 0V3      0.015000
      5 C4          4.1140    0.0170   -0.2460 cc        1 0V3     -0.144600
      6 N3          5.3210    0.2910   -0.9260 na        1 0V3     -0.368900
      7 C5          4.9760    0.6100   -2.2560 cd        1 0V3      0.683000
      8 N4          5.8480    0.9380   -3.2280 nu        1 0V3     -0.306900
      9 C6          7.2710    1.0060   -3.0230 c3        1 0V3     -0.021400
     10 N5          3.5410    0.5410   -2.4540 nd        1 0V3     -0.678000
     11 C7          3.0320    0.1900   -1.2640 cc        1 0V3      0.564100
     12 C8          1.6540   -0.0260   -0.8890 cc        1 0V3     -0.252800
     13 C9          0.6570    0.0890   -1.8130 c2        1 0V3      0.119000
     14 C10        -0.1830   -3.4990   -2.6250 c3        1 0V3      0.136100
     15 N6          0.1170   -2.2440   -3.2740 n7        1 0V3     -0.853200
     16 C11        -0.9040   -1.8020   -4.2080 c3        1 0V3      0.147800
     17 C12        -0.8970   -2.4790   -5.5910 c3        1 0V3     -0.068500
     18 C13         0.4030   -2.2270   -6.2740 c2        1 0V3     -0.174200
     19 C14         1.4250   -3.0800   -6.2570 c2        1 0V3     -0.222000
     20 C15        -3.3600   -2.1430   -8.5390 c3        1 0V3      0.009700
     21 C16        -3.5030   -2.8280   -9.7870 c1        1 0V3     -0.141100
     22 C17        -3.6310   -3.3950  -10.8350 cg        1 0V3     -0.088000
     23 C23        -2.2060   -2.6970   -7.7190 c3        1 0V3     -0.079400
     24 C24        -2.0660   -1.9490   -6.4110 c3        1 0V3     -0.070400
     25 C25         2.2270   -0.8890    2.8170 c         1 0V3      0.715700
     26 O1          3.0670   -1.0570    3.7000 o         1 0V3     -0.501500
     27 N8          0.8520   -1.0600    3.1770 ns        1 0V3     -0.481400
     28 C26        -0.1150   -0.8760    2.2020 cd        1 0V3      0.576800
     29 N9         -1.5540   -1.0510    2.6030 nz        1 0V3     -0.807600
     30 H2          4.6370   -0.4700    1.8120 ha        1 0V3      0.206000
     31 H3          6.2290    0.2690   -0.5300 hn        1 0V3      0.353700
     32 H4          5.4810    1.1470   -4.1400 hn        1 0V3      0.351700
     33 H5          7.7550    1.3000   -3.9950 h1        1 0V3      0.090367
     34 H6          7.6740    0.0060   -2.7050 h1        1 0V3      0.090367
     35 H7          7.5220    1.7780   -2.2450 h1        1 0V3      0.090367
     36 H9          0.6670   -3.7660   -1.9430 h1        1 0V3      0.036367
     37 H10         0.8700    0.3630   -2.8640 ha        1 0V3      0.172500
     38 H11        -0.3400   -4.3510   -3.3420 h1        1 0V3      0.036367
     39 H12        -1.1160   -3.3850   -2.0140 h1        1 0V3      0.036367
     40 H13        -0.4070   -0.0780   -1.5780 ha        1 0V3      0.172500
     41 H15        -0.7510   -0.6950   -4.3540 h1        1 0V3      0.047200
     42 H16        -1.9180   -1.9540   -3.7420 h1        1 0V3      0.047200
     43 H17        -1.0400   -3.5880   -5.4490 hc        1 0V3      0.065700
     44 H18         1.3810   -4.0540   -5.7500 ha        1 0V3      0.118000
     45 H19         0.4670   -1.2690   -6.8190 ha        1 0V3      0.131000
     46 H20         2.3670   -2.8760   -6.7820 ha        1 0V3      0.118000
     47 H21        -3.1910   -1.0460   -8.7340 hc        1 0V3      0.058700
     48 H22        -4.3170   -2.2330   -7.9520 hc        1 0V3      0.058700
     49 H24        -1.9190   -0.8550   -6.6140 hc        1 0V3      0.042700
     50 H25        -2.3790   -3.7870   -7.5170 hc        1 0V3      0.055700
     51 H26        -3.0120   -2.0560   -5.8170 hc        1 0V3      0.042700
     52 H27        -1.2520   -2.6140   -8.3050 hc        1 0V3      0.055700
     53 H28        -1.7930   -0.3710    3.3380 hn        1 0V3      0.494800
     54 H29        -1.7030   -2.0090    2.9500 hn        1 0V3      0.494800
     55 C18        -3.7720   -4.0640  -12.0600 ca        1 0V3     -0.105300
     56 C19        -2.8160   -5.0270  -12.4690 ca        1 0V3      0.417200
     57 N1         -2.8920   -5.7010  -13.6280 nb        1 0V3     -0.662000
     58 C21        -3.9390   -5.4380  -14.4360 ca        1 0V3      0.408200
     59 C22        -4.9410   -4.5020  -14.1230 ca        1 0V3     -0.244300
     60 C27        -4.8550   -3.8050  -12.9180 ca        1 0V3     -0.068000
     61 H8         -1.9480   -5.2630  -11.8280 h4        1 0V3      0.024100
     62 H14        -3.9710   -6.0100  -15.3810 h4        1 0V3      0.032100
     63 H23        -5.7730   -4.3260  -14.8180 ha        1 0V3      0.153000
     64 H30        -5.6200   -3.0660  -12.6410 ha        1 0V3      0.146000
     65 H1          0.6420   -1.3080    4.1250 hn        1 0V3      0.372500
     66 H62         0.9930   -2.3280   -3.7680 hn        1 0V3      0.364800
     67 H93        -2.1670   -0.8910    1.7860 hn        1 0V3      0.494800
@<TRIPOS>BOND
     1    1    2 1   
     2    1   28 2   
     3    2    3 2   
     4    2   12 1   
     5    3    4 1   
     6    3   25 1   
     7    4    5 2   
     8    4   30 1   
     9    5    6 1   
    10    5   11 1   
    11    6    7 2   
    12    6   31 1   
    13    7    8 1   
    14    7   10 1   
    15    8    9 1   
    16    8   32 1   
    17    9   33 1   
    18    9   34 1   
    19    9   35 1   
    20   10   11 2   
    21   11   12 1   
    22   12   13 2   
    23   13   37 1   
    24   13   40 1   
    25   14   15 1   
    26   14   36 1   
    27   14   38 1   
    28   14   39 1   
    29   15   16 1   
    30   15   66 1   
    31   16   17 1   
    32   16   41 1   
    33   16   42 1   
    34   17   18 1   
    35   17   24 1   
    36   17   43 1   
    37   18   19 2   
    38   18   45 1   
    39   19   44 1   
    40   19   46 1   
    41   20   21 1   
    42   20   23 1   
    43   20   47 1   
    44   20   48 1   
    45   21   22 3   
    46   22   55 1   
    47   23   24 1   
    48   23   50 1   
    49   23   52 1   
    50   24   49 1   
    51   24   51 1   
    52   25   26 2   
    53   25   27 1   
    54   27   28 1   
    55   27   65 1   
    56   28   29 1   
    57   29   53 1   
    58   29   54 1   
    59   29   67 1   
    60   55   56 ar  
    61   55   60 ar  
    62   56   57 ar  
    63   56   61 1   
    64   57   58 ar  
    65   58   59 ar  
    66   58   62 1   
    67   59   60 ar  
    68   59   63 1   
    69   60   64 1   
@<TRIPOS>SUBSTRUCTURE
     1 0V3         1 TEMP              0 ****  ****    0 ROOT
