@<TRIPOS>MOLECULE
0V3
   65    69     1     0     0
SMALL
bcc


@<TRIPOS>ATOM
      1 N2          3.9800   -2.5010    0.4330 nc        1 0V3     -0.672100
      2 C1          4.6220   -1.2730    0.2560 ca        1 0V3      0.203400
      3 C2          5.9800   -1.2100   -0.1780 ca        1 0V3     -0.199600
      4 C3          6.6560   -0.0000   -0.3720 ca        1 0V3     -0.051000
      5 C4          5.9470    1.1650   -0.1390 ca        1 0V3     -0.115200
      6 N3          6.3350    2.5190   -0.1830 na        1 0V3     -0.283300
      7 C5          5.1410    3.2610    0.1130 cc        1 0V3      0.610700
      8 N4          5.0860    4.6650    0.0090 nh        1 0V3     -0.773200
      9 C6          6.2880    5.4060    0.2730 c3        1 0V3      0.165100
     10 N5          4.0890    2.4580    0.4570 nd        1 0V3     -0.624100
     11 C7          4.5580    1.1380    0.2980 ca        1 0V3      0.138400
     12 C8          3.8960   -0.0760    0.5080 ca        1 0V3     -0.041300
     13 C9          2.4860   -0.0880    0.9830 c3        1 0V3     -0.024100
     14 C10         1.5250   -0.1530   -0.2100 c3        1 0V3      0.167800
     15 N6          0.1310   -0.0960    0.1880 n3        1 0V3     -0.824200
     16 C11        -0.7670    0.0500   -0.9400 c3        1 0V3      0.166800
     17 C12        -2.2200    0.3380   -0.5370 c3        1 0V3     -0.066700
     18 C13        -2.8230   -0.8330    0.2210 c3        1 0V3     -0.073900
     19 C14        -4.2790   -0.5820    0.5580 c3        1 0V3     -0.070900
     20 C15        -5.0880   -0.2970   -0.7070 c3        1 0V3      0.012400
     21 C16        -6.4720   -0.0650   -0.3970 c1        1 0V3     -0.092100
     22 C17        -7.6300    0.1180   -0.1460 cg        1 0V3     -0.136000
     23 C23        -4.4860    0.8890   -1.4590 c3        1 0V3     -0.070900
     24 C24        -3.0310    0.6330   -1.7920 c3        1 0V3     -0.073900
     25 C25         6.7110   -2.4640   -0.4260 c         1 0V3      0.719100
     26 O1          7.8960   -2.5390   -0.8030 o         1 0V3     -0.631500
     27 N8          6.0030   -3.6590   -0.2310 n         1 0V3     -0.504400
     28 C26         4.6670   -3.6290    0.2310 cd        1 0V3      0.655800
     29 N9          4.0680   -4.8800    0.5400 nh        1 0V3     -0.881800
     30 H2          7.7080   -0.0040   -0.6960 ha        1 0V3      0.163000
     31 H3          7.0440    2.8540   -0.7860 hn        1 0V3      0.295700
     32 H4          4.2730    5.0400    0.4610 hn        1 0V3      0.425800
     33 H5          6.7540    5.1630    1.2670 h1        1 0V3      0.046700
     34 H6          7.0420    5.2000   -0.5330 h1        1 0V3      0.046700
     35 H7          6.0350    6.5000    0.2490 h1        1 0V3      0.046700
     36 H9          2.3040   -0.9630    1.6610 hc        1 0V3      0.065700
     37 H10         2.2830    0.8390    1.5840 hc        1 0V3      0.065700
     38 H11         1.7960    0.6770   -0.9280 h1        1 0V3      0.035700
     39 H12         1.6800   -1.1300   -0.7500 h1        1 0V3      0.035700
     40 H13        -0.0160    0.6430    0.8520 hn        1 0V3      0.354800
     41 H15        -0.4340    0.8710   -1.6440 h1        1 0V3      0.028700
     42 H16        -0.7340   -0.9160   -1.5200 h1        1 0V3      0.028700
     43 H17        -2.2500    1.2480    0.1250 hc        1 0V3      0.048700
     44 H18        -2.7330   -1.7640   -0.3990 hc        1 0V3      0.047450
     45 H19        -2.2500   -1.0050    1.1690 hc        1 0V3      0.047450
     46 H20        -4.7040   -1.4780    1.0790 hc        1 0V3      0.047450
     47 H21        -4.3620    0.2900    1.2570 hc        1 0V3      0.047450
     48 H22        -5.0270   -1.2080   -1.3770 hc        1 0V3      0.068700
     49 H24        -5.0630    1.0650   -2.4040 hc        1 0V3      0.047450
     50 H25        -4.5740    1.8130   -0.8300 hc        1 0V3      0.047450
     51 H26        -2.6070    1.5310   -2.3110 hc        1 0V3      0.047450
     52 H27        -2.9530   -0.2340   -2.4990 hc        1 0V3      0.047450
     53 H28         3.1080   -4.8060    0.8090 hn        1 0V3      0.410300
     54 H29         4.2240   -5.5860   -0.1480 hn        1 0V3      0.410300
     55 C18        -8.9850    0.3310    0.1450 ca        1 0V3     -0.079300
     56 C19        -9.8310    0.9860   -0.7860 ca        1 0V3      0.412200
     57 N1        -11.1360    1.2190   -0.5660 nb        1 0V3     -0.665000
     58 C21       -11.6550    0.8040    0.6070 ca        1 0V3      0.395200
     59 C22       -10.9030    0.1470    1.5970 ca        1 0V3     -0.248300
     60 C27        -9.5500   -0.0920    1.3610 ca        1 0V3     -0.077000
     61 H8         -9.4310    1.3360   -1.7550 h4        1 0V3      0.029100
     62 H14       -12.7290    1.0120    0.7560 h4        1 0V3      0.023100
     63 H23       -11.3760   -0.1700    2.5350 ha        1 0V3      0.145000
     64 H30        -8.9290   -0.6030    2.1110 ha        1 0V3      0.145000
     65 H1          6.4940   -4.5210   -0.3190 hn        1 0V3      0.336500
@<TRIPOS>BOND
     1    1    2 1   
     2    1   28 2   
     3    2    3 ar  
     4    2   12 ar  
     5    3    4 ar  
     6    3   25 1   
     7    4    5 ar  
     8    4   30 1   
     9    5    6 1   
    10    5   11 ar  
    11    6    7 1   
    12    6   31 1   
    13    7    8 1   
    14    7   10 2   
    15    8    9 1   
    16    8   32 1   
    17    9   33 1   
    18    9   34 1   
    19    9   35 1   
    20   10   11 1   
    21   11   12 ar  
    22   12   13 1   
    23   13   14 1   
    24   13   36 1   
    25   13   37 1   
    26   14   15 1   
    27   14   38 1   
    28   14   39 1   
    29   15   16 1   
    30   15   40 1   
    31   16   17 1   
    32   16   41 1   
    33   16   42 1   
    34   17   18 1   
    35   17   24 1   
    36   17   43 1   
    37   18   19 1   
    38   18   44 1   
    39   18   45 1   
    40   19   20 1   
    41   19   46 1   
    42   19   47 1   
    43   20   21 1   
    44   20   23 1   
    45   20   48 1   
    46   21   22 3   
    47   22   55 1   
    48   23   24 1   
    49   23   49 1   
    50   23   50 1   
    51   24   51 1   
    52   24   52 1   
    53   25   26 2   
    54   25   27 1   
    55   27   28 1   
    56   27   65 1   
    57   28   29 1   
    58   29   53 1   
    59   29   54 1   
    60   55   56 ar  
    61   55   60 ar  
    62   56   57 ar  
    63   56   61 1   
    64   57   58 ar  
    65   58   59 ar  
    66   58   62 1   
    67   59   60 ar  
    68   59   63 1   
    69   60   64 1   
@<TRIPOS>SUBSTRUCTURE
     1 0V3         1 TEMP              0 ****  ****    0 ROOT
