@<TRIPOS>MOLECULE
0V5
   14    13     1     0     0
SMALL
bcc


@<TRIPOS>ATOM
      1 C1         -0.1630   -0.0610    0.1350 c         1 0V5      0.894600
      2 O1         -0.7570   -0.9970    0.7630 o         1 0V5     -0.922800
      3 O2'        -0.8180    0.9980   -0.1570 o         1 0V5     -0.922800
      4 C2          1.3620   -0.0970   -0.1600 c3        1 0V5      0.152100
      5 C3          2.0360   -0.0720    1.2250 c3        1 0V5     -0.113100
      6 O2          1.7640   -1.1830   -0.9120 os        1 0V5     -0.568200
      7 P           3.1110   -0.9830   -1.9650 p5        1 0V5      1.327900
      8 O1P         4.2670   -0.7350   -1.0180 o         1 0V5     -0.955167
      9 O2P         3.1700   -2.3140   -2.6800 o         1 0V5     -0.955167
     10 O3P         2.7940    0.1940   -2.8570 o         1 0V5     -0.955167
     11 H2          1.6360    0.8520   -0.7110 h1        1 0V5      0.014700
     12 H3          1.7080    0.8340    1.7910 hc        1 0V5      0.000700
     13 H4          1.7310   -0.9790    1.7980 hc        1 0V5      0.000700
     14 H5          3.1460   -0.0610    1.1200 hc        1 0V5      0.000700
@<TRIPOS>BOND
     1    1    2 1   
     2    1    3 1   
     3    1    4 1   
     4    4    5 1   
     5    4    6 1   
     6    4   11 1   
     7    5   12 1   
     8    5   13 1   
     9    5   14 1   
    10    6    7 1   
    11    7    8 1   
    12    7    9 1   
    13    7   10 1   
@<TRIPOS>SUBSTRUCTURE
     1 0V5         1 TEMP              0 ****  ****    0 ROOT
