@<TRIPOS>MOLECULE
0V5
   14    12     1     0     0
SMALL
bcc


@<TRIPOS>ATOM
      1 C1         -1.6320    0.2750    0.4200 c1        1 0V5      0.314000
      2 O1         -2.2170   -0.8100    0.6750 o         1 0V5     -0.645000
      3 O2'        -2.3030    1.3280    0.2580 os        1 0V5     -0.670000
      4 C2         -0.1240    0.3140    0.3100 c3        1 0V5      0.091000
      5 C3          0.4800    0.4120    1.6920 c3        1 0V5     -0.231000
      6 O2          0.3300   -0.8600   -0.3190 os        1 0V5     -0.730000
      7 P           0.7680   -0.7810   -1.8350 p5        1 0V5      1.561500
      8 O1P         1.1750   -2.1540   -2.3140 o         1 0V5     -0.955167
      9 O2P         1.9360    0.1660   -1.9730 o         1 0V5     -0.955167
     10 O3P        -0.3880   -0.2790   -2.6680 o         1 0V5     -0.955167
     11 H2          0.1440    1.0910   -0.2190 h1        1 0V5      0.054000
     12 H3          0.3000   -0.4150    2.1870 hc        1 0V5      0.040000
     13 H4          1.4480    0.5430    1.6170 hc        1 0V5      0.040000
     14 H5          0.0840    1.1700    2.1690 hc        1 0V5      0.040000
@<TRIPOS>BOND
     1    1    2 1   
     2    1    4 1   
     3    4    5 1   
     4    4    6 1   
     5    4   11 1   
     6    5   12 1   
     7    5   13 1   
     8    5   14 1   
     9    6    7 1   
    10    7    8 1   
    11    7    9 1   
    12    7   10 1   
@<TRIPOS>SUBSTRUCTURE
     1 0V5         1 TEMP              0 ****  ****    0 ROOT
