@<TRIPOS>MOLECULE
0V5
   14    13     1     0     0
SMALL
bcc


@<TRIPOS>ATOM
      1 C1         -0.1630   -0.0690    0.1400 c         1 0V5      0.894600
      2 O1         -0.7610   -1.0210    0.7380 o         1 0V5     -0.922800
      3 O2'        -0.8160    1.0000   -0.1210 o         1 0V5     -0.922800
      4 C2          1.3620   -0.0990   -0.1540 c3        1 0V5      0.152100
      5 C3          2.0340   -0.1190    1.2330 c3        1 0V5     -0.113100
      6 O2          1.7630   -1.1620   -0.9380 os        1 0V5     -0.568200
      7 P           3.1120   -0.9320   -1.9820 p5        1 0V5      1.327900
      8 O1P         4.2680   -0.7210   -1.0260 o         1 0V5     -0.955167
      9 O2P         3.1670   -2.2400   -2.7410 o         1 0V5     -0.955167
     10 O3P         2.8020    0.2750   -2.8350 o         1 0V5     -0.955167
     11 H2          1.6400    0.8660   -0.6740 h1        1 0V5      0.014700
     12 H3          1.7080    0.7710    1.8250 hc        1 0V5      0.000700
     13 H4          3.1440   -0.1080    1.1300 hc        1 0V5      0.000700
     14 H5          1.7250   -1.0420    1.7770 hc        1 0V5      0.000700
@<TRIPOS>BOND
     1    1    2 1   
     2    1    3 1   
     3    1    4 1   
     4    4    5 1   
     5    4    6 1   
     6    4   11 1   
     7    5   12 1   
     8    5   13 1   
     9    5   14 1   
    10    6    7 1   
    11    7    8 1   
    12    7    9 1   
    13    7   10 1   
@<TRIPOS>SUBSTRUCTURE
     1 0V5         1 TEMP              0 ****  ****    0 ROOT
