@<TRIPOS>MOLECULE
0V5
   14    13     1     0     0
SMALL
bcc


@<TRIPOS>ATOM
      1 C1         -0.1600   -0.0490    0.1440 c         1 0V5      0.894600
      2 O1         -0.7470   -0.9630    0.8090 o         1 0V5     -0.922800
      3 O2'        -0.8190    0.9990   -0.1770 o         1 0V5     -0.922800
      4 C2          1.3630   -0.0940   -0.1640 c3        1 0V5      0.152100
      5 C3          2.0490   -0.0240    1.2140 c3        1 0V5     -0.113100
      6 O2          1.7580   -1.2040   -0.8840 os        1 0V5     -0.568200
      7 P           3.0950   -1.0370   -1.9550 p5        1 0V5      1.327900
      8 O1P         4.2610   -0.7660   -1.0270 o         1 0V5     -0.955167
      9 O2P         3.1440   -2.3890   -2.6330 o         1 0V5     -0.955167
     10 O3P         2.7730    0.1150   -2.8770 o         1 0V5     -0.955167
     11 H2          1.6320    0.8370   -0.7470 h1        1 0V5      0.014700
     12 H3          3.1580   -0.0180    1.0980 hc        1 0V5      0.000700
     13 H4          1.7490   -0.9120    1.8190 hc        1 0V5      0.000700
     14 H5          1.7280    0.9000    1.7520 hc        1 0V5      0.000700
@<TRIPOS>BOND
     1    1    2 1   
     2    1    3 1   
     3    1    4 1   
     4    4    5 1   
     5    4    6 1   
     6    4   11 1   
     7    5   12 1   
     8    5   13 1   
     9    5   14 1   
    10    6    7 1   
    11    7    8 1   
    12    7    9 1   
    13    7   10 1   
@<TRIPOS>SUBSTRUCTURE
     1 0V5         1 TEMP              0 ****  ****    0 ROOT
