@<TRIPOS>MOLECULE
0V5
   14    13     1     0     0
SMALL
bcc


@<TRIPOS>ATOM
      1 C1          2.3150    0.4210    0.1340 c         1 0V5      0.894600
      2 O1          2.8290    0.5570    1.2920 o         1 0V5     -0.922800
      3 O2'         2.9510    0.8720   -0.8800 o         1 0V5     -0.922800
      4 C2          1.0160   -0.3980   -0.1070 c3        1 0V5      0.152100
      5 C3          1.3780   -1.8420    0.2890 c3        1 0V5     -0.113100
      6 O2         -0.0810    0.0700    0.5880 os        1 0V5     -0.568200
      7 P          -1.6350   -0.1360   -0.1220 p5        1 0V5      1.327900
      8 O1P        -1.8220   -1.6390   -0.1370 o         1 0V5     -0.955167
      9 O2P        -2.5400    0.5910    0.8480 o         1 0V5     -0.955167
     10 O3P        -1.5690    0.4800   -1.5000 o         1 0V5     -0.955167
     11 H2          0.7860   -0.3760   -1.2140 h1        1 0V5      0.014700
     12 H3          2.2500   -2.1950   -0.3140 hc        1 0V5      0.000700
     13 H4          1.6580   -1.8670    1.3680 hc        1 0V5      0.000700
     14 H5          0.5110   -2.5230    0.1200 hc        1 0V5      0.000700
@<TRIPOS>BOND
     1    1    2 1   
     2    1    3 1   
     3    1    4 1   
     4    4    5 1   
     5    4    6 1   
     6    4   11 1   
     7    5   12 1   
     8    5   13 1   
     9    5   14 1   
    10    6    7 1   
    11    7    8 1   
    12    7    9 1   
    13    7   10 1   
@<TRIPOS>SUBSTRUCTURE
     1 0V5         1 TEMP              0 ****  ****    0 ROOT
