@<TRIPOS>MOLECULE
0V6
   42    44     1     0     0
SMALL
bcc


@<TRIPOS>ATOM
      1 C2          1.3250    0.6500   -0.4270 cc        1 0V6     -0.167400
      2 S1          0.3060   -0.6360   -0.7570 ss        1 0V6      0.102200
      3 C3          0.6370    1.6540    0.2420 cd        1 0V6     -0.013600
      4 C4         -0.7330    1.3190    0.4680 cd        1 0V6     -0.136000
      5 C5         -1.0390    0.0690   -0.0430 cc        1 0V6     -0.060100
      6 C6          3.1930   -0.7080   -1.3800 c3        1 0V6     -0.159400
      7 C7          3.4880   -1.7020   -0.2830 c         1 0V6      0.703500
      8 N8          3.8060   -1.2380    0.9940 n         1 0V6     -0.391300
      9 C9          4.0070    0.1590    1.2580 c2        1 0V6      0.654800
     10 N10         3.6860    1.0850    0.2050 nh        1 0V6     -0.837200
     11 C11         2.7700    0.6790   -0.8550 c3        1 0V6      0.299500
     12 C12         2.8740    1.6630   -2.0430 c3        1 0V6     -0.091100
     13 CL          1.2670    3.1290    0.7530 cl        1 0V6     -0.062400
     14 C14        -2.3280   -0.5710    0.0060 ca        1 0V6     -0.129300
     15 C15        -3.5130    0.1790    0.0490 ca        1 0V6     -0.061000
     16 C16        -4.7460   -0.4890    0.0970 ca        1 0V6     -0.074300
     17 C17        -4.7380   -1.9060    0.0980 ca        1 0V6      0.417200
     18 N18        -3.6110   -2.6380    0.0570 nb        1 0V6     -0.656000
     19 C19        -2.4380   -1.9830    0.0140 ca        1 0V6      0.403200
     20 O21         3.4400   -2.9250   -0.5140 o         1 0V6     -0.620500
     21 C22         4.1200   -2.1830    2.0410 c3        1 0V6      0.086300
     22 C23        -5.9560    0.2190    0.1410 cg        1 0V6     -0.140000
     23 C24        -6.9920    0.8210    0.1800 c1        1 0V6     -0.092100
     24 C25        -8.2240    1.5360    0.2260 c3        1 0V6     -0.024000
     25 H1         -1.4330    1.9770    0.9900 ha        1 0V6      0.170000
     26 H2          4.1270   -0.6050   -1.9980 hc        1 0V6      0.094200
     27 H3          2.3930   -1.1310   -2.0440 hc        1 0V6      0.094200
     28 H4          3.4870    2.0070    0.5410 hn        1 0V6      0.414800
     29 H5          2.5150    2.6770   -1.7450 hc        1 0V6      0.053033
     30 H6          3.9300    1.7410   -2.3960 hc        1 0V6      0.053033
     31 H7          2.2370    1.2870   -2.8780 hc        1 0V6      0.053033
     32 H11        -3.4760    1.2790    0.0410 ha        1 0V6      0.150000
     33 H12        -5.6850   -2.4750    0.1340 h4        1 0V6      0.033100
     34 H13        -1.5320   -2.6190   -0.0100 h4        1 0V6      0.029100
     35 H14         4.6350    1.4910    2.5510 hn        1 0V6      0.400400
     36 H15         5.2160   -2.1500    2.2820 h1        1 0V6      0.059700
     37 H16         3.5350   -1.9300    2.9640 h1        1 0V6      0.059700
     38 H17         3.8480   -3.2180    1.7010 h1        1 0V6      0.059700
     39 H18        -9.0080    1.0070   -0.3760 hc        1 0V6      0.060367
     40 H19        -8.5880    1.6230    1.2830 hc        1 0V6      0.060367
     41 H20        -8.0950    2.5690   -0.1900 hc        1 0V6      0.060367
     42 N20         4.5370    0.5100    2.4040 n2        1 0V6     -0.857100
@<TRIPOS>BOND
     1    1    2 1   
     2    1    3 2   
     3    1   11 1   
     4    2    5 1   
     5    3    4 1   
     6    3   13 1   
     7    4    5 2   
     8    4   25 1   
     9    5   14 1   
    10    6    7 1   
    11    6   11 1   
    12    6   26 1   
    13    6   27 1   
    14    7    8 1   
    15    7   20 2   
    16    8    9 1   
    17    8   21 1   
    18    9   10 1   
    19    9   42 2   
    20   10   11 1   
    21   10   28 1   
    22   11   12 1   
    23   12   29 1   
    24   12   30 1   
    25   12   31 1   
    26   14   15 ar  
    27   14   19 ar  
    28   15   16 ar  
    29   15   32 1   
    30   16   17 ar  
    31   16   22 1   
    32   17   18 ar  
    33   17   33 1   
    34   18   19 ar  
    35   19   34 1   
    36   21   36 1   
    37   21   37 1   
    38   21   38 1   
    39   22   23 3   
    40   23   24 1   
    41   24   39 1   
    42   24   40 1   
    43   24   41 1   
    44   35   42 1   
@<TRIPOS>SUBSTRUCTURE
     1 0V6         1 TEMP              0 ****  ****    0 ROOT
