@<TRIPOS>MOLECULE
0V6
   42    44     1     0     0
SMALL
bcc


@<TRIPOS>ATOM
      1 C2         -0.0070    0.2250    0.2220 cc        1 0V6     -0.168400
      2 S1          1.6510    0.0240    0.3570 ss        1 0V6      0.086200
      3 C3         -0.5600    0.5410    1.4550 cd        1 0V6     -0.006600
      4 C4          0.4240    0.6160    2.4900 cd        1 0V6     -0.137000
      5 C5          1.6920    0.3460    2.0040 cc        1 0V6     -0.058100
      6 C6          0.2510   -0.1250   -2.2390 c3        1 0V6     -0.156400
      7 C7          0.7970    1.1780   -2.7760 c         1 0V6      0.709500
      8 N8          0.1290    2.3680   -2.4900 n         1 0V6     -0.434300
      9 C9         -1.0790    2.4030   -1.7010 c2        1 0V6      0.652800
     10 N10        -1.6710    1.1300   -1.3960 nh        1 0V6     -0.777200
     11 C11        -0.7500    0.0380   -1.0760 c3        1 0V6      0.290500
     12 C12        -1.5350   -1.2890   -0.9680 c3        1 0V6     -0.091100
     13 CL         -2.1860    0.8160    1.7800 cl        1 0V6     -0.050400
     14 C14         2.9080    0.3300    2.7760 ca        1 0V6     -0.128300
     15 C15         2.8960    0.0350    4.1470 ca        1 0V6     -0.061000
     16 C16         4.1060    0.0320    4.8580 ca        1 0V6     -0.074300
     17 C17         5.2980    0.3280    4.1490 ca        1 0V6      0.416200
     18 N18         5.3240    0.6120    2.8360 nb        1 0V6     -0.656000
     19 C19         4.1560    0.6130    2.1700 ca        1 0V6      0.402200
     20 O21         1.8270    1.1840   -3.4760 o         1 0V6     -0.626500
     21 C22         0.6180    3.6110   -3.0260 c3        1 0V6      0.064300
     22 C23         4.1440   -0.2560    6.2300 cg        1 0V6     -0.140000
     23 C24         4.1780   -0.5010    7.4030 c1        1 0V6     -0.093100
     24 C25         4.2200   -0.7920    8.7970 c3        1 0V6     -0.024000
     25 H1          0.1840    0.8670    3.5260 ha        1 0V6      0.170000
     26 H2         -0.2610   -0.6400   -3.0980 hc        1 0V6      0.093700
     27 H3          1.1130   -0.7710   -1.9240 hc        1 0V6      0.093700
     28 H4         -2.4180    1.2040   -0.7300 hn        1 0V6      0.429800
     29 H5         -2.2290   -1.2640   -0.0940 hc        1 0V6      0.054033
     30 H6         -2.1270   -1.4710   -1.8960 hc        1 0V6      0.054033
     31 H7         -0.8090   -2.1240   -0.8280 hc        1 0V6      0.054033
     32 H11         1.9500   -0.1940    4.6590 ha        1 0V6      0.150000
     33 H12         6.2740    0.3360    4.6680 h4        1 0V6      0.033100
     34 H13         4.2170    0.8580    1.0930 h4        1 0V6      0.028100
     35 H14        -1.3310    4.3550   -1.6270 hn        1 0V6      0.404400
     36 H15        -0.1740    4.1050   -3.6520 h1        1 0V6      0.057033
     37 H16         0.9160    4.3030   -2.1930 h1        1 0V6      0.057033
     38 H17         1.5180    3.4190   -3.6720 h1        1 0V6      0.057033
     39 H18         5.1980   -1.2670    9.0700 hc        1 0V6      0.060367
     40 H19         4.1030    0.1480    9.3980 hc        1 0V6      0.060367
     41 H20         3.3930   -1.4960    9.0770 hc        1 0V6      0.060367
     42 N20        -1.6960    3.4850   -1.3090 n2        1 0V6     -0.857100
@<TRIPOS>BOND
     1    1    2 1   
     2    1    3 2   
     3    1   11 1   
     4    2    5 1   
     5    3    4 1   
     6    3   13 1   
     7    4    5 2   
     8    4   25 1   
     9    5   14 1   
    10    6    7 1   
    11    6   11 1   
    12    6   26 1   
    13    6   27 1   
    14    7    8 1   
    15    7   20 2   
    16    8    9 1   
    17    8   21 1   
    18    9   10 1   
    19    9   42 2   
    20   10   11 1   
    21   10   28 1   
    22   11   12 1   
    23   12   29 1   
    24   12   30 1   
    25   12   31 1   
    26   14   15 ar  
    27   14   19 ar  
    28   15   16 ar  
    29   15   32 1   
    30   16   17 ar  
    31   16   22 1   
    32   17   18 ar  
    33   17   33 1   
    34   18   19 ar  
    35   19   34 1   
    36   21   36 1   
    37   21   37 1   
    38   21   38 1   
    39   22   23 3   
    40   23   24 1   
    41   24   39 1   
    42   24   40 1   
    43   24   41 1   
    44   35   42 1   
@<TRIPOS>SUBSTRUCTURE
     1 0V6         1 TEMP              0 ****  ****    0 ROOT
