@<TRIPOS>MOLECULE
0V6
   42    44     1     0     0
SMALL
bcc


@<TRIPOS>ATOM
      1 C2         -0.0320    0.2030    0.2070 cc        1 0V6     -0.168400
      2 S1          1.6260   -0.0160    0.3120 ss        1 0V6      0.086200
      3 C3         -0.5610    0.5160    1.4510 cd        1 0V6     -0.006600
      4 C4          0.4410    0.5720    2.4700 cd        1 0V6     -0.137000
      5 C5          1.6980    0.2930    1.9610 cc        1 0V6     -0.058100
      6 C6          0.1820   -0.1300   -2.2610 c3        1 0V6     -0.156400
      7 C7          0.7320    1.1710   -2.7960 c         1 0V6      0.709500
      8 N8          0.0810    2.3660   -2.4900 n         1 0V6     -0.434300
      9 C9         -1.1130    2.4060   -1.6810 c2        1 0V6      0.652800
     10 N10        -1.7120    1.1370   -1.3760 nu        1 0V6     -0.777200
     11 C11        -0.7980    0.0340   -1.0800 c3        1 0V6      0.290500
     12 C12        -1.5950   -1.2860   -0.9690 c3        1 0V6     -0.091100
     13 Cl         -2.1780    0.8040    1.8050 cl        1 0V6     -0.050400
     14 C14         2.9260    0.2590    2.7120 ca        1 0V6     -0.128300
     15 C15         2.9340   -0.0460    4.0820 ca        1 0V6     -0.061000
     16 C16         4.1560   -0.0670    4.7720 ca        1 0V6     -0.074300
     17 C17         5.3380    0.2220    4.0460 ca        1 0V6      0.416200
     18 N18         5.3450    0.5150    2.7340 nb        1 0V6     -0.656000
     19 C19         4.1670    0.5340    2.0880 ca        1 0V6      0.402200
     20 O21         1.7510    1.1730   -3.5130 o         1 0V6     -0.626500
     21 C22         0.5750    3.6080   -3.0250 c3        1 0V6      0.064300
     22 C23         4.2130   -0.3650    6.1410 cg        1 0V6     -0.140000
     23 C24         4.2630   -0.6200    7.3120 c1        1 0V6     -0.093100
     24 C25         4.3240   -0.9220    8.7030 c3        1 0V6     -0.024000
     25 H1          0.2210    0.8170    3.5120 ha        1 0V6      0.170000
     26 H2          1.0430   -0.7880   -1.9650 hc        1 0V6      0.093700
     27 H3         -0.3490   -0.6330   -3.1150 hc        1 0V6      0.093700
     28 H4         -2.4480    1.2140   -0.6970 hn        1 0V6      0.429800
     29 H5         -2.2040   -1.4540   -1.8890 hc        1 0V6      0.054033
     30 H6         -2.2740   -1.2610   -0.0840 hc        1 0V6      0.054033
     31 H7         -0.8750   -2.1300   -0.8480 hc        1 0V6      0.054033
     32 H11         1.9940   -0.2690    4.6080 ha        1 0V6      0.150000
     33 H12         6.3220    0.2160    4.5480 h4        1 0V6      0.033100
     34 H13         4.2120    0.7860    1.0120 h4        1 0V6      0.028100
     35 H14        -1.3440    4.3610   -1.5880 hn        1 0V6      0.404400
     36 H15        -0.2210    4.1150   -3.6340 h1        1 0V6      0.057033
     37 H16         0.8940    4.2910   -2.1910 h1        1 0V6      0.057033
     38 H17         1.4620    3.4120   -3.6860 h1        1 0V6      0.057033
     39 H18         5.3620   -0.7600    9.0950 hc        1 0V6      0.060700
     40 H19         4.0400   -1.9920    8.8850 hc        1 0V6      0.060700
     41 H20         3.6210   -0.2660    9.2790 hc        1 0V6      0.060700
     42 N20        -1.7120    3.4920   -1.2710 n2        1 0V6     -0.857100
@<TRIPOS>BOND
     1    1    2 1   
     2    1    3 2   
     3    1   11 1   
     4    2    5 1   
     5    3    4 1   
     6    3   13 1   
     7    4    5 2   
     8    4   25 1   
     9    5   14 1   
    10    6    7 1   
    11    6   11 1   
    12    6   26 1   
    13    6   27 1   
    14    7    8 1   
    15    7   20 2   
    16    8    9 1   
    17    8   21 1   
    18    9   10 1   
    19    9   42 2   
    20   10   11 1   
    21   10   28 1   
    22   11   12 1   
    23   12   29 1   
    24   12   30 1   
    25   12   31 1   
    26   14   15 ar  
    27   14   19 ar  
    28   15   16 ar  
    29   15   32 1   
    30   16   17 ar  
    31   16   22 1   
    32   17   18 ar  
    33   17   33 1   
    34   18   19 ar  
    35   19   34 1   
    36   21   36 1   
    37   21   37 1   
    38   21   38 1   
    39   22   23 3   
    40   23   24 1   
    41   24   39 1   
    42   24   40 1   
    43   24   41 1   
    44   35   42 1   
@<TRIPOS>SUBSTRUCTURE
     1 0V6         1 TEMP              0 ****  ****    0 ROOT
