@<TRIPOS>MOLECULE
0V6
   42    44     1     0     0
SMALL
bcc


@<TRIPOS>ATOM
      1 C2         -0.0190    0.2000    0.2560 cc        1 0V6     -0.168400
      2 S1          1.6370   -0.0190    0.3810 ss        1 0V6      0.086200
      3 C3         -0.5610    0.5280    1.4910 cd        1 0V6     -0.006600
      4 C4          0.4310    0.5960    2.5190 cd        1 0V6     -0.137000
      5 C5          1.6920    0.3100    2.0270 cc        1 0V6     -0.058100
      6 C6          0.2200   -0.1630   -2.2050 c3        1 0V6     -0.156400
      7 C7          0.7770    1.1310   -2.7510 c         1 0V6      0.709500
      8 N8          0.1250    2.3300   -2.4660 n         1 0V6     -0.434300
      9 C9         -1.0770    2.3820   -1.6700 c2        1 0V6      0.652800
     10 N10        -1.6820    1.1170   -1.3560 nh        1 0V6     -0.777200
     11 C11        -0.7720    0.0160   -1.0370 c3        1 0V6      0.290500
     12 C12        -1.5720   -1.3010   -0.9180 c3        1 0V6     -0.091100
     13 CL         -2.1810    0.8230    1.8250 cl        1 0V6     -0.050400
     14 C14         2.9120    0.2830    2.7910 ca        1 0V6     -0.128300
     15 C15         2.9060   -0.0040    4.1640 ca        1 0V6     -0.061000
     16 C16         4.1200   -0.0180    4.8680 ca        1 0V6     -0.074300
     17 C17         5.3110    0.2600    4.1500 ca        1 0V6      0.416200
     18 N18         5.3320    0.5360    2.8340 nb        1 0V6     -0.656000
     19 C19         4.1600    0.5480    2.1760 ca        1 0V6      0.402200
     20 O21         1.8030    1.1220   -3.4570 o         1 0V6     -0.626500
     21 C22         0.6260    3.5650   -3.0100 c3        1 0V6      0.064300
     22 C23         4.1630   -0.2990    6.2410 cg        1 0V6     -0.140000
     23 C24         4.2010   -0.5380    7.4150 c1        1 0V6     -0.093100
     24 C25         4.2480   -0.8220    8.8110 c3        1 0V6     -0.024000
     25 H1          0.2000    0.8540    3.5560 ha        1 0V6      0.170000
     26 H2         -0.3040   -0.6760   -3.0590 hc        1 0V6      0.093700
     27 H3          1.0760   -0.8180   -1.8920 hc        1 0V6      0.093700
     28 H4         -2.4250    1.2030   -0.6850 hn        1 0V6      0.429800
     29 H5         -2.2610   -1.2640   -0.0400 hc        1 0V6      0.054033
     30 H6         -2.1720   -1.4800   -1.8420 hc        1 0V6      0.054033
     31 H7         -0.8560   -2.1440   -0.7790 hc        1 0V6      0.054033
     32 H11         1.9600   -0.2190    4.6830 ha        1 0V6      0.150000
     33 H12         6.2900    0.2590    4.6620 h4        1 0V6      0.033100
     34 H13         4.2170    0.7860    1.0970 h4        1 0V6      0.028100
     35 H14        -1.3060    4.3380   -1.6030 hn        1 0V6      0.404400
     36 H15        -0.1640    4.0660   -3.6340 h1        1 0V6      0.057033
     37 H16         0.9370    4.2570   -2.1820 h1        1 0V6      0.057033
     38 H17         1.5190    3.3590   -3.6600 h1        1 0V6      0.057033
     39 H18         5.3100   -0.9030    9.1600 hc        1 0V6      0.060367
     40 H19         3.7440   -0.0080    9.3940 hc        1 0V6      0.060367
     41 H20         3.7270   -1.7900    9.0320 hc        1 0V6      0.060367
     42 N20        -1.6790    3.4740   -1.2780 n2        1 0V6     -0.857100
@<TRIPOS>BOND
     1    1    2 1   
     2    1    3 2   
     3    1   11 1   
     4    2    5 1   
     5    3    4 1   
     6    3   13 1   
     7    4    5 2   
     8    4   25 1   
     9    5   14 1   
    10    6    7 1   
    11    6   11 1   
    12    6   26 1   
    13    6   27 1   
    14    7    8 1   
    15    7   20 2   
    16    8    9 1   
    17    8   21 1   
    18    9   10 1   
    19    9   42 2   
    20   10   11 1   
    21   10   28 1   
    22   11   12 1   
    23   12   29 1   
    24   12   30 1   
    25   12   31 1   
    26   14   15 ar  
    27   14   19 ar  
    28   15   16 ar  
    29   15   32 1   
    30   16   17 ar  
    31   16   22 1   
    32   17   18 ar  
    33   17   33 1   
    34   18   19 ar  
    35   19   34 1   
    36   21   36 1   
    37   21   37 1   
    38   21   38 1   
    39   22   23 3   
    40   23   24 1   
    41   24   39 1   
    42   24   40 1   
    43   24   41 1   
    44   35   42 1   
@<TRIPOS>SUBSTRUCTURE
     1 0V6         1 TEMP              0 ****  ****    0 ROOT
