@<TRIPOS>MOLECULE
0V6
   42    36     1     0     0
SMALL
bcc


@<TRIPOS>ATOM
      1 C2         -1.6310    0.9310   -0.2870 c1        1 0V6     -0.375500
      2 S1         -0.0740    0.8710   -0.2720 ss        1 0V6      0.629000
      3 C3         -2.0930    0.8870    1.0890 c1        1 0V6     -0.112500
      4 C4         -0.8170    0.7960    2.0430 c1        1 0V6     -0.112500
      5 C5          0.3780    0.7880    1.2100 c1        1 0V6     -0.375500
      6 C6         -3.6300   -0.0550   -1.3850 c3        1 0V6     -0.175000
      7 C7         -3.3540   -1.3510   -2.1280 c2        1 0V6      0.322000
      8 N8         -2.4760   -1.3540   -3.2500 n         1 0V6     -0.325000
      9 C9         -1.4940   -0.3270   -3.3910 c2        1 0V6      0.205000
     10 N10        -1.6530    0.9120   -2.7010 n3        1 0V6     -0.285000
     11 C11        -2.5280    0.9930   -1.5520 c2        1 0V6      0.131000
     12 C12        -3.2080    2.3850   -1.5840 c3        1 0V6     -0.212000
     13 CL         -3.7480    0.9900    1.6110 cl        1 0V6      0.024000
     14 C14         1.7750    1.0690    1.7510 c1        1 0V6     -0.062000
     15 C15         2.5080    0.0600    2.3030 c2        1 0V6     -0.060000
     16 C16         3.7310    0.3250    2.8470 c1        1 0V6     -0.005000
     17 C17         4.2290    1.6240    2.8390 c2        1 0V6     -0.049000
     18 N18         3.4970    2.6310    2.2870 n1        1 0V6     -0.130000
     19 C19         2.2760    2.3680    1.7430 c1        1 0V6     -0.063000
     20 N20        -0.4570   -0.5190   -4.1500 n1        1 0V6     -0.338000
     21 O21        -3.9560   -2.3660   -1.8250 o         1 0V6     -0.346000
     22 C22        -2.5450   -2.4190   -4.2130 c3        1 0V6     -0.090000
     23 C23         4.5790   -0.8090    3.3970 c1        1 0V6     -0.131500
     24 C24         5.2400   -1.6960    3.8260 c1        1 0V6     -0.131500
     25 C25         6.0780   -2.8200    4.3690 c2        1 0V6     -0.115000
     26 H1         -0.8340    0.7530    3.0130 DU        1 0V6      0.166000
     27 H2         -3.8420   -0.2960   -0.4700 hc        1 0V6      0.137500
     28 H3         -4.4090    0.3680   -1.7780 hc        1 0V6      0.137500
     29 H4         -1.2500    1.6670   -3.0200 hn        1 0V6      0.223000
     30 H5         -3.5930    2.5820   -0.7030 hc        1 0V6      0.095000
     31 H6         -3.9150    2.3880   -2.2550 hc        1 0V6      0.095000
     32 H7         -2.5370    3.0730   -1.8110 hc        1 0V6      0.095000
     33 H11         2.1570   -0.8530    2.3080 ha        1 0V6      0.151000
     34 H12         5.1000    1.8130    3.2260 h4        1 0V6      0.170000
     35 H13         1.7600    3.0810    1.3540 ha        1 0V6      0.164000
     36 H14        -0.3570   -1.3100   -4.5910 DU        1 0V6      0.166000
     37 H15        -3.4550   -2.7970   -4.2210 h1        1 0V6      0.096000
     38 H16        -1.8940   -3.1280   -3.9700 h1        1 0V6      0.096000
     39 H17        -2.3270   -2.0650   -5.1130 h1        1 0V6      0.096000
     40 H18         6.3700   -2.6010    5.2620 ha        1 0V6      0.099667
     41 H19         6.8520   -2.9520    3.7990 ha        1 0V6      0.099667
     42 H20         5.5490   -3.6370    4.3920 ha        1 0V6      0.099667
@<TRIPOS>BOND
     1    1    2 1   
     2    1    3 1   
     3    2    5 1   
     4    3    4 1   
     5    4    5 1   
     6    6    7 1   
     7    6   11 1   
     8    6   27 1   
     9    6   28 1   
    10    7    8 1   
    11    7   21 1   
    12    8    9 1   
    13    8   22 1   
    14    9   10 1   
    15    9   20 1   
    16   10   11 1   
    17   10   29 1   
    18   11   12 1   
    19   12   30 1   
    20   12   31 1   
    21   12   32 1   
    22   14   15 1   
    23   14   19 1   
    24   15   16 1   
    25   15   33 1   
    26   16   17 1   
    27   17   18 1   
    28   17   34 1   
    29   19   35 1   
    30   22   37 1   
    31   22   38 1   
    32   22   39 1   
    33   23   24 1   
    34   25   40 1   
    35   25   41 1   
    36   25   42 1   
@<TRIPOS>SUBSTRUCTURE
     1 0V6         1 TEMP              0 ****  ****    0 ROOT
