@<TRIPOS>MOLECULE
0V7
   26    21     1     0     0
SMALL
bcc


@<TRIPOS>ATOM
      1 OAC        -3.8740   -2.7850   -1.8420 o         1 0V7     -1.072667
      2 SAO        -2.6820   -2.5650   -2.7370 s4        1 0V7      2.861000
      3 OAA        -2.4950   -3.7240   -3.6940 o         1 0V7     -1.072667
      4 OAB        -2.9200   -1.4270   -3.6940 o         1 0V7     -1.072667
      5 CAJ        -1.2340   -2.2940   -1.7670 c2        1 0V7     -0.867000
      6 CAI        -1.5130   -1.1980   -0.7420 c3        1 0V7     -0.052000
      7 NAL        -0.2310   -0.4860   -0.4010 n3        1 0V7     -0.297000
      8 CAK        -0.5140    0.6690    0.3180 c3        1 0V7     -0.045000
      9 CAN         0.7680    1.1420    1.0480 c1        1 0V7     -0.059000
     10 CAH         0.7290    1.4440    2.4070 c1        1 0V7     -0.165000
     11 CAM         1.8620    1.9810    3.0340 c1        1 0V7      0.074000
     12 FAD         1.7860    2.4050    4.3030 f         1 0V7     -0.122000
     13 CAF         3.0380    2.2150    2.2850 c1        1 0V7     -0.179000
     14 CAE         3.0690    1.9140    0.9400 c1        1 0V7     -0.122500
     15 CAG         1.9380    1.3770    0.3130 c1        1 0V7     -0.122500
     16 H1         -0.9950   -3.1130   -1.3090 ha        1 0V7      0.100500
     17 H2         -0.5140   -2.0240   -2.3370 ha        1 0V7      0.100500
     18 H3         -1.8960   -1.6100    0.0870 h1        1 0V7      0.103500
     19 H4         -2.1620   -0.5480   -1.1210 h1        1 0V7      0.103500
     20 H5          0.2050   -0.2640   -1.1640 hn        1 0V7      0.146000
     21 H7         -0.8130    1.3630   -0.2930 h1        1 0V7      0.090000
     22 H8         -1.2060    0.4880    0.9620 h1        1 0V7      0.090000
     23 H9         -0.0630    1.2050    2.9410 ha        1 0V7      0.143000
     24 H10         3.8570    2.6020    2.7330 ha        1 0V7      0.136000
     25 H11         3.8950    2.0780    0.4160 ha        1 0V7      0.150000
     26 H12         1.9660    1.1550   -0.6850 ha        1 0V7      0.150000
@<TRIPOS>BOND
     1    1    2 1   
     2    2    3 1   
     3    2    4 1   
     4    5    6 1   
     5    5   16 1   
     6    5   17 1   
     7    6    7 1   
     8    6   18 1   
     9    6   19 1   
    10    7    8 1   
    11    7   20 1   
    12    8    9 1   
    13    8   21 1   
    14    8   22 1   
    15    9   10 1   
    16   10   23 1   
    17   11   13 1   
    18   13   24 1   
    19   14   15 1   
    20   14   25 1   
    21   15   26 1   
@<TRIPOS>SUBSTRUCTURE
     1 0V7         1 TEMP              0 ****  ****    0 ROOT
