@<TRIPOS>MOLECULE
0V7
   27    27     1     0     0
SMALL
bcc


@<TRIPOS>ATOM
      1 OAC         0.1650    0.2000   -0.0040 o         1 0V7     -0.722867
      2 SAO         1.5500    0.1120    0.0430 s6        1 0V7      1.444800
      3 OAA         2.1350   -0.1620    1.2850 o         1 0V7     -0.722867
      4 OAB         2.2800    0.9900   -0.7660 o         1 0V7     -0.722867
      5 CAJ         1.8870   -1.5220   -0.8480 c3        1 0V7     -0.305600
      6 CAI         3.3550   -1.7170   -0.8340 c3        1 0V7      0.163800
      7 NAL         3.7640   -3.0120   -1.4950 n4        1 0V7     -0.770000
      8 CAK         5.2370   -3.2190   -1.4670 c3        1 0V7      0.155100
      9 CAN         5.6360   -4.4960   -2.1330 ca        1 0V7     -0.137300
     10 CAH         5.6910   -4.5550   -3.5270 ca        1 0V7     -0.156000
     11 CAM         6.0910   -5.7500   -4.1500 ca        1 0V7      0.139900
     12 FAD         6.1460   -5.8170   -5.5000 f         1 0V7     -0.122900
     13 CAF         6.4340   -6.8760   -3.3740 ca        1 0V7     -0.135000
     14 CAE         6.3740   -6.7930   -1.9870 ca        1 0V7     -0.098000
     15 CAG         5.9750   -5.6110   -1.3620 ca        1 0V7     -0.117000
     16 H1          1.4600   -1.4130   -1.8670 h1        1 0V7      0.083200
     17 H2          1.3260   -2.2980   -0.2860 h1        1 0V7      0.083200
     18 H3          3.8690   -0.8770   -1.3890 hx        1 0V7      0.112200
     19 H4          3.7370   -1.7460    0.2300 hx        1 0V7      0.112200
     20 H5          3.4330   -3.0070   -2.4650 hn        1 0V7      0.436800
     21 H7          5.7180   -2.3390   -1.9870 hx        1 0V7      0.107700
     22 H8          5.5670   -3.2100   -0.3880 hx        1 0V7      0.107700
     23 H9          5.4440   -3.6780   -4.1450 ha        1 0V7      0.155000
     24 H10         6.7480   -7.8050   -3.8750 ha        1 0V7      0.165000
     25 H11         6.6460   -7.6700   -1.3770 ha        1 0V7      0.156000
     26 H12         5.9400   -5.5590   -0.2630 ha        1 0V7      0.148000
     27 HAL2        3.2950   -3.7860   -1.0150 hn        1 0V7      0.436800
@<TRIPOS>BOND
     1    1    2 1   
     2    2    3 1   
     3    2    4 1   
     4    2    5 1   
     5    5    6 1   
     6    5   16 1   
     7    5   17 1   
     8    6    7 1   
     9    6   18 1   
    10    6   19 1   
    11    7    8 1   
    12    7   20 1   
    13    7   27 1   
    14    8    9 1   
    15    8   21 1   
    16    8   22 1   
    17    9   10 ar  
    18    9   15 ar  
    19   10   11 ar  
    20   10   23 1   
    21   11   12 1   
    22   11   13 ar  
    23   13   14 ar  
    24   13   24 1   
    25   14   15 ar  
    26   14   25 1   
    27   15   26 1   
@<TRIPOS>SUBSTRUCTURE
     1 0V7         1 TEMP              0 ****  ****    0 ROOT
