@<TRIPOS>MOLECULE
0V7
   27    27     1     0     0
SMALL
bcc


@<TRIPOS>ATOM
      1 OAC         0.1620    0.1980   -0.0090 o         1 0V7     -0.722533
      2 SAO         1.5470    0.1120    0.0370 s6        1 0V7      1.444800
      3 OAA         2.1340   -0.1590    1.2780 o         1 0V7     -0.722533
      4 OAB         2.2740    0.9910   -0.7740 o         1 0V7     -0.722533
      5 CAJ         1.8850   -1.5220   -0.8530 c3        1 0V7     -0.305600
      6 CAI         3.3540   -1.7160   -0.8390 c3        1 0V7      0.163800
      7 NAL         3.7640   -3.0110   -1.4970 n4        1 0V7     -0.770000
      8 CAK         5.2370   -3.2170   -1.4690 c3        1 0V7      0.155100
      9 CAN         5.6370   -4.4960   -2.1310 ca        1 0V7     -0.137300
     10 CAH         5.7000   -4.5560   -3.5250 ca        1 0V7     -0.156000
     11 CAM         6.1010   -5.7530   -4.1440 ca        1 0V7      0.139900
     12 FAD         6.1640   -5.8210   -5.4930 f         1 0V7     -0.122900
     13 CAF         6.4370   -6.8790   -3.3660 ca        1 0V7     -0.135000
     14 CAE         6.3700   -6.7940   -1.9790 ca        1 0V7     -0.098000
     15 CAG         5.9690   -5.6110   -1.3570 ca        1 0V7     -0.117000
     16 H1          1.3250   -2.2980   -0.2900 h1        1 0V7      0.083200
     17 H2          1.4580   -1.4150   -1.8710 h1        1 0V7      0.083200
     18 H3          3.8670   -0.8760   -1.3950 hx        1 0V7      0.111700
     19 H4          3.7350   -1.7430    0.2260 hx        1 0V7      0.111700
     20 H5          3.4330   -3.0080   -2.4670 hn        1 0V7      0.436800
     21 H7          5.5670   -3.2050   -0.3890 hx        1 0V7      0.107700
     22 H8          5.7180   -2.3380   -1.9910 hx        1 0V7      0.107700
     23 H9          5.4580   -3.6790   -4.1440 ha        1 0V7      0.155000
     24 H10         6.7520   -7.8090   -3.8630 ha        1 0V7      0.165000
     25 H11         6.6360   -7.6700   -1.3660 ha        1 0V7      0.156000
     26 H12         5.9280   -5.5570   -0.2580 ha        1 0V7      0.148000
     27 HAL2        3.2950   -3.7850   -1.0170 hn        1 0V7      0.436800
@<TRIPOS>BOND
     1    1    2 1   
     2    2    3 1   
     3    2    4 1   
     4    2    5 1   
     5    5    6 1   
     6    5   16 1   
     7    5   17 1   
     8    6    7 1   
     9    6   18 1   
    10    6   19 1   
    11    7    8 1   
    12    7   20 1   
    13    7   27 1   
    14    8    9 1   
    15    8   21 1   
    16    8   22 1   
    17    9   10 ar  
    18    9   15 ar  
    19   10   11 ar  
    20   10   23 1   
    21   11   12 1   
    22   11   13 ar  
    23   13   14 ar  
    24   13   24 1   
    25   14   15 ar  
    26   14   25 1   
    27   15   26 1   
@<TRIPOS>SUBSTRUCTURE
     1 0V7         1 TEMP              0 ****  ****    0 ROOT
