@<TRIPOS>MOLECULE
0V7
   26    26     1     0     0
SMALL
bcc


@<TRIPOS>ATOM
      1 OAC        -4.3230    1.5530   -0.3620 o         1 0V7     -0.750533
      2 SAO        -3.8370    0.3420    0.1850 s6        1 0V7      1.431800
      3 OAA        -3.8140    0.3180    1.5990 o         1 0V7     -0.750533
      4 OAB        -4.3940   -0.8180   -0.4020 o         1 0V7     -0.750533
      5 CAJ        -2.1170    0.3210   -0.2990 c3        1 0V7     -0.325600
      6 CAI        -1.4000   -0.9030    0.2240 c3        1 0V7      0.185800
      7 NAL         0.0090   -1.0400   -0.1010 n3        1 0V7     -0.817200
      8 CAK         0.8600   -0.1020    0.6090 c3        1 0V7      0.194100
      9 CAN         2.3170   -0.2330    0.2640 ca        1 0V7     -0.045300
     10 CAH         3.0780    0.9190    0.0580 ca        1 0V7     -0.165000
     11 CAM         4.4510    0.8040   -0.2220 ca        1 0V7      0.110900
     12 FAD         5.1950    1.9220   -0.4190 f         1 0V7     -0.154900
     13 CAF         5.0610   -0.4610   -0.3020 ca        1 0V7     -0.180000
     14 CAE         4.2850   -1.5990   -0.0980 ca        1 0V7     -0.118000
     15 CAG         2.9250   -1.4920    0.1850 ca        1 0V7     -0.125000
     16 H1         -2.0650    0.3580   -1.4120 h1        1 0V7      0.063200
     17 H2         -1.6390    1.2520    0.0860 h1        1 0V7      0.063200
     18 H3         -1.5120   -0.9330    1.3460 h1        1 0V7      0.064200
     19 H4         -1.9080   -1.8200   -0.1970 h1        1 0V7      0.064200
     20 H5          0.1410   -0.9250   -1.0900 hn        1 0V7      0.346800
     21 H7          0.5420    0.9720    0.4480 h1        1 0V7      0.044700
     22 H8          0.7470   -0.3130    1.7140 h1        1 0V7      0.044700
     23 H9          2.6160    1.9160    0.1110 ha        1 0V7      0.150000
     24 H10         6.1330   -0.5380   -0.5250 ha        1 0V7      0.135000
     25 H11         4.7540   -2.5920   -0.1610 ha        1 0V7      0.127000
     26 H12         2.3200   -2.3980    0.3460 ha        1 0V7      0.157000
@<TRIPOS>BOND
     1    1    2 1   
     2    2    3 1   
     3    2    4 1   
     4    2    5 1   
     5    5    6 1   
     6    5   16 1   
     7    5   17 1   
     8    6    7 1   
     9    6   18 1   
    10    6   19 1   
    11    7    8 1   
    12    7   20 1   
    13    8    9 1   
    14    8   21 1   
    15    8   22 1   
    16    9   10 ar  
    17    9   15 ar  
    18   10   11 ar  
    19   10   23 1   
    20   11   12 1   
    21   11   13 ar  
    22   13   14 ar  
    23   13   24 1   
    24   14   15 ar  
    25   14   25 1   
    26   15   26 1   
@<TRIPOS>SUBSTRUCTURE
     1 0V7         1 TEMP              0 ****  ****    0 ROOT
