@<TRIPOS>MOLECULE
0V7
   27    27     1     0     0
SMALL
bcc


@<TRIPOS>ATOM
      1 OAC         0.1680    0.2120   -0.0230 o         1 0V7     -0.722867
      2 SAO         1.5530    0.1200    0.0300 s6        1 0V7      1.444800
      3 OAA         2.1320   -0.1550    1.2750 o         1 0V7     -0.722867
      4 OAB         2.2880    0.9970   -0.7760 o         1 0V7     -0.722867
      5 CAJ         1.8880   -1.5150   -0.8600 c3        1 0V7     -0.305600
      6 CAI         3.3570   -1.7140   -0.8400 c3        1 0V7      0.163800
      7 NAL         3.7640   -3.0100   -1.4980 ny        1 0V7     -0.770000
      8 CAK         5.2370   -3.2200   -1.4640 c3        1 0V7      0.155100
      9 CAN         5.6350   -4.5000   -2.1270 ca        1 0V7     -0.137300
     10 CAH         5.7000   -4.5590   -3.5210 ca        1 0V7     -0.156000
     11 CAM         6.0990   -5.7570   -4.1410 ca        1 0V7      0.139900
     12 FAD         6.1650   -5.8240   -5.4890 f         1 0V7     -0.122900
     13 CAF         6.4310   -6.8840   -3.3620 ca        1 0V7     -0.135000
     14 CAE         6.3610   -6.8010   -1.9760 ca        1 0V7     -0.098000
     15 CAG         5.9630   -5.6170   -1.3530 ca        1 0V7     -0.117000
     16 H1          1.4660   -1.4050   -1.8800 h1        1 0V7      0.083200
     17 H2          1.3230   -2.2890   -0.3000 h1        1 0V7      0.083200
     18 H3          3.8750   -0.8750   -1.3920 hx        1 0V7      0.111700
     19 H4          3.7340   -1.7440    0.2260 hx        1 0V7      0.111700
     20 H5          3.4380   -3.0040   -2.4690 hn        1 0V7      0.436800
     21 H7          5.7230   -2.3430   -1.9830 hx        1 0V7      0.107700
     22 H8          5.5620   -3.2120   -0.3840 hx        1 0V7      0.107700
     23 H9          5.4620   -3.6810   -4.1400 ha        1 0V7      0.155000
     24 H10         6.7450   -7.8150   -3.8600 ha        1 0V7      0.165000
     25 H11         6.6240   -7.6780   -1.3630 ha        1 0V7      0.156000
     26 H12         5.9190   -5.5640   -0.2540 ha        1 0V7      0.148000
     27 HAL2        3.2910   -3.7830   -1.0200 hn        1 0V7      0.436800
@<TRIPOS>BOND
     1    1    2 1   
     2    2    3 1   
     3    2    4 1   
     4    2    5 1   
     5    5    6 1   
     6    5   16 1   
     7    5   17 1   
     8    6    7 1   
     9    6   18 1   
    10    6   19 1   
    11    7    8 1   
    12    7   20 1   
    13    7   27 1   
    14    8    9 1   
    15    8   21 1   
    16    8   22 1   
    17    9   10 ar  
    18    9   15 ar  
    19   10   11 ar  
    20   10   23 1   
    21   11   12 1   
    22   11   13 ar  
    23   13   14 ar  
    24   13   24 1   
    25   14   15 ar  
    26   14   25 1   
    27   15   26 1   
@<TRIPOS>SUBSTRUCTURE
     1 0V7         1 TEMP              0 ****  ****    0 ROOT
