@<TRIPOS>MOLECULE
0V8
   26    26     1     0     0
SMALL
bcc


@<TRIPOS>ATOM
      1 CAE         2.7890    2.5520   -0.1390 ca        1 0V8     -0.141000
      2 CAF         3.7270    1.5300   -0.2750 ca        1 0V8     -0.118000
      3 CAG         1.4550    2.2550    0.1350 ca        1 0V8     -0.097000
      4 CAH         1.9860   -0.1040    0.1310 ca        1 0V8     -0.105000
      5 CAI        -2.7270    1.0280    0.1730 c3        1 0V8      0.185800
      6 CAJ        -3.2540   -0.3180   -0.2690 c3        1 0V8     -0.325600
      7 CAM         3.3220    0.2000   -0.1380 ca        1 0V8     -0.027900
      8 CAN         1.0460    0.9230    0.2710 ca        1 0V8     -0.069300
      9 NAL        -1.3490    1.3470   -0.1580 n3        1 0V8     -0.818200
     10 OAA        -5.2590   -1.8560   -0.2580 o         1 0V8     -0.750533
     11 OAB        -4.9560   -0.4390    1.6200 o         1 0V8     -0.750533
     12 OAC        -5.6690    0.4730   -0.4510 o         1 0V8     -0.750533
     13 SAO        -4.9590   -0.5560    0.2100 s6        1 0V8      1.431800
     14 BR          4.5800   -1.1810   -0.3190 br        1 0V8     -0.117100
     15 H1          3.1060    3.6000   -0.2490 ha        1 0V8      0.128000
     16 H2          4.7780    1.7760   -0.4900 ha        1 0V8      0.134000
     17 H3          0.7170    3.0650    0.2420 ha        1 0V8      0.157000
     18 H4          1.6620   -1.1530    0.2340 ha        1 0V8      0.149000
     19 H5         -3.3580    1.8330   -0.3070 h1        1 0V8      0.064200
     20 H6         -2.8530    1.1130    1.2920 h1        1 0V8      0.064200
     21 H7         -3.1840   -0.4190   -1.3770 h1        1 0V8      0.063200
     22 H8         -2.6510   -1.1430    0.1770 h1        1 0V8      0.063200
     23 H9         -0.5240   -0.5310    0.4930 h1        1 0V8      0.044700
     24 H10        -0.5420    0.8260    1.6980 h1        1 0V8      0.044700
     25 H11        -1.1930    1.1940   -1.1390 hn        1 0V8      0.346800
     26 CAK        -0.3780    0.5850    0.6070 c3        1 0V8      0.195100
@<TRIPOS>BOND
     1    1    2 ar  
     2    1    3 ar  
     3    1   15 1   
     4    2    7 ar  
     5    2   16 1   
     6    3    8 ar  
     7    3   17 1   
     8    4    7 ar  
     9    4    8 ar  
    10    4   18 1   
    11    5    6 1   
    12    5    9 1   
    13    5   19 1   
    14    5   20 1   
    15    6   13 1   
    16    6   21 1   
    17    6   22 1   
    18    7   14 1   
    19    8   26 1   
    20    9   25 1   
    21    9   26 1   
    22   10   13 1   
    23   11   13 1   
    24   12   13 1   
    25   23   26 1   
    26   24   26 1   
@<TRIPOS>SUBSTRUCTURE
     1 0V8         1 TEMP              0 ****  ****    0 ROOT
