@<TRIPOS>MOLECULE
0V8
   27    25     1     0     0
SMALL
bcc


@<TRIPOS>ATOM
      1 CAE        -0.8420    1.7080    1.5030 c2        1 0V8     -0.172000
      2 CAF         1.4110    1.6290    1.9820 c1        1 0V8      0.288000
      3 CAG        -0.6000    0.3860    1.4520 c2        1 0V8     -0.157000
      4 CAH         0.8590   -0.3970    3.2830 c1        1 0V8      0.005000
      5 CAI         0.4330   -2.2930    6.1530 c2        1 0V8     -0.244000
      6 CAJ        -0.6560   -1.9730    6.8410 c2        1 0V8     -0.244000
      7 CAM         1.6860    0.6930    2.9090 c2        1 0V8     -0.526000
      8 CAN        -0.4820   -0.4650    2.6700 c3        1 0V8     -0.213000
      9 NAL        -2.5050   -3.4800    4.6080 n3        1 0V8     -0.977000
     10 OAA        -4.3940   -2.6500    3.2560 o         1 0V8     -0.933000
     11 OAB        -2.9770   -1.0750    4.4310 o         1 0V8     -0.933000
     12 OAC        -2.2140   -2.1540    2.4030 os        1 0V8     -0.711000
     13 SAO        -3.1640   -2.2970    3.7900 s6        1 0V8      2.825000
     14 BR          3.3590    0.8420    3.7570 br        1 0V8      0.108000
     15 H1         -0.4570   -0.1290    0.4870 ha        1 0V8      0.145000
     16 H2         -0.8810    2.3270    0.5950 ha        1 0V8      0.135500
     17 H3         -1.0710    2.2380    2.4400 ha        1 0V8      0.135500
     18 H4         -1.1880   -0.0820    3.4810 hc        1 0V8      0.188000
     19 H5         -2.7520   -4.4330    4.5010 hn        1 0V8      0.259000
     20 H6          1.1330   -3.0720    6.4840 ha        1 0V8      0.122750
     21 H7         -1.3490   -1.1810    6.5190 ha        1 0V8      0.122750
     22 H8         -0.9280   -2.4620    7.7860 ha        1 0V8      0.122750
     23 H9         -0.3270   -2.5850    3.1650 h1        1 0V8      0.099500
     24 H10        -0.4870   -2.2360    1.3680 h1        1 0V8      0.099500
     25 H11         0.7220   -1.7820    5.2160 ha        1 0V8      0.122750
     26 CAK        -0.8300   -1.9350    2.3960 c3        1 0V8      0.075000
     27 HAL2       -1.7890   -3.3490    5.2880 hn        1 0V8      0.259000
@<TRIPOS>BOND
     1    1    3 1   
     2    1   16 1   
     3    1   17 1   
     4    2    7 1   
     5    3    8 1   
     6    3   15 1   
     7    4    7 1   
     8    4    8 1   
     9    5    6 1   
    10    5   20 1   
    11    5   25 1   
    12    6   21 1   
    13    6   22 1   
    14    7   14 1   
    15    8   18 1   
    16    8   26 1   
    17    9   13 1   
    18    9   19 1   
    19    9   27 1   
    20   10   13 1   
    21   11   13 1   
    22   12   13 1   
    23   12   26 1   
    24   23   26 1   
    25   24   26 1   
@<TRIPOS>SUBSTRUCTURE
     1 0V8         1 TEMP              0 ****  ****    0 ROOT
