@<TRIPOS>MOLECULE
0V8
   27    24     1     0     0
SMALL
bcc


@<TRIPOS>ATOM
      1 CAE        -0.3370   -0.2580   -1.6670 c1        1 0V8     -0.166000
      2 CAF         1.0730   -0.9020    1.5950 ce        1 0V8     -0.167100
      3 CAG        -1.3070   -0.5270   -1.0210 c1        1 0V8     -0.166000
      4 CAH         1.1470   -1.4660    2.8960 c1        1 0V8      0.102200
      5 CAI        -0.8460   -0.8790    6.3560 c3        1 0V8     -0.085100
      6 CAJ        -1.2390   -2.0650    5.5220 c3        1 0V8     -0.052700
      7 CAM         2.2080   -0.6900    2.3320 ce        1 0V8     -0.196400
      8 CAN        -2.1000    1.2720    3.7000 c1        1 0V8     -0.166000
      9 NAL        -0.1070   -2.7990    4.9420 n4        1 0V8     -0.842600
     10 OAA        -2.4290   -4.3050    5.6220 o         1 0V8     -0.714200
     11 OAB        -1.2710   -3.6480    7.5500 o         1 0V8     -0.714200
     12 OAC        -3.3470   -2.5910    7.0090 o         1 0V8     -0.714200
     13 SAO        -2.2530   -3.3350    6.6130 s6        1 0V8      1.437800
     14 BR          3.8210    0.0350    2.4700 br        1 0V8      0.113300
     15 H1         -2.1770   -0.7630   -0.4590 ha        1 0V8      0.167250
     16 H2          0.5130   -0.0180   -2.2550 ha        1 0V8      0.167250
     17 H3          0.5430   -0.7270    0.6690 ha        1 0V8      0.229000
     18 H4         -2.1720    0.6070    4.5280 ha        1 0V8      0.167250
     19 H5         -0.2800   -0.1160    5.7680 hc        1 0V8      0.050367
     20 H6         -0.2230   -1.1940    7.2310 hc        1 0V8      0.050367
     21 H7         -1.7820   -0.4060    6.7470 hc        1 0V8      0.050367
     22 H8         -1.9210   -1.7530    4.6920 hx        1 0V8      0.090700
     23 H9          0.5460   -3.0300    5.6910 hn        1 0V8      0.453133
     24 H10        -1.9750    2.7010    1.9580 ha        1 0V8      0.167250
     25 H11        -0.4760   -3.6710    4.5490 hn        1 0V8      0.453133
     26 CAK        -2.0280    2.0250    2.7740 c1        1 0V8     -0.166000
     27 HAL2        0.3960   -2.2390    4.1770 hn        1 0V8      0.453133
@<TRIPOS>BOND
     1    1    3 3   
     2    1   16 1   
     3    2    4 2   
     4    2    7 1   
     5    2   17 1   
     6    3   15 1   
     7    4    7 2   
     8    5    6 1   
     9    5   19 1   
    10    5   20 1   
    11    5   21 1   
    12    6    9 1   
    13    6   13 1   
    14    6   22 1   
    15    7   14 1   
    16    8   18 1   
    17    8   26 3   
    18    9   23 1   
    19    9   25 1   
    20    9   27 1   
    21   10   13 1   
    22   11   13 1   
    23   12   13 1   
    24   24   26 1   
@<TRIPOS>SUBSTRUCTURE
     1 0V8         1 TEMP              0 ****  ****    0 ROOT
