@<TRIPOS>MOLECULE
0V8
   27    24     1     0     0
SMALL
bcc


@<TRIPOS>ATOM
      1 CAE        -2.4260   -0.0350   -0.5120 c1        1 0V8     -0.174250
      2 CAF         0.4020   -2.6260    1.7090 cx        1 0V8      0.224500
      3 CAG        -2.4390   -0.4420    0.6130 c1        1 0V8     -0.174250
      4 CAH         1.7230   -2.5800    1.0230 cu        1 0V8     -0.137200
      5 CAI        -0.4030   -1.3270    6.0530 c2        1 0V8      0.301000
      6 CAJ        -0.4550   -2.5580    5.4520 ce        1 0V8     -0.718100
      7 CAM         1.0260   -3.6970    0.8650 cu        1 0V8     -0.175500
      8 CAN        -2.0650    2.2130    5.0020 c1        1 0V8     -0.174250
      9 NAL         0.0620   -1.0720    7.2880 nv        1 0V8     -0.834600
     10 OAA         0.4240   -2.7680    3.0870 os        1 0V8     -0.561500
     11 OAB        -1.4500   -4.1610    3.8240 o         1 0V8     -0.693300
     12 OAC        -1.7670   -1.8160    3.4690 o         1 0V8     -0.693300
     13 SAO        -1.0060   -2.8660    3.9890 sy        1 0V8      1.701400
     14 Br          0.8450   -5.3320    0.1890 br        1 0V8      0.041300
     15 H1         -2.4560   -0.8040    1.6170 ha        1 0V8      0.174250
     16 H2         -2.4150    0.3240   -1.5090 ha        1 0V8      0.174250
     17 H3         -0.4740   -2.0400    1.3520 h1        1 0V8      0.097700
     18 H4         -1.9700    3.0980    5.5770 ha        1 0V8      0.174250
     19 H5         -0.6360    1.9700    7.1780 ha        1 0V8      0.001500
     20 H6         -0.2960    2.0160    7.7630 ha        1 0V8      0.001500
     21 H7         -0.7880   -0.4330    5.4980 h4        1 0V8      0.170000
     22 H8         -0.0720   -3.4290    6.0180 h4        1 0V8      0.194000
     23 H9          0.0510   -0.1480    7.6490 hn        1 0V8      0.443800
     24 H10        -2.2910    0.3430    3.7420 ha        1 0V8      0.174250
     25 H11         2.6060   -2.0000    0.8560 ha        1 0V8      0.192000
     26 CAK        -2.1820    1.2230    4.3390 c1        1 0V8     -0.174250
     27 HAL2        0.4270   -1.7970    7.8580 hn        1 0V8      0.443800
@<TRIPOS>BOND
     1    1    3 3   
     2    1   16 1   
     3    2    4 1   
     4    2    7 1   
     5    2   10 1   
     6    2   17 1   
     7    3   15 1   
     8    4    7 2   
     9    4   25 1   
    10    5    6 2   
    11    5    9 1   
    12    5   21 1   
    13    6   13 1   
    14    6   22 1   
    15    7   14 1   
    16    8   18 1   
    17    8   26 3   
    18    9   23 1   
    19    9   27 1   
    20   10   13 1   
    21   11   13 2   
    22   12   13 2   
    23   19   20 1   
    24   24   26 1   
@<TRIPOS>SUBSTRUCTURE
     1 0V8         1 TEMP              0 ****  ****    0 ROOT
