@<TRIPOS>MOLECULE
0V8
   26    23     1     0     0
SMALL
bcc


@<TRIPOS>ATOM
      1 CAE         2.1180    2.4330   -1.9910 c1        1 0V8     -0.061500
      2 CAF         2.7290    3.2590   -1.0430 c1        1 0V8     -0.060500
      3 CAG         1.1060    1.5730   -1.6040 c1        1 0V8     -0.061500
      4 CAH         1.3020    2.3500    0.6660 c1        1 0V8     -0.047500
      5 CAI        -1.0650   -1.6320    0.5390 c3        1 0V8      0.185800
      6 CAJ        -2.3750   -2.1340    0.1690 c3        1 0V8     -0.325600
      7 CAK         0.4070    0.2000    0.4600 c3        1 0V8      0.160900
      8 CAM         2.3160    3.2130    0.2860 c1        1 0V8      0.065800
      9 CAN         0.6970    1.5290   -0.2790 c1        1 0V8     -0.035100
     10 NAL        -0.9180   -0.2960    0.0780 n3        1 0V8     -0.818200
     11 OAA        -2.2700   -4.0810    2.0050 o         1 0V8     -0.750533
     12 OAB        -1.4880   -4.6950   -0.2740 o         1 0V8     -0.750533
     13 OAC        -3.7800   -4.4400    0.1110 o         1 0V8     -0.750533
     14 SAO        -2.4800   -3.8690    0.5590 s6        1 0V8      1.431800
     15 BR          3.1440    4.3030    1.5660 br        1 0V8     -0.210800
     16 H1          2.5080    2.3580   -2.9110 ha        1 0V8      0.085000
     17 H2          3.4500    3.8720   -1.3160 ha        1 0V8      0.076500
     18 H3          0.6840    1.0060   -2.2540 ha        1 0V8      0.085000
     19 H4          0.9450    2.3910    1.5680 ha        1 0V8      0.091500
     20 H5         -0.3950   -2.1750    0.1460 h1        1 0V8      0.064200
     21 H6         -0.9680   -1.6540    1.5460 h1        1 0V8      0.064200
     22 H7         -3.1070   -1.6170    0.6940 h1        1 0V8      0.063200
     23 H8         -2.5110   -2.0070   -0.7970 h1        1 0V8      0.063200
     24 H9          1.0830   -0.4650    0.2190 h1        1 0V8      0.044700
     25 H10         0.4320    0.3490    1.4020 h1        1 0V8      0.044700
     26 H11        -1.5630    0.2310    0.4540 hn        1 0V8      0.346800
@<TRIPOS>BOND
     1    1    3 3   
     2    1   16 1   
     3    2    8 3   
     4    2   17 1   
     5    3   18 1   
     6    4    9 3   
     7    4   19 1   
     8    5    6 1   
     9    5   10 1   
    10    5   20 1   
    11    5   21 1   
    12    6   14 1   
    13    6   22 1   
    14    6   23 1   
    15    7    9 1   
    16    7   10 1   
    17    7   24 1   
    18    7   25 1   
    19    8   15 1   
    20   10   26 1   
    21   11   14 1   
    22   12   14 1   
    23   13   14 1   
@<TRIPOS>SUBSTRUCTURE
     1 0V8         1 TEMP              0 ****  ****    0 ROOT
