@<TRIPOS>MOLECULE
0VA
   49    51     1     0     0
SMALL
bcc


@<TRIPOS>ATOM
      1 C01        -2.5710    1.3090   -0.4430 ca        1 0VA     -0.066000
      2 C02        -4.5930    1.4080    0.8910 ca        1 0VA     -0.066000
      3 C03        -2.3210    2.6480   -0.1810 ca        1 0VA     -0.186000
      4 C04        -4.3520    2.7520    1.1690 ca        1 0VA     -0.186000
      5 C05         3.4410    0.8630   -0.1870 ca        1 0VA     -0.060000
      6 C06         4.3660   -1.2150    0.6170 ca        1 0VA     -0.060000
      7 C07        -3.7020    0.6770    0.0980 ca        1 0VA     -0.198500
      8 C08        -2.9820   -1.7920   -0.1270 cc        1 0VA     -0.312900
      9 C09         3.3930   -0.2180    0.6960 ca        1 0VA     -0.143300
     10 C10         5.4700   -0.0380   -1.2330 ca        1 0VA      0.190600
     11 C11        -3.2170    3.3720    0.6310 ca        1 0VA      0.143100
     12 C12         4.4540    0.9520   -1.1380 ca        1 0VA     -0.058600
     13 C13         5.3850   -1.1310   -0.3280 ca        1 0VA     -0.058600
     14 C14        -3.9740   -0.7280   -0.2110 cc        1 0VA      0.458800
     15 C15        -3.5300   -3.0070   -0.5230 cd        1 0VA     -0.029400
     16 C17        -0.0980   -0.5630    2.0530 c2        1 0VA      0.661800
     17 C18        -2.8460   -4.3000   -0.5810 c3        1 0VA     -0.049800
     18 C19        -3.7710    5.4590    1.6330 c3        1 0VA      0.111700
     19 C20         2.3220   -0.2900    1.7450 c3        1 0VA      0.246100
     20 N21        -5.1700   -1.1450   -0.6270 nd        1 0VA     -0.533100
     21 N22        -1.3790   -0.8440    1.4390 n         1 0VA     -0.544400
     22 N23         6.5300    0.0940   -2.1130 nh        1 0VA     -0.830200
     23 N24         0.0440   -0.4190    3.3450 n2        1 0VA     -0.862100
     24 N25         0.9940   -0.3560    1.1610 nh        1 0VA     -0.799200
     25 O26        -0.6420   -2.2240   -0.2540 o         1 0VA     -0.607100
     26 O27        -2.8770    4.6920    0.8330 os        1 0VA     -0.321900
     27 S28        -5.1420   -2.7470   -0.9270 ss        1 0VA      0.256200
     28 CL1         4.4600    2.2850   -2.2000 cl        1 0VA     -0.096400
     29 CL2         6.5470   -2.3770   -0.3850 cl        1 0VA     -0.096400
     30 H1         -1.8780    0.7380   -1.0830 ha        1 0VA      0.148500
     31 H2         -5.4950    0.9230    1.2960 ha        1 0VA      0.148500
     32 H3         -1.4380    3.1540   -0.5970 ha        1 0VA      0.151000
     33 H4         -5.0590    3.3110    1.7970 ha        1 0VA      0.151000
     34 H6          4.3310   -2.0750    1.3060 ha        1 0VA      0.156000
     35 H7         -2.7810   -4.7500    0.4440 hc        1 0VA      0.068700
     36 H8         -3.3890   -5.0160   -1.2460 hc        1 0VA      0.068700
     37 H9         -1.8000   -4.1700   -0.9670 hc        1 0VA      0.068700
     38 H10        -3.2990    6.4740    1.6460 h1        1 0VA      0.047700
     39 H11        -4.7840    5.5010    1.1640 h1        1 0VA      0.047700
     40 H12        -3.8330    5.0400    2.6660 h1        1 0VA      0.047700
     41 H13         2.5230   -1.1710    2.4230 h1        1 0VA      0.061700
     42 H14         2.3710    0.6420    2.3810 h1        1 0VA      0.061700
     43 H15        -2.1540   -0.3230    1.7870 hn        1 0VA      0.331500
     44 H16         7.0450   -0.7320   -2.3160 hn        1 0VA      0.418300
     45 H17         6.3970    0.7140   -2.8790 hn        1 0VA      0.418300
     46 H18        -0.7860   -0.4820    3.8920 hn        1 0VA      0.397400
     47 H19         0.9570   -0.9260    0.3350 hn        1 0VA      0.430800
     48 C16        -1.5810   -1.6310    0.3170 c         1 0VA      0.720700
     49 H5          2.6690    1.6480   -0.1290 ha        1 0VA      0.156000
@<TRIPOS>BOND
     1    1    3 ar  
     2    1    7 ar  
     3    1   30 1   
     4    2    4 ar  
     5    2    7 ar  
     6    2   31 1   
     7    3   11 ar  
     8    3   32 1   
     9    4   11 ar  
    10    4   33 1   
    11    5    9 ar  
    12    5   12 ar  
    13    5   49 1   
    14    6    9 ar  
    15    6   13 ar  
    16    6   34 1   
    17    7   14 1   
    18    8   14 1   
    19    8   15 2   
    20    8   48 1   
    21    9   19 1   
    22   10   12 ar  
    23   10   13 ar  
    24   10   22 1   
    25   11   26 1   
    26   12   28 1   
    27   13   29 1   
    28   14   20 2   
    29   15   17 1   
    30   15   27 1   
    31   16   21 1   
    32   16   23 2   
    33   16   24 1   
    34   17   35 1   
    35   17   36 1   
    36   17   37 1   
    37   18   26 1   
    38   18   38 1   
    39   18   39 1   
    40   18   40 1   
    41   19   24 1   
    42   19   41 1   
    43   19   42 1   
    44   20   27 1   
    45   21   43 1   
    46   21   48 1   
    47   22   44 1   
    48   22   45 1   
    49   23   46 1   
    50   24   47 1   
    51   25   48 2   
@<TRIPOS>SUBSTRUCTURE
     1 0VA         1 TEMP              0 ****  ****    0 ROOT
