@<TRIPOS>MOLECULE
0VA
   52    51     1     0     0
SMALL
bcc


@<TRIPOS>ATOM
      1 C01        -1.0850    1.3910   -1.0350 c3        1 0VA     -0.178000
      2 C02         0.3100    0.6350    1.1200 c3        1 0VA     -0.178000
      3 C03         0.2670    1.7260   -1.3760 c1        1 0VA      0.111000
      4 C04         1.6190    1.1290    0.5370 c1        1 0VA      0.111000
      5 C05         0.0510   -6.6600    6.1130 ca        1 0VA     -0.225000
      6 C06        -1.9030   -7.2860    4.7910 ca        1 0VA     -0.225000
      7 C07        -0.9940    0.8120    0.3890 c2        1 0VA      0.215000
      8 C08        -2.4900   -0.1580    2.2980 c2        1 0VA     -0.069000
      9 C09        -0.9310   -6.2970    5.1470 ca        1 0VA      0.159000
     10 C10        -0.8850   -8.8990    6.3000 ca        1 0VA     -0.307000
     11 C11         1.3020    1.5950   -0.7070 c1        1 0VA     -0.204000
     12 C12         0.0710   -7.9250    6.6660 ca        1 0VA      0.041500
     13 C13        -1.8780   -8.5420    5.3480 ca        1 0VA      0.041500
     14 C14        -2.2030    0.4500    0.9830 c2        1 0VA     -0.123000
     15 C15        -3.8530   -0.3290    2.4680 c2        1 0VA     -0.437000
     16 C17        -0.3840   -1.8930    7.0710 c1        1 0VA     -0.028000
     17 C18        -4.5540   -0.8910    3.6270 c3        1 0VA     -0.194000
     18 C20        -0.9990   -5.0550    4.5310 c2        1 0VA     -0.528000
     19 N21        -3.4010    0.6530    0.3070 n2        1 0VA     -0.402000
     20 N22        -1.6130   -0.2100    4.5780 n         1 0VA     -0.379000
     21 N23        -0.8480  -10.2270    6.8810 n4        1 0VA      0.027000
     22 N24        -0.3280   -1.7240    8.2290 n2        1 0VA     -0.272000
     23 N25        -0.0730   -3.9880    4.7740 n4        1 0VA      0.047000
     24 O26        -0.5620   -1.4100    2.9530 o         1 0VA     -0.419000
     25 O27         4.4330    2.0050    2.4230 oh        1 0VA     -0.092000
     26 S28        -4.6420    0.2250    1.0670 ss        1 0VA      1.191000
     27 CL1         1.2640   -8.3210    7.8110 cl        1 0VA      0.022000
     28 CL2        -3.0470   -9.6900    4.8940 cl        1 0VA      0.022000
     29 H1         -1.5390    0.6340   -1.7500 hc        1 0VA      0.226750
     30 H2          0.4610   -0.4860    1.2990 hc        1 0VA      0.226750
     31 H3         -1.7730    2.2930   -1.0720 hc        1 0VA      0.226750
     32 H4          0.2220    1.0880    2.1540 hc        1 0VA      0.226750
     33 H7         -5.5760   -1.2600    3.3450 hc        1 0VA      0.133000
     34 H8         -3.9890   -1.7540    4.0650 hc        1 0VA      0.133000
     35 H9         -4.6820   -0.1130    4.4260 hc        1 0VA      0.133000
     36 H13        -0.3540   -3.4330    5.5980 hn        1 0VA      0.226667
     37 H14        -1.7760   -4.8190    3.7950 hx        1 0VA      0.166000
     38 H15        -1.0110   -0.5900    5.2820 hn        1 0VA      0.264000
     39 H16        -1.6150  -10.7980    6.4970 hn        1 0VA      0.255667
     40 H17         0.0510  -10.6750    6.6650 hn        1 0VA      0.255667
     41 H18        -0.2820   -1.5890    9.1940 hn        1 0VA      0.320000
     42 H19        -0.0480   -3.3690    3.9580 hn        1 0VA      0.226667
     43 H5          0.8090   -5.9340    6.4370 ha        1 0VA      0.147500
     44 H222       -2.3750    0.3580    4.8640 hn        1 0VA      0.264000
     45 H233       -0.9500  -10.1620    7.9010 hn        1 0VA      0.255667
     46 H252        0.8660   -4.3600    4.9400 hn        1 0VA      0.226667
     47 C16        -1.4860   -0.6300    3.2940 c2        1 0VA      0.360000
     48 C19         4.1870    1.3730    1.3360 c2        1 0VA      0.069000
     49 H6         -2.6760   -7.0240    4.0520 ha        1 0VA      0.147500
     50 H10         5.3850    2.2010    2.6070 ho        1 0VA      0.290000
     51 H11         2.9370    1.1850    1.0970 h4        1 0VA      0.246000
     52 H12         4.9920    1.0560    0.6430 h4        1 0VA      0.246000
@<TRIPOS>BOND
     1    1    3 1   
     2    1    7 1   
     3    1   29 1   
     4    1   31 1   
     5    2    4 1   
     6    2    7 1   
     7    2   30 1   
     8    2   32 1   
     9    3   11 1   
    10    4   11 1   
    11    5    9 1   
    12    5   12 1   
    13    5   43 1   
    14    6    9 1   
    15    6   13 1   
    16    6   49 1   
    17    7   14 1   
    18    8   14 1   
    19    8   15 1   
    20    8   47 1   
    21    9   18 1   
    22   10   12 1   
    23   10   13 1   
    24   10   21 1   
    25   12   27 1   
    26   13   28 1   
    27   14   19 1   
    28   15   17 1   
    29   15   26 1   
    30   16   22 1   
    31   17   33 1   
    32   17   34 1   
    33   17   35 1   
    34   18   23 1   
    35   18   37 1   
    36   19   26 1   
    37   20   38 1   
    38   20   44 1   
    39   20   47 1   
    40   21   39 1   
    41   21   40 1   
    42   21   45 1   
    43   22   41 1   
    44   23   36 1   
    45   23   42 1   
    46   23   46 1   
    47   24   47 1   
    48   25   48 1   
    49   25   50 1   
    50   48   51 1   
    51   48   52 1   
@<TRIPOS>SUBSTRUCTURE
     1 0VA         1 TEMP              0 ****  ****    0 ROOT
