@<TRIPOS>MOLECULE
0VA
   51    54     1     0     0
SMALL
bcc


@<TRIPOS>ATOM
      1 C01        -0.0790    0.2170   -0.8950 cx        1 0VA     -0.100000
      2 C02         0.4200    0.8580    1.5300 c3        1 0VA     -0.103000
      3 C03         0.2840   -1.0220   -0.0860 cx        1 0VA     -0.283000
      4 C04         1.7490    0.1500    1.4340 c2        1 0VA     -0.211000
      5 C05        -0.6470   -5.9870    6.8300 ca        1 0VA     -0.030000
      6 C06        -0.5890   -6.0700    4.4110 ca        1 0VA     -0.030000
      7 C07        -0.5040    0.1590    0.5410 cx        1 0VA      0.018000
      8 C08        -2.5300   -0.4670    2.0900 c2        1 0VA     -0.207000
      9 C09        -1.0500   -5.4690    5.5900 ca        1 0VA     -0.275000
     10 C10         0.6880   -7.7200    5.7100 ca        1 0VA      0.202000
     11 C11         1.6050   -0.9900    0.5470 c2        1 0VA      0.364000
     12 C12         0.2030   -7.0770    6.8990 ca        1 0VA     -0.166500
     13 C13         0.2630   -7.1600    4.4600 ca        1 0VA     -0.166500
     14 C14        -1.9310    0.0850    0.8840 c2        1 0VA      0.004000
     15 C15        -3.9160   -0.2670    2.0550 c2        1 0VA     -0.423000
     16 C17        -2.2460   -1.8370    5.4880 c2        1 0VA      0.239000
     17 C18        -3.7200   -0.4420    6.8790 c3        1 0VA     -0.087000
     18 C20        -2.0110   -4.3460    5.5290 c3        1 0VA     -0.041000
     19 N21        -2.8380    0.6180    0.0560 n2        1 0VA     -0.340000
     20 N22        -2.5080   -1.1340    4.4140 n2        1 0VA     -0.313000
     21 N23         1.5150   -8.7900    5.7680 nv        1 0VA     -0.328000
     22 N24        -2.8160   -1.5530    6.7140 n7        1 0VA     -0.284000
     23 N25        -1.2790   -3.0250    5.5050 ny        1 0VA     -0.099000
     24 O26        -0.7140   -1.7040    3.0490 o         1 0VA     -0.415000
     25 O27         2.5740   -1.8640    0.3950 oh        1 0VA     -0.133000
     26 S28        -4.3310    0.4950    0.6590 ss        1 0VA      0.819000
     27 Cl1         0.6610   -7.6650    8.4220 cl        1 0VA      0.033000
     28 Cl2         0.7940   -7.8510    3.0020 cl        1 0VA      0.033000
     29 H1         -0.8350    0.0820   -1.6970 hc        1 0VA      0.165500
     30 H2          0.5190    1.9450    1.2720 hc        1 0VA      0.140000
     31 H3          0.7200    0.9230   -1.1950 hc        1 0VA      0.165500
     32 H4          0.0160    0.7710    2.5730 hc        1 0VA      0.140000
     33 H7         -4.6100   -0.5710    2.8440 h4        1 0VA      0.209000
     34 H8         -3.9520   -0.3520    7.9750 h1        1 0VA      0.121667
     35 H9         -3.2350    0.5060    6.5220 h1        1 0VA      0.121667
     36 H13        -0.6800   -2.9880    4.6630 hn        1 0VA      0.265500
     37 H14        -2.6410   -4.3930    4.5950 hx        1 0VA      0.141000
     38 H15        -0.1550   -2.0000   -0.3410 hc        1 0VA      0.192000
     39 H16         1.7630   -9.1890    6.6440 hn        1 0VA      0.261000
     40 H17         1.8000   -9.2540    4.9370 hn        1 0VA      0.261000
     41 H18        -2.8530   -2.2680    7.4090 hn        1 0VA      0.255000
     42 H19        -0.6580   -2.9680    6.3210 hn        1 0VA      0.265500
     43 H5         -1.0220   -5.5360    7.7640 ha        1 0VA      0.147000
     44 H222       -4.6730   -0.6030    6.3040 h1        1 0VA      0.121667
     45 H252       -2.6890   -4.3500    6.4300 hx        1 0VA      0.141000
     46 C16        -1.8330   -1.1530    3.1760 c2        1 0VA      0.396000
     47 C19         2.8820    0.5130    2.0650 c2        1 0VA      0.023000
     48 H6         -0.9200   -5.6840    3.4320 ha        1 0VA      0.147000
     49 H10         2.3360   -2.5640   -0.2550 ho        1 0VA      0.304000
     50 H11         2.9220    1.4070    2.7110 ha        1 0VA      0.170000
     51 H12         3.8230   -0.0540    1.9610 ha        1 0VA      0.170000
@<TRIPOS>BOND
     1    1    3 1   
     2    1    7 1   
     3    1   29 1   
     4    1   31 1   
     5    2    4 1   
     6    2    7 1   
     7    2   30 1   
     8    2   32 1   
     9    3    7 1   
    10    3   11 1   
    11    3   38 1   
    12    4   11 1   
    13    4   47 1   
    14    5    9 1   
    15    5   12 1   
    16    5   43 1   
    17    6    9 1   
    18    6   13 1   
    19    6   48 1   
    20    7   14 1   
    21    8   14 1   
    22    8   15 1   
    23    8   46 1   
    24    9   18 1   
    25   10   12 1   
    26   10   13 1   
    27   10   21 1   
    28   11   25 1   
    29   12   27 1   
    30   13   28 1   
    31   14   19 1   
    32   15   26 1   
    33   15   33 1   
    34   16   20 1   
    35   16   22 1   
    36   16   23 1   
    37   17   22 1   
    38   17   34 1   
    39   17   35 1   
    40   17   44 1   
    41   18   23 1   
    42   18   37 1   
    43   18   45 1   
    44   19   26 1   
    45   20   46 1   
    46   21   39 1   
    47   21   40 1   
    48   22   41 1   
    49   23   36 1   
    50   23   42 1   
    51   24   46 1   
    52   25   49 1   
    53   47   50 1   
    54   47   51 1   
@<TRIPOS>SUBSTRUCTURE
     1 0VA         1 TEMP              0 ****  ****    0 ROOT
