@<TRIPOS>MOLECULE
0VA
   49    38     1     0     0
SMALL
bcc


@<TRIPOS>ATOM
      1 C01         1.8530    1.3380    2.6160 c1        1 0VA     -0.062000
      2 C02         1.6110   -0.2230    4.4220 c1        1 0VA     -0.139000
      3 C03         3.2300    1.2400    2.7150 c1        1 0VA     -0.166000
      4 C04         2.9930   -0.3210    4.5210 c1        1 0VA     -0.139000
      5 C05        -0.9410   -1.5090   -5.4750 c1        1 0VA     -0.063000
      6 C06        -0.9910    0.2310   -3.8070 c1        1 0VA     -0.054000
      7 C07         1.0430    0.6060    3.4690 c1        1 0VA     -0.081000
      8 C08        -1.5140    0.6150    2.3530 c1        1 0VA     -0.228000
      9 C09        -0.9590   -1.1000   -4.1190 c1        1 0VA     -0.137000
     10 C10        -0.9870    0.7880   -6.1560 c1        1 0VA      0.115000
     11 C11         3.7990    0.4070    3.6720 c1        1 0VA      0.095000
     12 C12        -0.9540   -0.5620   -6.4800 c1        1 0VA     -0.139000
     13 C13        -1.0050    1.1860   -4.8200 c1        1 0VA     -0.139000
     14 C14        -0.4900    0.9140    3.5050 c2        1 0VA      0.025000
     15 C15        -2.8000    1.0710    2.7700 c1        1 0VA     -0.300000
     16 C16        -1.1530   -0.5890    1.5060 c1        1 0VA      0.389000
     17 C17        -1.5210   -1.9380   -0.5760 c1        1 0VA      0.178000
     18 C18        -4.2650    1.5440    2.7940 c2        1 0VA     -0.173000
     19 C19         6.0920   -0.1010    3.7320 c3        1 0VA     -0.078000
     20 C20        -0.8900   -2.1710   -2.9670 c3        1 0VA     -0.025000
     21 N21        -1.1950    1.5410    4.5800 n2        1 0VA     -0.312000
     22 N22        -1.9860   -0.9560    0.3630 n3        1 0VA     -0.356000
     23 N23        -0.9240    1.8080   -7.1110 n2        1 0VA     -0.343000
     24 N24        -0.7220   -2.9520   -0.1550 n1        1 0VA     -0.309000
     25 N25        -1.8830   -1.8490   -1.9210 n2        1 0VA     -0.273000
     26 O26        -0.1890   -1.1960    1.7420 o         1 0VA     -0.357000
     27 O27         5.0670    0.9010    3.7970 o         1 0VA     -0.207000
     28 S28        -2.6530    1.6670    4.1750 ss        1 0VA      0.569000
     29 CL1        -0.8010   -1.0310   -8.0820 cl        1 0VA     -0.016000
     30 CL2        -1.0280    2.8130   -4.2180 cl        1 0VA     -0.016000
     31 H1          1.4480    1.9300    1.9350 ha        1 0VA      0.150000
     32 H2          1.0500   -0.7300    5.0120 ha        1 0VA      0.146500
     33 H3          3.8090    1.7630    2.1070 ha        1 0VA      0.155000
     34 H4          3.3920   -0.9040    5.1900 ha        1 0VA      0.146500
     35 H5         -0.9160   -2.5120   -5.7110 ha        1 0VA      0.151000
     36 H6         -1.0030    0.5110   -2.8740 ha        1 0VA      0.159000
     37 H7         -4.7390    1.0990    3.5190 ha        1 0VA      0.105667
     38 H8         -4.2950    2.5430    2.9370 ha        1 0VA      0.105667
     39 H9         -4.6890    1.3240    1.9460 ha        1 0VA      0.105667
     40 H10         5.6760   -0.9920    3.6010 h1        1 0VA      0.086667
     41 H11         6.6000   -0.1000    4.5630 h1        1 0VA      0.086667
     42 H12         6.7160    0.1030    2.9520 h1        1 0VA      0.086667
     43 H13        -0.0130   -2.1630   -2.5810 h1        1 0VA      0.089000
     44 H14        -1.0710   -3.0260   -3.3200 h1        1 0VA      0.089000
     45 H15        -2.7530   -0.5770    0.2490 hn        1 0VA      0.248000
     46 H16        -0.9500    2.6480   -6.8570 hn        1 0VA      0.217000
     47 H17        -0.8480    1.5850   -8.0600 hn        1 0VA      0.217000
     48 H18        -0.4910   -3.0080    0.7000 DU        1 0VA      0.193000
     49 H19        -2.7590   -1.6650   -2.1540 hn        1 0VA      0.201000
@<TRIPOS>BOND
     1    1    7 1   
     2    1   31 1   
     3    2    4 1   
     4    2   32 1   
     5    3   11 1   
     6    3   33 1   
     7    4   34 1   
     8    5   12 1   
     9    5   35 1   
    10    6    9 1   
    11    6   36 1   
    12    7   14 1   
    13    8   14 1   
    14    8   15 1   
    15    9   20 1   
    16   10   12 1   
    17   10   13 1   
    18   14   21 1   
    19   15   28 1   
    20   16   22 1   
    21   16   26 1   
    22   17   22 1   
    23   17   24 1   
    24   18   37 1   
    25   18   38 1   
    26   18   39 1   
    27   19   27 1   
    28   19   40 1   
    29   19   41 1   
    30   19   42 1   
    31   20   25 1   
    32   20   43 1   
    33   20   44 1   
    34   21   28 1   
    35   22   45 1   
    36   23   46 1   
    37   23   47 1   
    38   25   49 1   
@<TRIPOS>SUBSTRUCTURE
     1 0VA         1 TEMP              0 ****  ****    0 ROOT
