@<TRIPOS>MOLECULE
0VB
   57    58     1     0     0
SMALL
bcc


@<TRIPOS>ATOM
      1 C01         1.6850   -3.5130   -0.0210 c1        1 0VB      0.342000
      2 C02        -1.3320    1.6420    2.4730 c1        1 0VB     -0.182000
      3 C03         2.9560   -3.3870    0.3170 c2        1 0VB     -0.551000
      4 C04        -0.7900    2.3970    3.2270 c1        1 0VB     -0.192000
      5 C05         0.3020   -5.7400    6.0840 cu        1 0VB     -0.189000
      6 C06         0.8670   -4.6290    5.2340 cx        1 0VB     -0.172000
      7 C07        -1.9640    0.7430    1.5510 c3        1 0VB      0.004000
      8 C08        -4.0430   -0.3290    2.6930 c2        1 0VB     -0.227000
      9 C09        -0.6410   -4.7640    5.5680 cx        1 0VB     -0.051000
     10 C10         0.8220   -6.9540    5.7520 c2        1 0VB     -0.110000
     11 C11         1.8020   -6.6900    4.6620 c2        1 0VB     -0.008000
     12 C12         3.5340   -3.7670    1.5890 c2        1 0VB      0.060000
     13 C13         1.6980   -5.3630    4.2440 c2        1 0VB     -0.227000
     14 C14        -3.4400    0.6380    1.7910 c2        1 0VB     -0.025000
     15 C15        -5.4280   -0.2190    2.6780 c2        1 0VB     -0.296000
     16 C17         3.9130   -7.7420    3.9080 c2        1 0VB      0.311000
     17 C18        -1.4110   -1.6190    5.1460 c2        1 0VB      0.216000
     18 C19        -0.3390   -8.0190    3.9900 c1        1 0VB     -0.096000
     19 C20        -6.3770   -1.0280    3.4460 c3        1 0VB     -0.174000
     20 C21         4.4880   -9.0170    3.3260 c3        1 0VB     -0.245000
     21 C22         5.5060   -3.8410    2.8790 c3        1 0VB     -0.084000
     22 C23        -1.2140   -3.6970    6.4770 c3        1 0VB     -0.028000
     23 N24        -4.3240    1.4090    1.1630 n2        1 0VB     -0.308000
     24 N25        -2.2660   -0.8430    4.2690 n         1 0VB     -0.389000
     25 N26        -0.1640   -1.2980    5.3730 n2        1 0VB     -0.328000
     26 N27         2.5470   -7.7260    4.0990 n         1 0VB     -0.310000
     27 N28        -2.0380   -2.6950    5.8440 n3        1 0VB     -0.272000
     28 O29        -3.6120   -2.5390    3.4680 o         1 0VB     -0.364000
     29 O30         4.6570   -6.7770    4.1790 o         1 0VB     -0.389000
     30 O31         4.8320   -3.5030    1.6450 os        1 0VB     -0.175000
     31 S32        -5.8410    1.0160    1.6120 ss        1 0VB      0.575000
     32 CL1         2.5430   -4.5980    2.9960 cl        1 0VB      0.199000
     33 H1         -1.5120   -0.2870    1.6430 hc        1 0VB      0.129000
     34 H2         -1.7700    1.1000    0.4970 hc        1 0VB      0.129000
     35 H3          3.6410   -2.9510   -0.4480 ha        1 0VB      0.208000
     36 H4         -0.3070    3.0710    3.8890 ha        1 0VB      0.230000
     37 H5         -1.3670   -5.1320    4.8100 hc        1 0VB      0.116000
     38 H6          1.3360   -3.7050    5.6180 hc        1 0VB      0.179000
     39 H7          0.6130   -7.9380    6.1740 ha        1 0VB      0.174000
     40 H8         -1.2690   -7.9380    4.5740 ha        1 0VB      0.017000
     41 H9         -0.3020   -7.2560    3.1980 ha        1 0VB      0.017000
     42 H10        -6.0130   -2.0870    3.5180 hc        1 0VB      0.107333
     43 H11        -7.3880   -1.0290    2.9680 hc        1 0VB      0.107333
     44 H12        -6.4790   -0.6250    4.4860 hc        1 0VB      0.107333
     45 H13         4.0400   -9.2290    2.3260 hc        1 0VB      0.102333
     46 H14         4.2900   -9.8800    4.0060 hc        1 0VB      0.102333
     47 H15         5.5920   -8.8910    3.2120 hc        1 0VB      0.102333
     48 H16         5.1510   -3.1530    3.6820 h1        1 0VB      0.117667
     49 H17         6.5820   -3.6670    2.6320 h1        1 0VB      0.117667
     50 H18         5.3050   -4.9070    3.1520 h1        1 0VB      0.117667
     51 H19        -0.3870   -3.2040    7.0620 h1        1 0VB      0.119500
     52 H20        -1.8920   -4.2190    7.2180 h1        1 0VB      0.119500
     53 H21        -2.0760    0.1350    4.2260 hn        1 0VB      0.246000
     54 H22         0.1720   -0.4760    4.9210 hn        1 0VB      0.153000
     55 H23         2.0170   -8.5540    3.9110 hn        1 0VB      0.253000
     56 H24        -2.8040   -3.1030    5.3380 hn        1 0VB      0.219000
     57 C16        -3.3040   -1.3300    3.4930 c2        1 0VB      0.395000
@<TRIPOS>BOND
     1    1    3 1   
     2    2    4 1   
     3    2    7 1   
     4    3   12 1   
     5    3   35 1   
     6    4   36 1   
     7    5    6 1   
     8    5    9 1   
     9    5   10 1   
    10    6    9 1   
    11    6   13 1   
    12    6   38 1   
    13    7   14 1   
    14    7   33 1   
    15    7   34 1   
    16    8   14 1   
    17    8   15 1   
    18    8   57 1   
    19    9   22 1   
    20    9   37 1   
    21   10   11 1   
    22   10   39 1   
    23   11   13 1   
    24   11   26 1   
    25   12   30 1   
    26   12   32 1   
    27   13   32 1   
    28   14   23 1   
    29   15   19 1   
    30   15   31 1   
    31   16   20 1   
    32   16   26 1   
    33   16   29 1   
    34   17   24 1   
    35   17   25 1   
    36   17   27 1   
    37   18   40 1   
    38   18   41 1   
    39   19   42 1   
    40   19   43 1   
    41   19   44 1   
    42   20   45 1   
    43   20   46 1   
    44   20   47 1   
    45   21   30 1   
    46   21   48 1   
    47   21   49 1   
    48   21   50 1   
    49   22   27 1   
    50   22   51 1   
    51   22   52 1   
    52   23   31 1   
    53   24   53 1   
    54   24   57 1   
    55   25   54 1   
    56   26   55 1   
    57   27   56 1   
    58   28   57 1   
@<TRIPOS>SUBSTRUCTURE
     1 0VB         1 TEMP              0 ****  ****    0 ROOT
