@<TRIPOS>MOLECULE
0VB
   57    45     1     0     0
SMALL
bcc


@<TRIPOS>ATOM
      1 C01        -3.8170    4.4310    2.7220 c1        1 0VB     -0.056000
      2 C02        -4.8150    4.5040    0.5290 c1        1 0VB     -0.114500
      3 C03        -4.8060    5.2850    3.2000 c1        1 0VB     -0.214000
      4 C04        -5.8040    5.3580    1.0090 c1        1 0VB     -0.114500
      5 C05         2.7550   -3.5380   -0.8390 c1        1 0VB     -0.103000
      6 C06         3.4640   -2.6790   -2.9770 c1        1 0VB     -0.111000
      7 C07        -3.8210    4.0400    1.3850 c1        1 0VB     -0.087000
      8 C08        -2.5530    1.6200    1.0250 c1        1 0VB     -0.227000
      9 C09         2.4900   -2.8000   -1.9890 c1        1 0VB     -0.089000
     10 C10         3.9920   -4.1560   -0.6770 c1        1 0VB     -0.085000
     11 C11         4.9650   -4.0350   -1.6660 c1        1 0VB      0.009500
     12 C12        -5.7990    5.7480    2.3440 c1        1 0VB      0.098000
     13 C13         4.7010   -3.2970   -2.8150 c1        1 0VB      0.009500
     14 C14        -3.7620    2.5160    1.4640 c2        1 0VB      0.024000
     15 C15        -2.8760    0.2820    1.2950 c1        1 0VB     -0.294000
     16 C16        -1.7680    1.3670   -0.2660 c1        1 0VB      0.387000
     17 C17         7.4310   -3.7790   -1.8550 c1        1 0VB      0.307000
     18 C18        -0.2800   -0.2850   -1.3880 c1        1 0VB      0.179000
     19 C19         4.2670   -5.0000    0.5670 c3        1 0VB     -0.180000
     20 C20        -2.8210   -1.0680    2.0130 c2        1 0VB     -0.209000
     21 C21         8.8150   -4.3960   -2.0640 c2        1 0VB     -0.209000
     22 C22        -6.7810    7.8650    2.8130 c3        1 0VB     -0.077000
     23 C23         1.0970   -2.1930   -2.2070 c3        1 0VB     -0.030000
     24 N24        -4.7900    1.6590    1.9930 n2        1 0VB     -0.313000
     25 N25        -0.6040    0.5270   -0.2430 n3        1 0VB     -0.358000
     26 N26        -1.1360   -0.3930   -2.3800 n1        1 0VB     -0.307000
     27 N27         6.2630   -4.6110   -1.8870 n2        1 0VB     -0.346000
     28 N28         0.9780   -0.9760   -1.4460 n2        1 0VB     -0.273000
     29 O29        -2.0700    1.9590   -1.2860 o         1 0VB     -0.359000
     30 O30         7.3230   -2.5850   -1.6400 o         1 0VB     -0.331000
     31 O31        -6.8440    6.4570    2.9910 o         1 0VB     -0.205000
     32 S32        -4.3020    0.2530    1.9170 ss        1 0VB      0.567000
     33 CL1         5.7480   -2.8840   -4.1520 cl        1 0VB      0.005000
     34 H1         -3.1160    4.1040    3.3260 ha        1 0VB      0.147000
     35 H2         -4.8190    4.2290   -0.4120 ha        1 0VB      0.153000
     36 H3         -4.8020    5.5600    4.1430 ha        1 0VB      0.141000
     37 H4         -6.5050    5.6850    0.4050 ha        1 0VB      0.153000
     38 H5          2.0690   -3.6240   -0.1420 ha        1 0VB      0.150000
     39 H6          3.2780   -2.1590   -3.7880 ha        1 0VB      0.152000
     40 H7          4.9910   -4.5880    1.0880 hc        1 0VB      0.086000
     41 H8          3.4540   -5.0480    1.1160 hc        1 0VB      0.086000
     42 H9          4.5330   -5.9060    0.2960 hc        1 0VB      0.086000
     43 H10        -3.3750   -1.7190    1.5290 ha        1 0VB      0.107167
     44 H11        -3.1610   -0.9650    2.9300 ha        1 0VB      0.107167
     45 H12        -1.8920   -1.3860    2.0420 ha        1 0VB      0.107167
     46 H13         8.9350   -5.1480   -1.4440 ha        1 0VB      0.107167
     47 H14         9.5050   -3.7170   -1.8940 ha        1 0VB      0.107167
     48 H15         8.8930   -4.7180   -2.9890 ha        1 0VB      0.107167
     49 H16        -6.4330    8.0660    1.9170 h1        1 0VB      0.085667
     50 H17        -6.1850    8.2540    3.4910 h1        1 0VB      0.085667
     51 H18        -7.6810    8.2480    2.9090 h1        1 0VB      0.085667
     52 H19         0.9710   -1.9960   -3.1620 h1        1 0VB      0.089000
     53 H20         0.4110   -2.8320   -1.9110 h1        1 0VB      0.089000
     54 H21        -0.0300    0.5590    0.4730 hn        1 0VB      0.249000
     55 H22        -1.9350    0.0470   -2.3430 DU        1 0VB      0.193000
     56 H23         6.3440   -5.5100   -2.0570 hn        1 0VB      0.228000
     57 H24         1.7090   -0.6330   -1.0130 hn        1 0VB      0.204000
@<TRIPOS>BOND
     1    1    7 1   
     2    1   34 1   
     3    2    4 1   
     4    2   35 1   
     5    3   12 1   
     6    3   36 1   
     7    4   37 1   
     8    5   10 1   
     9    5   38 1   
    10    6    9 1   
    11    6   39 1   
    12    7   14 1   
    13    8   14 1   
    14    8   15 1   
    15    9   23 1   
    16   10   19 1   
    17   11   13 1   
    18   14   24 1   
    19   15   32 1   
    20   16   25 1   
    21   16   29 1   
    22   17   27 1   
    23   17   30 1   
    24   18   25 1   
    25   18   26 1   
    26   19   40 1   
    27   19   41 1   
    28   19   42 1   
    29   20   43 1   
    30   20   44 1   
    31   20   45 1   
    32   21   46 1   
    33   21   47 1   
    34   21   48 1   
    35   22   31 1   
    36   22   49 1   
    37   22   50 1   
    38   22   51 1   
    39   23   28 1   
    40   23   52 1   
    41   23   53 1   
    42   24   32 1   
    43   25   54 1   
    44   27   56 1   
    45   28   57 1   
@<TRIPOS>SUBSTRUCTURE
     1 0VB         1 TEMP              0 ****  ****    0 ROOT
