@<TRIPOS>MOLECULE
0VB
   57    59     1     0     0
SMALL
bcc


@<TRIPOS>ATOM
      1 C01         2.6760    1.8070    0.2370 ca        1 0VB     -0.066000
      2 C02         4.7020    2.1870   -1.0390 ca        1 0VB     -0.066000
      3 C03         2.1400    2.9940   -0.2410 ca        1 0VB     -0.186000
      4 C04         4.1750    3.3790   -1.5340 ca        1 0VB     -0.186000
      5 C05        -3.4540   -2.3440   -0.6140 ca        1 0VB     -0.109000
      6 C06        -2.9930   -0.0380   -0.0720 ca        1 0VB     -0.102000
      7 C07         3.9550    1.3900   -0.1650 ca        1 0VB     -0.199500
      8 C08         3.8140   -1.1190    0.4270 cc        1 0VB     -0.312900
      9 C09        -2.6880   -1.1910   -0.7960 ca        1 0VB     -0.095300
     10 C10        -4.5370   -2.3560    0.2670 ca        1 0VB     -0.090300
     11 C11        -4.8630   -1.1880    1.0020 ca        1 0VB      0.059600
     12 C12         2.8960    3.7820   -1.1330 ca        1 0VB      0.144100
     13 C13        -4.0590   -0.0370    0.8300 ca        1 0VB      0.027400
     14 C14         4.5240    0.1520    0.3710 cc        1 0VB      0.459800
     15 C15         4.6020   -2.0950    1.0270 cd        1 0VB     -0.029400
     16 C17        -7.1100   -0.4700    1.7580 c         1 0VB      0.663100
     17 C18         0.8700   -0.9450   -1.9970 c2        1 0VB      0.661800
     18 C19        -5.3340   -3.5960    0.4280 c3        1 0VB     -0.053800
     19 C20         4.2350   -3.4920    1.2680 c3        1 0VB     -0.049800
     20 C21        -8.1480   -0.6390    2.8440 c3        1 0VB     -0.175100
     21 C22         3.0140    5.7690   -2.4400 c3        1 0VB      0.111700
     22 C23        -1.5640   -1.1850   -1.7920 c3        1 0VB      0.238100
     23 N24         5.7540    0.1000    0.8840 nd        1 0VB     -0.533100
     24 N25         2.1430   -0.8220   -1.3160 n         1 0VB     -0.544400
     25 N26         0.7770   -1.0470   -3.2980 n2        1 0VB     -0.861100
     26 N27        -5.9330   -1.1970    1.9200 n         1 0VB     -0.492100
     27 N28        -0.2910   -0.8570   -1.1760 nh        1 0VB     -0.799200
     28 O29         1.6370   -2.0790    0.5480 o         1 0VB     -0.609100
     29 O30        -7.2960    0.2880    0.7920 o         1 0VB     -0.574100
     30 O31         2.2730    4.9390   -1.5510 os        1 0VB     -0.320900
     31 S32         6.0790   -1.4000    1.4320 ss        1 0VB      0.255200
     32 CL1        -4.3550    1.3790    1.7220 cl        1 0VB     -0.077400
     33 H1          2.0950    1.1890    0.9400 ha        1 0VB      0.148000
     34 H2          5.7160    1.8770   -1.3370 ha        1 0VB      0.148000
     35 H3          1.1390    3.3300    0.0640 ha        1 0VB      0.151500
     36 H4          4.7730    3.9910   -2.2230 ha        1 0VB      0.151500
     37 H5         -3.2090   -3.2570   -1.1790 ha        1 0VB      0.140000
     38 H6         -2.3860    0.8720   -0.2100 ha        1 0VB      0.160000
     39 H7         -5.2580   -3.9780    1.4780 hc        1 0VB      0.046367
     40 H8         -6.4120   -3.4030    0.1990 hc        1 0VB      0.046367
     41 H9         -4.9710   -4.4000   -0.2590 hc        1 0VB      0.046367
     42 H10         4.3430   -4.0890    0.3260 hc        1 0VB      0.068367
     43 H11         4.8840   -3.9510    2.0540 hc        1 0VB      0.068367
     44 H12         3.1640   -3.5610    1.5980 hc        1 0VB      0.068367
     45 H13        -8.4690   -1.7050    2.9230 hc        1 0VB      0.066700
     46 H14        -7.7380   -0.3050    3.8280 hc        1 0VB      0.066700
     47 H15        -9.0350   -0.0100    2.5870 hc        1 0VB      0.066700
     48 H16         3.9570    6.1200   -1.9570 h1        1 0VB      0.047700
     49 H17         3.2370    5.2260   -3.3910 h1        1 0VB      0.047700
     50 H18         2.3210    6.6280   -2.6280 h1        1 0VB      0.047700
     51 H19        -1.5260   -2.1840   -2.3170 h1        1 0VB      0.063200
     52 H20        -1.7800   -0.4000   -2.5760 h1        1 0VB      0.063200
     53 H21         2.7920   -0.1800   -1.7160 hn        1 0VB      0.332500
     54 H22         1.6310   -1.0030   -3.8080 hn        1 0VB      0.398400
     55 H23        -5.9310   -1.9460    2.5730 hn        1 0VB      0.315500
     56 H24        -0.1780   -1.2670   -0.2670 hn        1 0VB      0.430800
     57 C16         2.4480   -1.3660   -0.0780 c         1 0VB      0.720700
@<TRIPOS>BOND
     1    1    3 ar  
     2    1    7 ar  
     3    1   33 1   
     4    2    4 ar  
     5    2    7 ar  
     6    2   34 1   
     7    3   12 ar  
     8    3   35 1   
     9    4   12 ar  
    10    4   36 1   
    11    5    9 ar  
    12    5   10 ar  
    13    5   37 1   
    14    6    9 ar  
    15    6   13 ar  
    16    6   38 1   
    17    7   14 1   
    18    8   14 1   
    19    8   15 2   
    20    8   57 1   
    21    9   22 1   
    22   10   11 ar  
    23   10   18 1   
    24   11   13 ar  
    25   11   26 1   
    26   12   30 1   
    27   13   32 1   
    28   14   23 2   
    29   15   19 1   
    30   15   31 1   
    31   16   20 1   
    32   16   26 1   
    33   16   29 2   
    34   17   24 1   
    35   17   25 2   
    36   17   27 1   
    37   18   39 1   
    38   18   40 1   
    39   18   41 1   
    40   19   42 1   
    41   19   43 1   
    42   19   44 1   
    43   20   45 1   
    44   20   46 1   
    45   20   47 1   
    46   21   30 1   
    47   21   48 1   
    48   21   49 1   
    49   21   50 1   
    50   22   27 1   
    51   22   51 1   
    52   22   52 1   
    53   23   31 1   
    54   24   53 1   
    55   24   57 1   
    56   25   54 1   
    57   26   55 1   
    58   27   56 1   
    59   28   57 2   
@<TRIPOS>SUBSTRUCTURE
     1 0VB         1 TEMP              0 ****  ****    0 ROOT
