@<TRIPOS>MOLECULE
0VC
   41    41     1     0     0
SMALL
bcc


@<TRIPOS>ATOM
      1 C18        -1.3960   -0.3100   -6.9630 c3        1 0VC     -0.073000
      2 O17        -1.4850   -1.1090   -5.7920 os        1 0VC     -0.280000
      3 C16        -1.4060   -0.3680   -4.5810 c3        1 0VC     -0.023000
      4 C15        -2.1920   -1.0990   -3.4810 c3        1 0VC     -0.136000
      5 C13        -1.4930   -0.8890   -2.1220 cx        1 0VC     -0.146000
      6 C12        -1.1200    0.5450   -1.7860 cx        1 0VC     -0.130000
      7 C14        -0.0410   -0.4460   -2.1880 cx        1 0VC     -0.199000
      8 C6         -1.1660    0.9160   -0.2920 c2        1 0VC     -0.054000
      9 C5         -1.9260    2.0010    0.1320 c2        1 0VC     -0.106000
     10 N4         -1.9030    2.3820    1.4460 n1        1 0VC     -0.114000
     11 C3         -1.1330    1.6970    2.3450 c1        1 0VC     -0.099000
     12 C2         -0.3710    0.6110    1.9240 c1        1 0VC      0.032000
     13 C1         -0.3930    0.2280    0.6080 c2        1 0VC     -0.163000
     14 O7          0.3530   -0.1610    2.8770 o         1 0VC     -0.210000
     15 C39         1.4830    0.5090    3.4240 c3        1 0VC     -0.009000
     16 C8          1.8030   -0.0620    4.7260 cy        1 0VC     -0.091000
     17 C9          3.1600    0.2150    5.1400 cy        1 0VC     -0.193000
     18 C10         3.4750   -1.2080    5.0790 cy        1 0VC     -0.108000
     19 N11         2.1070   -1.5000    4.6590 n3        1 0VC     -0.278000
     20 H1         -0.5730    0.2240   -6.9330 h1        1 0VC      0.072000
     21 H2         -2.1730    0.2900   -7.0110 h1        1 0VC      0.072000
     22 H3         -1.3810   -0.8910   -7.7570 h1        1 0VC      0.072000
     23 H4         -1.7890    0.5260   -4.7190 h1        1 0VC      0.066000
     24 H5         -0.4680   -0.2840   -4.3110 h1        1 0VC      0.066000
     25 H6         -2.2280   -2.0600   -3.6870 hc        1 0VC      0.100000
     26 H7         -3.1060   -0.7390   -3.4390 hc        1 0VC      0.100000
     27 H8         -1.7320   -1.4580   -1.3570 hc        1 0VC      0.131000
     28 H9         -1.3550    1.2160   -2.4630 hc        1 0VC      0.124000
     29 H10         0.5350   -0.7660   -1.4600 hc        1 0VC      0.114000
     30 H11         0.3280   -0.3310   -3.0870 hc        1 0VC      0.114000
     31 H12        -2.4800    2.4940   -0.5110 h4        1 0VC      0.158000
     32 H13        -1.1170    1.9710    3.2870 ha        1 0VC      0.171000
     33 H14         0.1430   -0.5360    0.3110 ha        1 0VC      0.162000
     34 H15         2.2520    0.4000    2.8210 h1        1 0VC      0.107000
     35 H16         1.2800    1.4660    3.5260 h1        1 0VC      0.107000
     36 H17         1.1430    0.1540    5.4230 h1        1 0VC      0.107000
     37 H18         3.6580    0.7430    4.4780 hc        1 0VC      0.098500
     38 H19         3.2120    0.5770    6.0540 hc        1 0VC      0.098500
     39 H20         4.1380   -1.4200    4.3860 h1        1 0VC      0.094500
     40 H21         3.6900   -1.5870    5.9600 h1        1 0VC      0.094500
     41 H22         1.6670   -1.9380    5.3350 hn        1 0VC      0.151000
@<TRIPOS>BOND
     1    1    2 1   
     2    1   20 1   
     3    1   21 1   
     4    1   22 1   
     5    2    3 1   
     6    3    4 1   
     7    3   23 1   
     8    3   24 1   
     9    4    5 1   
    10    4   25 1   
    11    4   26 1   
    12    5    6 1   
    13    5    7 1   
    14    5   27 1   
    15    6    7 1   
    16    6    8 1   
    17    6   28 1   
    18    7   29 1   
    19    7   30 1   
    20    8    9 1   
    21    8   13 1   
    22    9   10 1   
    23    9   31 1   
    24   11   12 1   
    25   11   32 1   
    26   12   13 1   
    27   13   33 1   
    28   14   15 1   
    29   15   16 1   
    30   15   34 1   
    31   15   35 1   
    32   16   17 1   
    33   16   19 1   
    34   16   36 1   
    35   17   18 1   
    36   17   37 1   
    37   17   38 1   
    38   18   19 1   
    39   18   39 1   
    40   18   40 1   
    41   19   41 1   
@<TRIPOS>SUBSTRUCTURE
     1 0VC         1 TEMP              0 ****  ****    0 ROOT
