@<TRIPOS>MOLECULE
0VC
   41    43     1     0     0
SMALL
bcc


@<TRIPOS>ATOM
      1 C18         0.0720   -0.7530   -0.1080 c3        1 0VC      0.116700
      2 O17         1.3390   -0.1320    0.0210 os        1 0VC     -0.423600
      3 C16         1.9270   -0.3540    1.3020 c3        1 0VC      0.130400
      4 C15         3.2620    0.3730    1.2960 c3        1 0VC     -0.059400
      5 C13         3.9730    0.1830    2.5960 cx        1 0VC     -0.110700
      6 C12         5.4420    0.5480    2.6760 cx        1 0VC     -0.080400
      7 C14         5.0080   -0.8950    2.7440 cx        1 0VC     -0.119400
      8 C6          5.9770    1.2300    3.8570 ca        1 0VC     -0.125600
      9 C5          5.5200    0.9360    5.1640 ca        1 0VC      0.355200
     10 N4          5.9810    1.5390    6.2710 nb        1 0VC     -0.633000
     11 C3          6.9360    2.4780    6.1290 ca        1 0VC      0.318200
     12 C2          7.4570    2.8420    4.8690 ca        1 0VC      0.020800
     13 C1          6.9670    2.2070    3.7120 ca        1 0VC     -0.122000
     14 O7          8.4450    3.7780    4.6620 os        1 0VC     -0.325900
     15 C39         8.8540    4.5150    5.8240 c3        1 0VC      0.139400
     16 C8          9.8630    5.5380    5.3230 cy        1 0VC      0.136500
     17 C9         10.7700    6.1390    6.4340 cy        1 0VC     -0.115400
     18 C10        10.2230    7.5260    6.0160 cy        1 0VC      0.128800
     19 N11         9.3030    6.8890    5.0490 n3        1 0VC     -0.788200
     20 H1         -0.6460   -0.3450    0.6450 h1        1 0VC      0.032367
     21 H2         -0.2600   -0.4970   -1.1450 h1        1 0VC      0.032367
     22 H3          0.1610   -1.8610    0.0130 h1        1 0VC      0.032367
     23 H4          1.2520    0.0500    2.1030 h1        1 0VC      0.028200
     24 H5          2.0700   -1.4560    1.4650 h1        1 0VC      0.028200
     25 H6          3.0840    1.4680    1.1210 hc        1 0VC      0.059700
     26 H7          3.8830   -0.0030    0.4410 hc        1 0VC      0.059700
     27 H8          3.3370    0.4160    3.4750 hc        1 0VC      0.085700
     28 H9          5.9260    0.8830    1.7320 hc        1 0VC      0.088700
     29 H10         5.2310   -1.5490    1.8830 hc        1 0VC      0.076200
     30 H11         5.0860   -1.4340    3.7050 hc        1 0VC      0.076200
     31 H12         4.7390    0.1720    5.3260 h4        1 0VC      0.021100
     32 H13         7.2860    2.9490    7.0630 h4        1 0VC      0.025100
     33 H14         7.3640    2.4830    2.7260 ha        1 0VC      0.154000
     34 H15         9.3550    3.8150    6.5440 h1        1 0VC      0.053700
     35 H16         7.9620    4.9920    6.3060 h1        1 0VC      0.053700
     36 H17        10.4380    5.0950    4.4680 h1        1 0VC      0.067700
     37 H18        11.8560    5.9930    6.2640 hc        1 0VC      0.059200
     38 H19        10.5030    5.8300    7.4660 hc        1 0VC      0.059200
     39 H20         9.6530    8.0660    6.8080 h1        1 0VC      0.054200
     40 H21        10.9910    8.2070    5.5790 h1        1 0VC      0.054200
     41 H22         9.4390    7.1840    4.1050 hn        1 0VC      0.356800
@<TRIPOS>BOND
     1    1    2 1   
     2    1   20 1   
     3    1   21 1   
     4    1   22 1   
     5    2    3 1   
     6    3    4 1   
     7    3   23 1   
     8    3   24 1   
     9    4    5 1   
    10    4   25 1   
    11    4   26 1   
    12    5    6 1   
    13    5    7 1   
    14    5   27 1   
    15    6    7 1   
    16    6    8 1   
    17    6   28 1   
    18    7   29 1   
    19    7   30 1   
    20    8    9 ar  
    21    8   13 ar  
    22    9   10 ar  
    23    9   31 1   
    24   10   11 ar  
    25   11   12 ar  
    26   11   32 1   
    27   12   13 ar  
    28   12   14 1   
    29   13   33 1   
    30   14   15 1   
    31   15   16 1   
    32   15   34 1   
    33   15   35 1   
    34   16   17 1   
    35   16   19 1   
    36   16   36 1   
    37   17   18 1   
    38   17   37 1   
    39   17   38 1   
    40   18   19 1   
    41   18   39 1   
    42   18   40 1   
    43   19   41 1   
@<TRIPOS>SUBSTRUCTURE
     1 0VC         1 TEMP              0 ****  ****    0 ROOT
