@<TRIPOS>MOLECULE
0VC
   41    43     1     0     0
SMALL
bcc


@<TRIPOS>ATOM
      1 C18         0.0770   -0.7470   -0.1150 c3        1 0VC      0.116700
      2 O17         1.3480   -0.1360    0.0160 os        1 0VC     -0.423600
      3 C16         1.9270   -0.3500    1.3030 c3        1 0VC      0.130400
      4 C15         3.2670    0.3670    1.2970 c3        1 0VC     -0.059400
      5 C13         3.9690    0.1830    2.6030 cx        1 0VC     -0.110700
      6 C12         5.4400    0.5390    2.6890 cx        1 0VC     -0.080400
      7 C14         4.9960   -0.9000    2.7680 cx        1 0VC     -0.119400
      8 C6          5.9720    1.2290    3.8670 ca        1 0VC     -0.125600
      9 C5          5.5050    0.9490    5.1740 ca        1 0VC      0.355200
     10 N4          5.9640    1.5590    6.2780 nb        1 0VC     -0.633000
     11 C3          6.9250    2.4910    6.1340 ca        1 0VC      0.318200
     12 C2          7.4560    2.8410    4.8730 ca        1 0VC      0.020800
     13 C1          6.9690    2.1980    3.7190 ca        1 0VC     -0.122000
     14 O7          8.4500    3.7690    4.6640 os        1 0VC     -0.325900
     15 C39         8.8540    4.5160    5.8210 c3        1 0VC      0.139400
     16 C8          9.8710    5.5310    5.3170 cy        1 0VC      0.136500
     17 C9         10.7710    6.1400    6.4280 cy        1 0VC     -0.115400
     18 C10        10.2330    7.5240    5.9910 cy        1 0VC      0.128800
     19 N11         9.3180    6.8800    5.0240 n7        1 0VC     -0.788200
     20 H1          0.1560   -1.8550    0.0180 h1        1 0VC      0.032367
     21 H2         -0.6430   -0.3270    0.6300 h1        1 0VC      0.032367
     22 H3         -0.2470   -0.4990   -1.1570 h1        1 0VC      0.032367
     23 H4          2.0590   -1.4510    1.4770 h1        1 0VC      0.028200
     24 H5          1.2500    0.0670    2.0950 h1        1 0VC      0.028200
     25 H6          3.8900   -0.0230    0.4500 hc        1 0VC      0.059700
     26 H7          3.0990    1.4610    1.1100 hc        1 0VC      0.059700
     27 H8          3.3290    0.4280    3.4760 hc        1 0VC      0.085700
     28 H9          5.9310    0.8630    1.7450 hc        1 0VC      0.088700
     29 H10         5.0640   -1.4310    3.7340 hc        1 0VC      0.076200
     30 H11         5.2200   -1.5640    1.9130 hc        1 0VC      0.076200
     31 H12         4.7190    0.1910    5.3380 h4        1 0VC      0.021100
     32 H13         7.2720    2.9690    7.0650 h4        1 0VC      0.025100
     33 H14         7.3730    2.4640    2.7330 ha        1 0VC      0.154000
     34 H15         7.9610    5.0020    6.2930 h1        1 0VC      0.053700
     35 H16         9.3470    3.8210    6.5520 h1        1 0VC      0.053700
     36 H17        10.4500    5.0760    4.4710 h1        1 0VC      0.067700
     37 H18        11.8580    5.9890    6.2680 hc        1 0VC      0.059200
     38 H19        10.4960    5.8430    7.4610 hc        1 0VC      0.059200
     39 H20         9.6590    8.0740    6.7740 h1        1 0VC      0.054200
     40 H21        11.0070    8.1980    5.5530 h1        1 0VC      0.054200
     41 H22         9.4620    7.1640    4.0780 hn        1 0VC      0.356800
@<TRIPOS>BOND
     1    1    2 1   
     2    1   20 1   
     3    1   21 1   
     4    1   22 1   
     5    2    3 1   
     6    3    4 1   
     7    3   23 1   
     8    3   24 1   
     9    4    5 1   
    10    4   25 1   
    11    4   26 1   
    12    5    6 1   
    13    5    7 1   
    14    5   27 1   
    15    6    7 1   
    16    6    8 1   
    17    6   28 1   
    18    7   29 1   
    19    7   30 1   
    20    8    9 ar  
    21    8   13 ar  
    22    9   10 ar  
    23    9   31 1   
    24   10   11 ar  
    25   11   12 ar  
    26   11   32 1   
    27   12   13 ar  
    28   12   14 1   
    29   13   33 1   
    30   14   15 1   
    31   15   16 1   
    32   15   34 1   
    33   15   35 1   
    34   16   17 1   
    35   16   19 1   
    36   16   36 1   
    37   17   18 1   
    38   17   37 1   
    39   17   38 1   
    40   18   19 1   
    41   18   39 1   
    42   18   40 1   
    43   19   41 1   
@<TRIPOS>SUBSTRUCTURE
     1 0VC         1 TEMP              0 ****  ****    0 ROOT
