@<TRIPOS>MOLECULE
0VC
   41    43     1     0     0
SMALL
bcc


@<TRIPOS>ATOM
      1 C18         0.0660   -0.7420   -0.0970 c3        1 0VC      0.116700
      2 O17         1.3390   -0.1330    0.0300 os        1 0VC     -0.423600
      3 C16         1.9210   -0.3490    1.3150 c3        1 0VC      0.130400
      4 C15         3.2630    0.3650    1.3050 c3        1 0VC     -0.059400
      5 C13         3.9680    0.1810    2.6090 cx        1 0VC     -0.110700
      6 C12         5.4400    0.5360    2.6910 cx        1 0VC     -0.080400
      7 C14         4.9950   -0.9020    2.7710 cx        1 0VC     -0.119400
      8 C6          5.9750    1.2260    3.8680 ca        1 0VC     -0.125600
      9 C5          5.5120    0.9460    5.1760 ca        1 0VC      0.355200
     10 N4          5.9740    1.5560    6.2790 nb        1 0VC     -0.633000
     11 C3          6.9340    2.4880    6.1320 ca        1 0VC      0.318200
     12 C2          7.4610    2.8380    4.8700 ca        1 0VC      0.020800
     13 C1          6.9710    2.1950    3.7170 ca        1 0VC     -0.122000
     14 O7          8.4550    3.7660    4.6580 os        1 0VC     -0.325900
     15 C39         8.8600    4.5160    5.8140 c3        1 0VC      0.139400
     16 C8          9.8740    5.5310    5.3060 cy        1 0VC      0.136500
     17 C9         10.7740    6.1450    6.4140 cy        1 0VC     -0.115400
     18 C10        10.2320    7.5270    5.9750 cy        1 0VC      0.128800
     19 N11         9.3170    6.8790    5.0110 n3        1 0VC     -0.788200
     20 H1          0.1430   -1.8500    0.0340 h1        1 0VC      0.032367
     21 H2         -0.2610   -0.4920   -1.1370 h1        1 0VC      0.032367
     22 H3         -0.6500   -0.3210    0.6510 h1        1 0VC      0.032367
     23 H4          1.2480    0.0680    2.1090 h1        1 0VC      0.028200
     24 H5          2.0530   -1.4510    1.4870 h1        1 0VC      0.028200
     25 H6          3.0960    1.4600    1.1180 hc        1 0VC      0.059700
     26 H7          3.8830   -0.0250    0.4560 hc        1 0VC      0.059700
     27 H8          3.3300    0.4260    3.4840 hc        1 0VC      0.085700
     28 H9          5.9280    0.8600    1.7460 hc        1 0VC      0.088700
     29 H10         5.2160   -1.5660    1.9160 hc        1 0VC      0.076200
     30 H11         5.0650   -1.4330    3.7370 hc        1 0VC      0.076200
     31 H12         4.7260    0.1880    5.3420 h4        1 0VC      0.021100
     32 H13         7.2840    2.9660    7.0620 h4        1 0VC      0.025100
     33 H14         7.3730    2.4610    2.7300 ha        1 0VC      0.154000
     34 H15         9.3570    3.8220    6.5430 h1        1 0VC      0.053700
     35 H16         7.9670    5.0000    6.2860 h1        1 0VC      0.053700
     36 H17        10.4530    5.0760    4.4600 h1        1 0VC      0.067700
     37 H18        11.8620    5.9960    6.2530 hc        1 0VC      0.059200
     38 H19        10.5020    5.8490    7.4480 hc        1 0VC      0.059200
     39 H20         9.6580    8.0770    6.7580 h1        1 0VC      0.054200
     40 H21        11.0040    8.2020    5.5350 h1        1 0VC      0.054200
     41 H22         9.4590    7.1620    4.0640 hn        1 0VC      0.356800
@<TRIPOS>BOND
     1    1    2 1   
     2    1   20 1   
     3    1   21 1   
     4    1   22 1   
     5    2    3 1   
     6    3    4 1   
     7    3   23 1   
     8    3   24 1   
     9    4    5 1   
    10    4   25 1   
    11    4   26 1   
    12    5    6 1   
    13    5    7 1   
    14    5   27 1   
    15    6    7 1   
    16    6    8 1   
    17    6   28 1   
    18    7   29 1   
    19    7   30 1   
    20    8    9 ar  
    21    8   13 ar  
    22    9   10 ar  
    23    9   31 1   
    24   10   11 ar  
    25   11   12 ar  
    26   11   32 1   
    27   12   13 ar  
    28   12   14 1   
    29   13   33 1   
    30   14   15 1   
    31   15   16 1   
    32   15   34 1   
    33   15   35 1   
    34   16   17 1   
    35   16   19 1   
    36   16   36 1   
    37   17   18 1   
    38   17   37 1   
    39   17   38 1   
    40   18   19 1   
    41   18   39 1   
    42   18   40 1   
    43   19   41 1   
@<TRIPOS>SUBSTRUCTURE
     1 0VC         1 TEMP              0 ****  ****    0 ROOT
