@<TRIPOS>MOLECULE
0VC
   41    43     1     0     0
SMALL
bcc


@<TRIPOS>ATOM
      1 C18         7.6700    1.6440   -0.5560 c3        1 0VC      0.116700
      2 O17         6.3900    1.6680    0.0490 os        1 0VC     -0.423600
      3 C16         5.5470    0.6140   -0.4140 c3        1 0VC      0.130400
      4 C15         4.2190    0.7740    0.3080 c3        1 0VC     -0.059400
      5 C13         3.2660   -0.3030   -0.0950 cx        1 0VC     -0.110700
      6 C12         2.0190   -0.5140    0.7420 cx        1 0VC     -0.080400
      7 C14         3.1230   -1.5420    0.7430 cx        1 0VC     -0.119400
      8 C6          0.7310   -0.7920    0.1010 ca        1 0VC     -0.125600
      9 C5          0.6300   -1.5960   -1.0600 ca        1 0VC      0.355200
     10 N4         -0.5290   -1.8730   -1.6780 nb        1 0VC     -0.633000
     11 C3         -1.6610   -1.3580   -1.1630 ca        1 0VC      0.318200
     12 C2         -1.6640   -0.5450   -0.0090 ca        1 0VC      0.020800
     13 C1         -0.4450   -0.2570    0.6330 ca        1 0VC     -0.122000
     14 O7         -2.7880   -0.0060    0.5760 os        1 0VC     -0.325900
     15 C39        -4.0130   -0.1930   -0.1480 c3        1 0VC      0.139400
     16 C8         -5.0710    0.5680    0.6380 cy        1 0VC      0.136500
     17 C9         -6.5330    0.1500    0.3140 cy        1 0VC     -0.115400
     18 C10        -6.7810    1.6270   -0.0790 cy        1 0VC      0.128800
     19 N11        -5.3540    1.9420    0.1420 n3        1 0VC     -0.788200
     20 H1          7.5860    1.7700   -1.6640 h1        1 0VC      0.032367
     21 H2          8.2100    2.5120   -0.1030 h1        1 0VC      0.032367
     22 H3          8.2000    0.6870   -0.3230 h1        1 0VC      0.032367
     23 H4          5.4150    0.6980   -1.5260 h1        1 0VC      0.028200
     24 H5          6.0180   -0.3770   -0.1760 h1        1 0VC      0.028200
     25 H6          4.3980    0.7580    1.4160 hc        1 0VC      0.059700
     26 H7          3.7820    1.7770    0.0570 hc        1 0VC      0.059700
     27 H8          3.1710   -0.4070   -1.1950 hc        1 0VC      0.085700
     28 H9          1.9170    0.1150    1.6530 hc        1 0VC      0.088700
     29 H10         2.9540   -2.5110    0.2410 hc        1 0VC      0.076200
     30 H11         3.7370   -1.6480    1.6550 hc        1 0VC      0.076200
     31 H12         1.5330   -2.0390   -1.5160 h4        1 0VC      0.021100
     32 H13        -2.5900   -1.6090   -1.7020 h4        1 0VC      0.025100
     33 H14        -0.4360    0.3770    1.5320 ha        1 0VC      0.154000
     34 H15        -3.9000    0.1890   -1.1960 h1        1 0VC      0.053700
     35 H16        -4.2680   -1.2860   -0.1600 h1        1 0VC      0.053700
     36 H17        -4.8230    0.5140    1.7310 h1        1 0VC      0.067700
     37 H18        -6.6330   -0.5730   -0.5220 hc        1 0VC      0.059200
     38 H19        -7.1120   -0.2040    1.1920 hc        1 0VC      0.059200
     39 H20        -7.0610    1.7890   -1.1470 h1        1 0VC      0.054200
     40 H21        -7.5050    2.1600    0.5810 h1        1 0VC      0.054200
     41 H22        -5.1960    2.6460    0.8320 hn        1 0VC      0.356800
@<TRIPOS>BOND
     1    1    2 1   
     2    1   20 1   
     3    1   21 1   
     4    1   22 1   
     5    2    3 1   
     6    3    4 1   
     7    3   23 1   
     8    3   24 1   
     9    4    5 1   
    10    4   25 1   
    11    4   26 1   
    12    5    6 1   
    13    5    7 1   
    14    5   27 1   
    15    6    7 1   
    16    6    8 1   
    17    6   28 1   
    18    7   29 1   
    19    7   30 1   
    20    8    9 ar  
    21    8   13 ar  
    22    9   10 ar  
    23    9   31 1   
    24   10   11 ar  
    25   11   12 ar  
    26   11   32 1   
    27   12   13 ar  
    28   12   14 1   
    29   13   33 1   
    30   14   15 1   
    31   15   16 1   
    32   15   34 1   
    33   15   35 1   
    34   16   17 1   
    35   16   19 1   
    36   16   36 1   
    37   17   18 1   
    38   17   37 1   
    39   17   38 1   
    40   18   19 1   
    41   18   39 1   
    42   18   40 1   
    43   19   41 1   
@<TRIPOS>SUBSTRUCTURE
     1 0VC         1 TEMP              0 ****  ****    0 ROOT
