@<TRIPOS>MOLECULE
0VD
   47    49     1     0     0
SMALL
bcc


@<TRIPOS>ATOM
      1 C1         -0.1660    0.1880    3.6850 cc        1 0VD     -0.191600
      2 N1          0.6140   -0.6950    4.4230 na        1 0VD     -0.297900
      3 C2          0.2280   -1.9900    4.0620 cc        1 0VD      0.439400
      4 N2         -0.7510   -1.9660    3.1350 nd        1 0VD     -0.753000
      5 C12        -6.5050   -0.1510    4.8590 ca        1 0VD     -0.180500
      6 C13        -5.6510    0.3330    3.8700 ca        1 0VD     -0.087500
      7 C4         -1.9890   -0.1130    1.8980 c3        1 0VD     -0.101700
      8 C5         -3.2300   -1.0060    1.7710 c3        1 0VD      0.012500
      9 C6         -4.2510   -0.3310    0.8370 c         1 0VD      0.563100
     10 C8         -5.9740    0.1980    2.5180 ca        1 0VD     -0.177300
     11 C10        -8.0440   -0.9080    3.1210 ca        1 0VD     -0.180500
     12 C9         -7.1810   -0.4180    2.1540 ca        1 0VD     -0.087500
     13 C7         -5.0790    0.7500    1.4650 c3        1 0VD     -0.110100
     14 C11        -7.7040   -0.7750    4.4860 ca        1 0VD      0.161100
     15 C19       -11.1840   -3.3280    7.9050 ca        1 0VD     -0.127500
     16 C18       -11.7130   -2.5990    8.9710 ca        1 0VD     -0.112000
     17 C17       -11.1740   -1.3550    9.3000 ca        1 0VD     -0.127500
     18 C20       -10.1130   -2.8170    7.1730 ca        1 0VD     -0.108000
     19 C16       -10.1090   -0.8370    8.5650 ca        1 0VD     -0.108000
     20 C15        -9.5710   -1.5710    7.5020 ca        1 0VD     -0.110300
     21 C14        -8.4020   -1.0250    6.7550 c3        1 0VD      0.178700
     22 N3         -2.8820   -2.3850    1.2900 n4        1 0VD     -0.819600
     23 C3         -1.0120   -0.6100    2.8850 cd        1 0VD      0.229600
     24 O1         -4.3610   -0.7100   -0.3290 o         1 0VD     -0.500100
     25 O2         -8.6160   -1.3120    5.3590 os        1 0VD     -0.313900
     26 H1         -0.0720    1.2710    3.7680 h4        1 0VD      0.199000
     27 H2          1.3150   -0.4490    5.0760 hn        1 0VD      0.327700
     28 H3          0.6820   -2.8920    4.4930 h5        1 0VD      0.085100
     29 H5         -6.2370   -0.0270    5.9180 ha        1 0VD      0.159500
     30 H6         -4.7210    0.8420    4.1680 ha        1 0VD      0.137000
     31 H7         -1.4930   -0.0020    0.8930 hc        1 0VD      0.088700
     32 H8         -2.3400    0.9090    2.2130 hc        1 0VD      0.088700
     33 H9         -3.7160   -1.1180    2.7910 hx        1 0VD      0.139700
     34 H10        -8.9970   -1.3870    2.8490 ha        1 0VD      0.159500
     35 H11        -7.4550   -0.5000    1.0890 ha        1 0VD      0.137000
     36 H12        -5.6930    1.2430    0.6590 hc        1 0VD      0.096200
     37 H13        -4.3960    1.5330    1.8960 hc        1 0VD      0.096200
     38 H16       -11.5930   -0.7780   10.1380 ha        1 0VD      0.140000
     39 H17        -9.6980   -3.3840    6.3260 ha        1 0VD      0.135500
     40 H18        -9.6930    0.1490    8.8230 ha        1 0VD      0.135500
     41 H19        -8.3090    0.0850    6.8950 h1        1 0VD      0.049700
     42 H20        -7.4550   -1.5330    7.0830 h1        1 0VD      0.049700
     43 H21        -3.6290   -2.7390    0.6810 hn        1 0VD      0.467467
     44 H22        -2.0070   -2.3560    0.7550 hn        1 0VD      0.467467
     45 H14       -11.6110   -4.3070    7.6410 ha        1 0VD      0.140000
     46 H33        -2.7530   -3.0130    2.0910 hn        1 0VD      0.467467
     47 H15       -12.5560   -3.0040    9.5500 ha        1 0VD      0.141000
@<TRIPOS>BOND
     1    1    2 1   
     2    1   23 2   
     3    1   26 1   
     4    2    3 1   
     5    2   27 1   
     6    3    4 2   
     7    3   28 1   
     8    4   23 1   
     9    5    6 ar  
    10    5   14 ar  
    11    5   29 1   
    12    6   10 ar  
    13    6   30 1   
    14    7    8 1   
    15    7   23 1   
    16    7   31 1   
    17    7   32 1   
    18    8    9 1   
    19    8   22 1   
    20    8   33 1   
    21    9   13 1   
    22    9   24 2   
    23   10   12 ar  
    24   10   13 1   
    25   11   12 ar  
    26   11   14 ar  
    27   11   34 1   
    28   12   35 1   
    29   13   36 1   
    30   13   37 1   
    31   14   25 1   
    32   15   16 ar  
    33   15   18 ar  
    34   15   45 1   
    35   16   17 ar  
    36   16   47 1   
    37   17   19 ar  
    38   17   38 1   
    39   18   20 ar  
    40   18   39 1   
    41   19   20 ar  
    42   19   40 1   
    43   20   21 1   
    44   21   25 1   
    45   21   41 1   
    46   21   42 1   
    47   22   43 1   
    48   22   44 1   
    49   22   46 1   
@<TRIPOS>SUBSTRUCTURE
     1 0VD         1 TEMP              0 ****  ****    0 ROOT
