@<TRIPOS>MOLECULE
0VD
   47    49     1     0     0
SMALL
bcc


@<TRIPOS>ATOM
      1 C1         -3.1720    0.4280    0.6200 cc        1 0VD     -0.187600
      2 N1         -2.4570    0.6690   -0.5480 na        1 0VD     -0.297900
      3 C2         -1.3230   -0.1480   -0.5190 cc        1 0VD      0.446400
      4 N2         -1.2920   -0.8910    0.6060 nd        1 0VD     -0.766000
      5 C12        -6.2610   -1.9370    6.1540 ca        1 0VD     -0.180000
      6 C13        -4.8690   -1.9520    6.1540 ca        1 0VD     -0.085000
      7 C4         -2.8200   -1.1600    2.6200 c3        1 0VD     -0.107700
      8 C5         -1.6050   -1.4920    3.4960 c3        1 0VD      0.017500
      9 C6         -2.0820   -1.9390    4.8890 c         1 0VD      0.566100
     10 C8         -4.1420   -0.8460    5.7040 ca        1 0VD     -0.170300
     11 C10        -6.2100    0.3330    5.2560 ca        1 0VD     -0.180000
     12 C9         -4.8240    0.2960    5.2600 ca        1 0VD     -0.085000
     13 C7         -2.6550   -0.8550    5.7540 c3        1 0VD     -0.108100
     14 C11        -6.9350   -0.7920    5.7040 ca        1 0VD      0.160100
     15 C19       -12.3800   -0.3850    4.9680 ca        1 0VD     -0.128000
     16 C18       -13.2100   -0.6320    6.0610 ca        1 0VD     -0.113000
     17 C17       -12.6860   -1.2140    7.2160 ca        1 0VD     -0.128000
     18 C20       -11.0290   -0.7240    5.0250 ca        1 0VD     -0.108000
     19 C16       -11.3350   -1.5480    7.2800 ca        1 0VD     -0.108000
     20 C15       -10.5030   -1.3090    6.1810 ca        1 0VD     -0.108300
     21 C14        -9.0690   -1.7140    6.2460 c3        1 0VD      0.177700
     22 N3         -0.7320   -2.5320    2.8570 nz        1 0VD     -0.837600
     23 C3         -2.4420   -0.5450    1.3340 cd        1 0VD      0.235600
     24 O1         -1.9600   -3.1160    5.2290 o         1 0VD     -0.506100
     25 O2         -8.2990   -0.6580    5.6380 os        1 0VD     -0.315900
     26 H1         -4.1090    0.9340    0.8550 h4        1 0VD      0.201000
     27 H2         -2.7110    1.2980   -1.2680 hn        1 0VD      0.328700
     28 H3         -0.5740   -0.1630   -1.3210 h5        1 0VD      0.086100
     29 H5         -6.8140   -2.8170    6.5140 ha        1 0VD      0.158500
     30 H6         -4.3330   -2.8460    6.5140 ha        1 0VD      0.139500
     31 H7         -3.4280   -2.0890    2.4350 hc        1 0VD      0.098200
     32 H8         -3.4710   -0.4480    3.2050 hc        1 0VD      0.098200
     33 H9         -0.9670   -0.5630    3.6120 hx        1 0VD      0.126700
     34 H10        -6.7580    1.2260    4.9210 ha        1 0VD      0.158500
     35 H11        -4.2600    1.1830    4.9310 ha        1 0VD      0.139500
     36 H12        -2.3220   -1.0470    6.8150 hc        1 0VD      0.090200
     37 H13        -2.2440    0.1420    5.4430 hc        1 0VD      0.090200
     38 H16       -13.3390   -1.4070    8.0800 ha        1 0VD      0.139500
     39 H17       -10.3680   -0.5250    4.1680 ha        1 0VD      0.135500
     40 H18       -10.9240   -1.9990    8.1960 ha        1 0VD      0.135500
     41 H19        -8.9020   -2.6600    5.6630 h1        1 0VD      0.051700
     42 H20        -8.7310   -1.8550    7.3080 h1        1 0VD      0.051700
     43 H21        -1.2560   -3.4090    2.7750 hn        1 0VD      0.470800
     44 H22         0.0900   -2.6980    3.4390 hn        1 0VD      0.470800
     45 H14       -12.7910    0.0780    4.0580 ha        1 0VD      0.139500
     46 H33        -0.4470   -2.2110    1.9120 hn        1 0VD      0.470800
     47 H15       -14.2770   -0.3670    6.0140 ha        1 0VD      0.140000
@<TRIPOS>BOND
     1    1    2 1   
     2    1   23 2   
     3    1   26 1   
     4    2    3 1   
     5    2   27 1   
     6    3    4 2   
     7    3   28 1   
     8    4   23 1   
     9    5    6 ar  
    10    5   14 ar  
    11    5   29 1   
    12    6   10 ar  
    13    6   30 1   
    14    7    8 1   
    15    7   23 1   
    16    7   31 1   
    17    7   32 1   
    18    8    9 1   
    19    8   22 1   
    20    8   33 1   
    21    9   13 1   
    22    9   24 2   
    23   10   12 ar  
    24   10   13 1   
    25   11   12 ar  
    26   11   14 ar  
    27   11   34 1   
    28   12   35 1   
    29   13   36 1   
    30   13   37 1   
    31   14   25 1   
    32   15   16 ar  
    33   15   18 ar  
    34   15   45 1   
    35   16   17 ar  
    36   16   47 1   
    37   17   19 ar  
    38   17   38 1   
    39   18   20 ar  
    40   18   39 1   
    41   19   20 ar  
    42   19   40 1   
    43   20   21 1   
    44   21   25 1   
    45   21   41 1   
    46   21   42 1   
    47   22   43 1   
    48   22   44 1   
    49   22   46 1   
@<TRIPOS>SUBSTRUCTURE
     1 0VD         1 TEMP              0 ****  ****    0 ROOT
