@<TRIPOS>MOLECULE
0VD
   46    48     1     0     0
SMALL
bcc


@<TRIPOS>ATOM
      1 C1         -5.7570   -0.1700   -1.6680 cc        1 0VD     -0.221600
      2 N1         -6.4150   -1.3230   -2.0850 na        1 0VD     -0.323900
      3 C2         -5.6080   -2.4080   -1.7180 cc        1 0VD      0.380400
      4 N2         -4.4840   -1.9980   -1.0960 nd        1 0VD     -0.668000
      5 C12         1.5050    0.9850    1.2860 ca        1 0VD     -0.181000
      6 C13         0.2180    1.1550    1.7950 ca        1 0VD     -0.086500
      7 C4         -3.5140    0.2680   -0.4710 c3        1 0VD     -0.086700
      8 C5         -4.0400    1.0270    0.7640 c3        1 0VD      0.069500
      9 C6         -2.8390    1.4330    1.6250 c         1 0VD      0.534100
     10 C8         -0.7260    0.1280    1.7090 ca        1 0VD     -0.124300
     11 C10         0.9030   -1.2720    0.5850 ca        1 0VD     -0.181000
     12 C9         -0.3740   -1.0830    1.0970 ca        1 0VD     -0.086500
     13 C7         -2.0850    0.3090    2.2880 c3        1 0VD     -0.129100
     14 C11         1.8460   -0.2310    0.6830 ca        1 0VD      0.130100
     15 C19         7.7490    0.0740   -0.4840 ca        1 0VD     -0.131500
     16 C18         7.7240   -0.8440   -1.5350 ca        1 0VD     -0.125000
     17 C17         6.5050   -1.3390   -1.9960 ca        1 0VD     -0.131500
     18 C20         6.5590    0.4950    0.1050 ca        1 0VD     -0.112500
     19 C16         5.3100   -0.9150   -1.4140 ca        1 0VD     -0.112500
     20 C15         5.3330    0.0050   -0.3610 ca        1 0VD     -0.094300
     21 C14         4.0730    0.5060    0.2620 c3        1 0VD      0.174700
     22 N3         -4.9300    2.1140    0.4080 n3        1 0VD     -0.889800
     23 C3         -4.5590   -0.5960   -1.0560 cd        1 0VD      0.287600
     24 O1         -2.5400    2.6190    1.8010 o         1 0VD     -0.544100
     25 O2          3.0820   -0.5250    0.1400 os        1 0VD     -0.326900
     26 H1         -6.1660    0.8300   -1.8030 h4        1 0VD      0.190000
     27 H2         -7.2860   -1.3650   -2.5420 hn        1 0VD      0.299700
     28 H3         -5.8800   -3.4470   -1.9250 h5        1 0VD      0.059100
     29 H5          2.2280    1.8070    1.3640 ha        1 0VD      0.144500
     30 H6         -0.0680    2.1130    2.2590 ha        1 0VD      0.147000
     31 H7         -3.1580    0.9960   -1.2500 hc        1 0VD      0.066700
     32 H8         -2.6260   -0.3490   -0.1590 hc        1 0VD      0.066700
     33 H9         -4.6480    0.3020    1.3880 h1        1 0VD      0.085700
     34 H10         1.1890   -2.2190    0.1050 ha        1 0VD      0.144500
     35 H11        -1.1150   -1.8950    1.0170 ha        1 0VD      0.147000
     36 H12        -1.9870    0.5540    3.3820 hc        1 0VD      0.074200
     37 H13        -2.6740   -0.6430    2.2040 hc        1 0VD      0.074200
     38 H15         8.6640   -1.1770   -1.9970 ha        1 0VD      0.131000
     39 H16         6.4820   -2.0650   -2.8220 ha        1 0VD      0.132500
     40 H17         6.5820    1.2140    0.9380 ha        1 0VD      0.139500
     41 H18         4.3460   -1.3070   -1.7710 ha        1 0VD      0.139500
     42 H19         4.2280    0.7440    1.3480 h1        1 0VD      0.049200
     43 H20         3.7160    1.4250   -0.2790 h1        1 0VD      0.049200
     44 H21        -5.2030    2.6120    1.2340 hn        1 0VD      0.353300
     45 H22        -4.4650    2.7560   -0.2060 hn        1 0VD      0.353300
     46 H14         8.7100    0.4630   -0.1170 ha        1 0VD      0.132500
@<TRIPOS>BOND
     1    1    2 1   
     2    1   23 2   
     3    1   26 1   
     4    2    3 1   
     5    2   27 1   
     6    3    4 2   
     7    3   28 1   
     8    4   23 1   
     9    5    6 ar  
    10    5   14 ar  
    11    5   29 1   
    12    6   10 ar  
    13    6   30 1   
    14    7    8 1   
    15    7   23 1   
    16    7   31 1   
    17    7   32 1   
    18    8    9 1   
    19    8   22 1   
    20    8   33 1   
    21    9   13 1   
    22    9   24 2   
    23   10   12 ar  
    24   10   13 1   
    25   11   12 ar  
    26   11   14 ar  
    27   11   34 1   
    28   12   35 1   
    29   13   36 1   
    30   13   37 1   
    31   14   25 1   
    32   15   16 ar  
    33   15   18 ar  
    34   15   46 1   
    35   16   17 ar  
    36   16   38 1   
    37   17   19 ar  
    38   17   39 1   
    39   18   20 ar  
    40   18   40 1   
    41   19   20 ar  
    42   19   41 1   
    43   20   21 1   
    44   21   25 1   
    45   21   42 1   
    46   21   43 1   
    47   22   44 1   
    48   22   45 1   
@<TRIPOS>SUBSTRUCTURE
     1 0VD         1 TEMP              0 ****  ****    0 ROOT
