@<TRIPOS>MOLECULE
0VD
   47    49     1     0     0
SMALL
bcc


@<TRIPOS>ATOM
      1 C1          0.0420    0.0770    3.5240 cc        1 0VD     -0.188600
      2 N1          0.7970   -0.8380    4.2500 na        1 0VD     -0.297900
      3 C2          0.3030   -2.1120    3.9540 cc        1 0VD      0.447400
      4 N2         -0.7200   -2.0430    3.0790 nd        1 0VD     -0.764000
      5 C12        -6.5260   -0.1250    4.9190 ca        1 0VD     -0.180500
      6 C13        -5.6520    0.3720    3.9550 ca        1 0VD     -0.088500
      7 C4         -1.8960   -0.1590    1.8410 c3        1 0VD     -0.102700
      8 C5         -3.2080   -0.9550    1.8470 c3        1 0VD      0.011500
      9 C6         -4.2180   -0.2530    0.9210 c         1 0VD      0.560100
     10 C8         -5.9510    0.2620    2.5940 ca        1 0VD     -0.176300
     11 C10        -8.0380   -0.8440    3.1420 ca        1 0VD     -0.180500
     12 C9         -7.1550   -0.3420    2.1990 ca        1 0VD     -0.088500
     13 C7         -5.0340    0.8260    1.5670 c3        1 0VD     -0.111100
     14 C11        -7.7210   -0.7360    4.5140 ca        1 0VD      0.160100
     15 C19       -11.2800   -3.3190    7.8290 ca        1 0VD     -0.127500
     16 C18       -11.8260   -2.6030    8.8940 ca        1 0VD     -0.112000
     17 C17       -11.2870   -1.3660    9.2510 ca        1 0VD     -0.127500
     18 C20       -10.1920   -2.8050    7.1250 ca        1 0VD     -0.108000
     19 C16       -10.2040   -0.8440    8.5450 ca        1 0VD     -0.108000
     20 C15        -9.6500   -1.5670    7.4820 ca        1 0VD     -0.110300
     21 C14        -8.4640   -1.0160    6.7660 c3        1 0VD      0.178700
     22 N3         -3.0040   -2.3790    1.4310 n4        1 0VD     -0.837600
     23 C3         -0.9000   -0.6800    2.7960 cd        1 0VD      0.236600
     24 O1         -4.3100   -0.6000   -0.2560 o         1 0VD     -0.497100
     25 O2         -8.6500   -1.2840    5.3620 os        1 0VD     -0.313900
     26 H1          0.2170    1.1530    3.5670 h4        1 0VD      0.201000
     27 H2          1.5500   -0.6240    4.8550 hn        1 0VD      0.328700
     28 H3          0.7160   -3.0320    4.3900 h5        1 0VD      0.086100
     29 H5         -6.2760   -0.0200    5.9850 ha        1 0VD      0.159500
     30 H6         -4.7260    0.8730    4.2780 ha        1 0VD      0.138000
     31 H7         -1.4600   -0.1510    0.8020 hc        1 0VD      0.090200
     32 H8         -2.1460    0.9050    2.1100 hc        1 0VD      0.090200
     33 H9         -3.6310   -0.9720    2.9000 hx        1 0VD      0.136700
     34 H10        -8.9880   -1.3120    2.8450 ha        1 0VD      0.159500
     35 H11        -7.4100   -0.4030    1.1290 ha        1 0VD      0.138000
     36 H12        -5.6290    1.3540    0.7700 hc        1 0VD      0.096200
     37 H13        -4.3390    1.5800    2.0280 hc        1 0VD      0.096200
     38 H16       -11.7190   -0.7980   10.0890 ha        1 0VD      0.140000
     39 H17        -9.7640   -3.3620    6.2780 ha        1 0VD      0.135000
     40 H18        -9.7890    0.1360    8.8240 ha        1 0VD      0.135000
     41 H19        -7.5250   -1.5320    7.1060 h1        1 0VD      0.049700
     42 H20        -8.3680    0.0920    6.9220 h1        1 0VD      0.049700
     43 H21        -2.2400   -2.8000    1.9950 hn        1 0VD      0.471467
     44 H22        -2.7520   -2.4080    0.4370 hn        1 0VD      0.471467
     45 H14       -11.7080   -4.2920    7.5430 ha        1 0VD      0.140000
     46 H33        -3.8690   -2.9050    1.5680 hn        1 0VD      0.471467
     47 H15       -12.6830   -3.0110    9.4510 ha        1 0VD      0.141000
@<TRIPOS>BOND
     1    1    2 1   
     2    1   23 2   
     3    1   26 1   
     4    2    3 1   
     5    2   27 1   
     6    3    4 2   
     7    3   28 1   
     8    4   23 1   
     9    5    6 ar  
    10    5   14 ar  
    11    5   29 1   
    12    6   10 ar  
    13    6   30 1   
    14    7    8 1   
    15    7   23 1   
    16    7   31 1   
    17    7   32 1   
    18    8    9 1   
    19    8   22 1   
    20    8   33 1   
    21    9   13 1   
    22    9   24 2   
    23   10   12 ar  
    24   10   13 1   
    25   11   12 ar  
    26   11   14 ar  
    27   11   34 1   
    28   12   35 1   
    29   13   36 1   
    30   13   37 1   
    31   14   25 1   
    32   15   16 ar  
    33   15   18 ar  
    34   15   45 1   
    35   16   17 ar  
    36   16   47 1   
    37   17   19 ar  
    38   17   38 1   
    39   18   20 ar  
    40   18   39 1   
    41   19   20 ar  
    42   19   40 1   
    43   20   21 1   
    44   21   25 1   
    45   21   41 1   
    46   21   42 1   
    47   22   43 1   
    48   22   44 1   
    49   22   46 1   
@<TRIPOS>SUBSTRUCTURE
     1 0VD         1 TEMP              0 ****  ****    0 ROOT
