@<TRIPOS>MOLECULE
0VD
   46    37     1     0     0
SMALL
bcc


@<TRIPOS>ATOM
      1 C1          6.3820   -1.0460   -4.0580 c1        1 0VD     -0.163000
      2 N1          7.6560   -0.6430   -4.0750 n2        1 0VD     -0.206000
      3 C2          7.8520    0.1620   -3.0050 c1        1 0VD     -0.100000
      4 N2          6.6840    0.2480   -2.3300 n2        1 0VD     -0.146000
      5 C12        -1.2150   -0.8700    1.6740 c1        1 0VD     -0.205000
      6 C13         0.1370   -0.7250    1.3350 c1        1 0VD     -0.086000
      7 C4          4.2480   -0.3910   -2.8330 c3        1 0VD     -0.118000
      8 C5          3.8280   -0.7030   -1.3680 c3        1 0VD     -0.066000
      9 C6          2.4150   -0.3300   -1.1780 c1        1 0VD      0.245000
     10 C8          0.5190    0.2050    0.3390 c1        1 0VD     -0.111000
     11 C10        -1.7780    0.8210    0.0400 c1        1 0VD     -0.122500
     12 C9         -0.4280    0.9600   -0.2920 c1        1 0VD     -0.122500
     13 C7          1.9940    0.4610    0.0520 c2        1 0VD     -0.166000
     14 C11        -2.1710   -0.1000    1.0300 c1        1 0VD      0.084000
     15 C19        -7.7750    1.3260    1.9740 c1        1 0VD     -0.122500
     16 C18        -7.8470    1.7790    3.2850 c1        1 0VD     -0.122500
     17 C17        -6.8000    1.5140    4.1750 c1        1 0VD     -0.122500
     18 C20        -6.6540    0.6010    1.5380 c1        1 0VD     -0.122500
     19 C16        -5.6770    0.7900    3.7430 c1        1 0VD     -0.124000
     20 C15        -5.6080    0.3350    2.4230 c1        1 0VD     -0.087000
     21 C14        -4.3760   -0.4350    1.9420 c3        1 0VD      0.017000
     22 N3          3.9870   -2.0970   -1.1080 n3        1 0VD     -0.333000
     23 C3          5.7810   -0.4890   -2.9710 c2        1 0VD     -0.128000
     24 O1          1.5660   -0.6670   -2.0180 o         1 0VD     -0.298000
     25 O2         -3.3820    0.5030    1.4320 o         1 0VD     -0.210000
     26 H1          5.9410   -1.6570   -4.7330 DU        1 0VD      0.211000
     27 H2          8.2540   -0.8600   -4.6710 DU        1 0VD      0.211000
     28 H3          8.6870    0.6020   -2.7620 DU        1 0VD      0.211000
     29 H5         -1.5030   -1.5630    2.4180 ha        1 0VD      0.138000
     30 H6          0.7940   -1.2480    1.7690 ha        1 0VD      0.140000
     31 H7          3.8360   -1.0220   -3.4190 hc        1 0VD      0.104500
     32 H8          3.9600    0.5010   -3.0640 hc        1 0VD      0.104500
     33 H9          4.3990   -0.1750   -0.7390 h1        1 0VD      0.127000
     34 H10        -2.4500    1.3640   -0.4150 ha        1 0VD      0.139500
     35 H11        -0.1520    1.6120   -0.9940 ha        1 0VD      0.139500
     36 H12         2.5400    0.1790    0.8300 ha        1 0VD      0.117500
     37 H13         2.1330    1.4480   -0.1170 ha        1 0VD      0.117500
     38 H14        -8.4860    1.5060    1.3730 ha        1 0VD      0.139500
     39 H15        -8.6570    2.3020    3.5980 ha        1 0VD      0.139500
     40 H16        -6.8500    1.8320    5.0950 ha        1 0VD      0.139500
     41 H17        -6.6100    0.3000    0.6630 ha        1 0VD      0.139500
     42 H18        -4.9400    0.6020    4.3680 ha        1 0VD      0.130000
     43 H19        -3.9780   -0.9600    2.7250 h1        1 0VD      0.088500
     44 H20        -4.6380   -1.0610    1.2210 h1        1 0VD      0.088500
     45 H21         3.5140   -2.5900   -1.7430 hn        1 0VD      0.155000
     46 H22         4.8730   -2.3200   -1.1490 hn        1 0VD      0.155000
@<TRIPOS>BOND
     1    1    2 1   
     2    1   23 1   
     3    2    3 1   
     4    3    4 1   
     5    4   23 1   
     6    5   14 1   
     7    5   29 1   
     8    6   10 1   
     9    6   30 1   
    10    7    8 1   
    11    7   23 1   
    12    7   31 1   
    13    7   32 1   
    14    8    9 1   
    15    8   22 1   
    16    8   33 1   
    17    9   24 1   
    18   10   13 1   
    19   11   12 1   
    20   11   34 1   
    21   12   35 1   
    22   13   36 1   
    23   13   37 1   
    24   15   18 1   
    25   15   38 1   
    26   16   17 1   
    27   16   39 1   
    28   17   40 1   
    29   18   41 1   
    30   19   20 1   
    31   19   42 1   
    32   20   21 1   
    33   21   25 1   
    34   21   43 1   
    35   21   44 1   
    36   22   45 1   
    37   22   46 1   
@<TRIPOS>SUBSTRUCTURE
     1 0VD         1 TEMP              0 ****  ****    0 ROOT
