@<TRIPOS>MOLECULE
0VE
   54    57     1     0     0
SMALL
bcc


@<TRIPOS>ATOM
      1 N1          0.1640   -0.4880    0.6830 na        1 0VE      0.035700
      2 C2          1.6060   -0.3660    0.6730 cc        1 0VE     -0.146600
      3 C3          2.1620    0.8360    1.2440 cc        1 0VE      0.424200
      4 C4         -0.6040    0.5040    1.2540 cc        1 0VE      0.059400
      5 N5          1.4150    1.7890    1.8150 nd        1 0VE     -0.584000
      6 C6          0.0720    1.6140    1.8150 cd        1 0VE      0.322200
      7 N7          2.1870   -1.4410    0.0780 nd        1 0VE     -0.305600
      8 C8         -2.0640    0.4330    1.2810 ca        1 0VE     -0.086000
      9 N9          3.6270    1.0050    1.1480 n4        1 0VE     -0.601100
     10 C10        -0.1140   -1.6960    0.0410 cc        1 0VE     -0.165100
     11 C11         1.1370   -2.2560   -0.3160 cd        1 0VE      0.059600
     12 C12         5.7520   -0.3700    4.5790 ca        1 0VE      0.008600
     13 C13        -2.7910    1.5910    0.9780 ca        1 0VE     -0.123000
     14 N14         6.5460   -0.8610    5.7180 n4        1 0VE     -0.566800
     15 C15         4.3320    0.5180    2.3420 ca        1 0VE      0.007600
     16 C16         5.5880   -1.2160    3.4630 ca        1 0VE     -0.092500
     17 C17         5.1730    0.9090    4.5770 ca        1 0VE     -0.092500
     18 C18        -4.1950    1.5430    1.0170 ca        1 0VE      0.145100
     19 C19         4.8800   -0.7760    2.3480 ca        1 0VE     -0.075500
     20 C20         4.4620    1.3530    3.4640 ca        1 0VE     -0.075500
     21 O21        -4.8400    2.7110    0.7090 oh        1 0VE     -0.477100
     22 C22        -2.7290   -0.7540    1.6230 ca        1 0VE     -0.140000
     23 O23         6.2100   -3.6090    5.4580 oh        1 0VE     -0.631800
     24 C24        -4.1220   -0.7810    1.6640 ca        1 0VE     -0.079000
     25 C25         5.7030   -1.6170    6.7050 c3        1 0VE      0.083800
     26 C26         7.3750    0.2100    6.3810 c3        1 0VE      0.116800
     27 C27        -4.8650    0.3570    1.3600 ca        1 0VE     -0.159000
     28 C28         5.1660   -2.9420    6.1390 c3        1 0VE      0.109400
     29 C29         6.7550    0.8750    7.5900 c3        1 0VE     -0.134100
     30 H1         -0.5120    2.4250    2.2940 h4        1 0VE      0.086100
     31 H2          3.9530    0.4780    0.3190 hn        1 0VE      0.487300
     32 H3         -1.1340   -2.0510   -0.1270 h4        1 0VE      0.226000
     33 H4          1.3130   -3.2020   -0.8400 h4        1 0VE      0.219000
     34 H5         -2.2930    2.5310    0.6950 ha        1 0VE      0.164000
     35 H6          6.0090   -2.2430    3.4580 ha        1 0VE      0.192500
     36 H7          5.2700    1.5900    5.4420 ha        1 0VE      0.192500
     37 H8          4.7570   -1.4610    1.4860 ha        1 0VE      0.198000
     38 H9          4.0060    2.3610    3.4870 ha        1 0VE      0.198000
     39 H10        -5.7980    2.5570    0.7470 ho        1 0VE      0.444000
     40 H11        -2.1610   -1.6590    1.8850 ha        1 0VE      0.140000
     41 H12         6.4000   -4.4410    5.9130 ho        1 0VE      0.456000
     42 H13        -4.6420   -1.7130    1.9400 ha        1 0VE      0.162000
     43 H14         6.3630   -1.8320    7.5950 hx        1 0VE      0.114200
     44 H15         4.8440   -0.9670    7.0270 hx        1 0VE      0.114200
     45 H16         8.3390   -0.2910    6.6970 hx        1 0VE      0.110200
     46 H17         7.6190    0.9820    5.5950 hx        1 0VE      0.110200
     47 H18        -5.9660    0.3290    1.3870 ha        1 0VE      0.165000
     48 H19         4.3580   -2.7480    5.3810 h1        1 0VE      0.087200
     49 H20         4.7450   -3.5400    6.9900 h1        1 0VE      0.087200
     50 H21         7.4180    1.7330    7.8800 hc        1 0VE      0.081367
     51 H22         5.7330    1.2770    7.3910 hc        1 0VE      0.081367
     52 H23         6.6990    0.1800    8.4630 hc        1 0VE      0.081367
     53 H92         3.8470    2.0060    1.0170 hn        1 0VE      0.487300
     54 H141        7.2110   -1.5570    5.3250 hn        1 0VE      0.476800
@<TRIPOS>BOND
     1    1    2 1   
     2    1    4 1   
     3    1   10 1   
     4    2    3 1   
     5    2    7 2   
     6    3    5 2   
     7    3    9 1   
     8    4    6 2   
     9    4    8 1   
    10    5    6 1   
    11    6   30 1   
    12    7   11 1   
    13    8   13 ar  
    14    8   22 ar  
    15    9   15 1   
    16    9   31 1   
    17    9   53 1   
    18   10   11 2   
    19   10   32 1   
    20   11   33 1   
    21   12   14 1   
    22   12   16 ar  
    23   12   17 ar  
    24   13   18 ar  
    25   13   34 1   
    26   14   25 1   
    27   14   26 1   
    28   14   54 1   
    29   15   19 ar  
    30   15   20 ar  
    31   16   19 ar  
    32   16   35 1   
    33   17   20 ar  
    34   17   36 1   
    35   18   21 1   
    36   18   27 ar  
    37   19   37 1   
    38   20   38 1   
    39   21   39 1   
    40   22   24 ar  
    41   22   40 1   
    42   23   28 1   
    43   23   41 1   
    44   24   27 ar  
    45   24   42 1   
    46   25   28 1   
    47   25   43 1   
    48   25   44 1   
    49   26   29 1   
    50   26   45 1   
    51   26   46 1   
    52   27   47 1   
    53   28   48 1   
    54   28   49 1   
    55   29   50 1   
    56   29   51 1   
    57   29   52 1   
@<TRIPOS>SUBSTRUCTURE
     1 0VE         1 TEMP              0 ****  ****    0 ROOT
