@<TRIPOS>MOLECULE
0VE
   52    42     1     0     0
SMALL
bcc


@<TRIPOS>ATOM
      1 N1         -1.6920    1.1390   -3.1270 n1        1 0VE     -0.010000
      2 C2         -0.6130    0.5030   -2.6390 c1        1 0VE     -0.114000
      3 C3         -0.7390   -0.3340   -1.5210 c1        1 0VE      0.206000
      4 C4         -2.9040    0.9710   -2.5350 c1        1 0VE     -0.075000
      5 N5         -1.9410   -0.5000   -0.9360 n1        1 0VE     -0.211000
      6 C6         -3.0270    0.1410   -1.4260 c2        1 0VE     -0.044000
      7 N7          0.4660    0.8270   -3.4310 n1        1 0VE     -0.131000
      8 C8         -4.2130    1.6020   -2.9620 c1        1 0VE      0.008000
      9 N9          0.2640   -1.3020   -1.2500 n3        1 0VE     -0.233000
     10 C10        -1.3010    1.8560   -4.2120 c1        1 0VE     -0.181000
     11 C11         0.0410    1.6540   -4.3920 c1        1 0VE     -0.143000
     12 C12         2.5180   -1.3030    2.2840 c1        1 0VE      0.040000
     13 C13        -4.6840    2.8060   -2.4620 c1        1 0VE     -0.200000
     14 N14         3.3490   -1.3390    3.4380 n3        1 0VE     -0.240000
     15 C15         0.9770   -1.2620   -0.0220 c1        1 0VE      0.026000
     16 C16         1.5630   -2.2850    2.0710 c1        1 0VE     -0.121250
     17 C17         2.7030   -0.3000    1.3450 c1        1 0VE     -0.165000
     18 C18        -5.8750    3.3350   -2.9360 c1        1 0VE      0.082000
     19 C19         0.7930   -2.2650    0.9180 c1        1 0VE     -0.121250
     20 C20         1.9320   -0.2790    0.1920 c1        1 0VE     -0.142000
     21 O21        -6.4610    4.5040   -2.4160 oh        1 0VE     -0.249000
     22 C22        -4.9320    0.9270   -3.9350 c1        1 0VE     -0.121250
     23 O23         6.0690   -3.4450    4.3170 oh        1 0VE     -0.326000
     24 C24        -6.1230    1.4560   -4.4100 c1        1 0VE     -0.121250
     25 C25         3.8840   -2.5780    3.8920 c3        1 0VE     -0.053000
     26 C26         3.6430   -0.1380    4.1390 c3        1 0VE     -0.051000
     27 C27        -6.5940    2.6600   -3.9100 c1        1 0VE     -0.149000
     28 C28         5.2950   -2.7400    3.3700 c3        1 0VE     -0.056000
     29 C29         2.8940   -0.1260    5.4540 c3        1 0VE     -0.217000
     30 H1         -3.8980    0.0200   -1.0020 h4        1 0VE      0.176000
     31 H2          0.4720   -1.9310   -1.8770 hn        1 0VE      0.252000
     32 H3         -1.8760    2.4170   -4.7670 DU        1 0VE      0.188500
     33 H4          0.5840    2.0190   -5.1160 DU        1 0VE      0.188500
     34 H5         -4.1830    3.2770   -1.7690 ha        1 0VE      0.142000
     35 H6          1.4340   -2.9910    2.7320 ha        1 0VE      0.145250
     36 H7          3.3750    0.3920    1.4950 ha        1 0VE      0.134000
     37 H8          0.1200   -2.9570    0.7680 ha        1 0VE      0.145250
     38 H9          2.0620    0.4270   -0.4690 ha        1 0VE      0.133000
     39 H10        -6.0110    5.2150   -2.7030 ho        1 0VE      0.221000
     40 H11        -4.6000    0.0790   -4.2870 ha        1 0VE      0.145250
     41 H12         6.9330   -3.3440    4.1290 ho        1 0VE      0.201000
     42 H13        -6.6290    0.9810   -5.0960 ha        1 0VE      0.145250
     43 H14         3.8950   -2.5890    4.8720 h1        1 0VE      0.108500
     44 H15         3.3280   -3.3140    3.5630 h1        1 0VE      0.108500
     45 H16         4.6060   -0.0880    4.3120 h1        1 0VE      0.074000
     46 H17         3.3670    0.6310    3.6000 h1        1 0VE      0.074000
     47 H18        -7.4320    3.0330   -4.2440 ha        1 0VE      0.154000
     48 H19         5.6900   -1.8570    3.2190 h1        1 0VE      0.065000
     49 H20         5.2770   -3.2390    2.5280 h1        1 0VE      0.065000
     50 H21         3.4880   -0.4300    6.1710 hc        1 0VE      0.082000
     51 H22         2.1200   -0.7250    5.3940 hc        1 0VE      0.082000
     52 H23         2.5880    0.7840    5.6470 hc        1 0VE      0.082000
@<TRIPOS>BOND
     1    1    4 1   
     2    2    3 1   
     3    3    9 1   
     4    4    6 1   
     5    5    6 1   
     6    6   30 1   
     7    7   11 1   
     8    8   13 1   
     9    9   15 1   
    10    9   31 1   
    11   10   11 1   
    12   12   14 1   
    13   12   17 1   
    14   13   34 1   
    15   14   25 1   
    16   14   26 1   
    17   15   20 1   
    18   16   19 1   
    19   16   35 1   
    20   17   36 1   
    21   18   21 1   
    22   18   27 1   
    23   19   37 1   
    24   20   38 1   
    25   21   39 1   
    26   22   24 1   
    27   22   40 1   
    28   23   28 1   
    29   23   41 1   
    30   24   42 1   
    31   25   28 1   
    32   25   43 1   
    33   25   44 1   
    34   26   29 1   
    35   26   45 1   
    36   26   46 1   
    37   27   47 1   
    38   28   48 1   
    39   28   49 1   
    40   29   50 1   
    41   29   51 1   
    42   29   52 1   
@<TRIPOS>SUBSTRUCTURE
     1 0VE         1 TEMP              0 ****  ****    0 ROOT
