@<TRIPOS>MOLECULE
0VE
   52    55     1     0     0
SMALL
bcc


@<TRIPOS>ATOM
      1 N1         -3.1830    1.4170   -0.1370 na        1 0VE      0.066700
      2 C2         -1.8850    2.0100   -0.0810 cc        1 0VE     -0.204600
      3 C3         -0.7060    1.1300   -0.1560 cc        1 0VE      0.728200
      4 C4         -3.3090    0.0340   -0.2440 cc        1 0VE     -0.169600
      5 N5         -0.8620   -0.2070   -0.2410 nd        1 0VE     -0.741000
      6 C6         -2.1300   -0.7080   -0.2860 cd        1 0VE      0.423200
      7 N7         -1.9810    3.3680    0.0530 nd        1 0VE     -0.271600
      8 C8         -4.6230   -0.6060   -0.3170 ca        1 0VE      0.010000
      9 N9          0.5320    1.7570   -0.1940 nh        1 0VE     -0.706300
     10 C10        -4.0980    2.4510   -0.0280 cc        1 0VE     -0.209100
     11 C11        -3.3300    3.6420    0.0850 cd        1 0VE     -0.003400
     12 C12         4.2920   -0.1830    0.3140 ca        1 0VE      0.173600
     13 C13        -4.8700   -1.7380    0.4700 ca        1 0VE     -0.201000
     14 N14         5.5170   -0.8270    0.5350 nh        1 0VE     -0.672000
     15 C15         1.7560    1.0710   -0.0070 ca        1 0VE      0.077600
     16 C16         3.3530   -0.6480   -0.6370 ca        1 0VE     -0.184500
     17 C17         3.9210    0.9390    1.0980 ca        1 0VE     -0.184500
     18 C18        -6.1140   -2.3750    0.3830 ca        1 0VE      0.127100
     19 C19         2.1160   -0.0380   -0.7940 ca        1 0VE     -0.097000
     20 C20         2.6850    1.5460    0.9430 ca        1 0VE     -0.097000
     21 O21        -6.4270   -3.4910    1.1250 oh        1 0VE     -0.495100
     22 C22        -5.6180   -0.1250   -1.1770 ca        1 0VE     -0.157000
     23 O23         7.6370   -1.5570   -1.6100 oh        1 0VE     -0.605800
     24 C24        -6.8520   -0.7720   -1.2520 ca        1 0VE     -0.096000
     25 C25         5.8190   -2.0520   -0.1550 c3        1 0VE      0.210800
     26 C26         6.6560   -0.0350    0.9630 c3        1 0VE      0.200800
     27 C27        -7.1160   -1.8970   -0.4790 ca        1 0VE     -0.150000
     28 C28         6.2700   -1.9330   -1.6210 c3        1 0VE      0.092400
     29 C29         6.9960   -0.2010    2.4380 c3        1 0VE     -0.105100
     30 H1         -2.1800   -1.8090   -0.3680 h4        1 0VE      0.037100
     31 H2          0.5380    2.7150    0.0920 hn        1 0VE      0.454800
     32 H3         -5.1740    2.2890   -0.0280 h4        1 0VE      0.192000
     33 H4         -3.7060    4.6610    0.1870 h4        1 0VE      0.184000
     34 H5         -4.0960   -2.1170    1.1530 ha        1 0VE      0.142000
     35 H6          3.5870   -1.5090   -1.2810 ha        1 0VE      0.134500
     36 H7          4.6090    1.3330    1.8630 ha        1 0VE      0.134500
     37 H8          1.4210   -0.4360   -1.5510 ha        1 0VE      0.142000
     38 H9          2.4390    2.4120    1.5780 ha        1 0VE      0.142000
     39 H10        -5.6640   -3.7050    1.6810 ho        1 0VE      0.421000
     40 H11        -5.4230    0.7550   -1.8080 ha        1 0VE      0.142000
     41 H12         7.9020   -1.4420   -2.5290 ho        1 0VE      0.402000
     42 H13        -7.6260   -0.3880   -1.9350 ha        1 0VE      0.139000
     43 H14         6.6470   -2.5620    0.4190 h1        1 0VE      0.065200
     44 H15         4.9100   -2.7170   -0.1270 h1        1 0VE      0.065200
     45 H16         7.5570   -0.3350    0.3490 h1        1 0VE      0.054700
     46 H17         6.4640    1.0570    0.7560 h1        1 0VE      0.054700
     47 H18        -8.0840   -2.4150   -0.5280 ha        1 0VE      0.154000
     48 H19         5.6630   -1.1730   -2.1800 h1        1 0VE      0.031700
     49 H20         6.1560   -2.9330   -2.1190 h1        1 0VE      0.031700
     50 H21         7.8890    0.4270    2.6700 hc        1 0VE      0.039033
     51 H22         6.1490    0.1230    3.0880 hc        1 0VE      0.039033
     52 H23         7.2350   -1.2650    2.6750 hc        1 0VE      0.039033
@<TRIPOS>BOND
     1    1    2 1   
     2    1    4 1   
     3    1   10 1   
     4    2    3 1   
     5    2    7 2   
     6    3    5 2   
     7    3    9 1   
     8    4    6 2   
     9    4    8 1   
    10    5    6 1   
    11    6   30 1   
    12    7   11 1   
    13    8   13 ar  
    14    8   22 ar  
    15    9   15 1   
    16    9   31 1   
    17   10   11 2   
    18   10   32 1   
    19   11   33 1   
    20   12   14 1   
    21   12   16 ar  
    22   12   17 ar  
    23   13   18 ar  
    24   13   34 1   
    25   14   25 1   
    26   14   26 1   
    27   15   19 ar  
    28   15   20 ar  
    29   16   19 ar  
    30   16   35 1   
    31   17   20 ar  
    32   17   36 1   
    33   18   21 1   
    34   18   27 ar  
    35   19   37 1   
    36   20   38 1   
    37   21   39 1   
    38   22   24 ar  
    39   22   40 1   
    40   23   28 1   
    41   23   41 1   
    42   24   27 ar  
    43   24   42 1   
    44   25   28 1   
    45   25   43 1   
    46   25   44 1   
    47   26   29 1   
    48   26   45 1   
    49   26   46 1   
    50   27   47 1   
    51   28   48 1   
    52   28   49 1   
    53   29   50 1   
    54   29   51 1   
    55   29   52 1   
@<TRIPOS>SUBSTRUCTURE
     1 0VE         1 TEMP              0 ****  ****    0 ROOT
