@<TRIPOS>MOLECULE
0VE
   52    55     1     0     0
SMALL
bcc


@<TRIPOS>ATOM
      1 N1         -0.1650    0.0670   -0.0150 na        1 0VE      0.067700
      2 C2          1.2560   -0.0020    0.1130 cc        1 0VE     -0.203600
      3 C3          1.8320   -0.2260    1.4490 cc        1 0VE      0.727200
      4 C4         -0.9690   -0.0650    1.1150 cc        1 0VE     -0.170600
      5 N5          1.0270   -0.3290    2.5270 nd        1 0VE     -0.739000
      6 C6         -0.3210   -0.2500    2.3350 cd        1 0VE      0.426200
      7 N7          1.8570    0.1800   -1.1030 nd        1 0VE     -0.272600
      8 C8         -2.4290   -0.0190    1.0200 ca        1 0VE      0.006000
      9 N9          3.2110   -0.3810    1.5100 nh        1 0VE     -0.705300
     10 C10        -0.4340    0.3020   -1.3530 cc        1 0VE     -0.210100
     11 C11         0.8300    0.3650   -2.0010 cd        1 0VE     -0.003400
     12 C12         5.5390   -0.3140    5.0780 ca        1 0VE      0.173600
     13 C13        -3.1430    0.7440    1.9500 ca        1 0VE     -0.144000
     14 N14         6.2960   -0.2370    6.2550 nh        1 0VE     -0.673000
     15 C15         3.9430   -0.3390    2.7200 ca        1 0VE      0.077600
     16 C16         4.4200   -1.1710    4.9520 ca        1 0VE     -0.184500
     17 C17         5.8380    0.5280    3.9780 ca        1 0VE     -0.184500
     18 C18        -4.5460    0.7610    1.8830 ca        1 0VE      0.127100
     19 C19         3.6410   -1.1840    3.8040 ca        1 0VE     -0.097000
     20 C20         5.0590    0.5180    2.8330 ca        1 0VE     -0.097000
     21 O21        -5.1890    1.5280    2.8280 oh        1 0VE     -0.495100
     22 C22        -3.1130   -0.7500    0.0370 ca        1 0VE     -0.159000
     23 O23         7.5900   -2.6070    7.7850 oh        1 0VE     -0.605800
     24 C24        -4.5050   -0.7190   -0.0150 ca        1 0VE     -0.090000
     25 C25         5.8920   -0.9790    7.4190 c3        1 0VE      0.211800
     26 C26         7.7080    0.0850    6.1580 c3        1 0VE      0.201800
     27 C27        -5.2340    0.0340    0.9020 ca        1 0VE     -0.208000
     28 C28         6.2220   -2.4810    7.4360 c3        1 0VE      0.092400
     29 C29         8.0400    1.5120    6.5740 c3        1 0VE     -0.105100
     30 H1         -0.9170   -0.3510    3.2610 h4        1 0VE      0.040100
     31 H2          3.7130   -0.0710    0.7030 hn        1 0VE      0.453800
     32 H3         -1.4440    0.4160   -1.7400 h4        1 0VE      0.191000
     33 H4          1.0180    0.5350   -3.0610 h4        1 0VE      0.183000
     34 H5         -2.6270    1.3300    2.7240 ha        1 0VE      0.158000
     35 H6          4.1430   -1.8540    5.7700 ha        1 0VE      0.134500
     36 H7          6.6900    1.2250    4.0280 ha        1 0VE      0.134500
     37 H8          2.7820   -1.8720    3.7550 ha        1 0VE      0.142000
     38 H9          5.3270    1.1940    2.0050 ha        1 0VE      0.142000
     39 H10        -6.1410    1.4600    2.6690 ho        1 0VE      0.421000
     40 H11        -2.5520   -1.3630   -0.6840 ha        1 0VE      0.143000
     41 H12         7.8020   -3.5460    7.7520 ho        1 0VE      0.401000
     42 H13        -5.0350   -1.2980   -0.7870 ha        1 0VE      0.137000
     43 H14         6.4010   -0.5050    8.3090 h1        1 0VE      0.065200
     44 H15         4.7790   -0.8690    7.5500 h1        1 0VE      0.065200
     45 H16         8.2890   -0.6260    6.8190 h1        1 0VE      0.054700
     46 H17         8.0680   -0.0770    5.1020 h1        1 0VE      0.054700
     47 H18        -6.3320    0.0580    0.8600 ha        1 0VE      0.137000
     48 H19         5.5860   -2.9850    8.2130 h1        1 0VE      0.031200
     49 H20         6.0290   -2.9590    6.4390 h1        1 0VE      0.031200
     50 H21         7.5220    2.2550    5.9220 hc        1 0VE      0.039033
     51 H22         7.7370    1.7000    7.6310 hc        1 0VE      0.039033
     52 H23         9.1430    1.6620    6.4850 hc        1 0VE      0.039033
@<TRIPOS>BOND
     1    1    2 1   
     2    1    4 1   
     3    1   10 1   
     4    2    3 1   
     5    2    7 2   
     6    3    5 2   
     7    3    9 1   
     8    4    6 2   
     9    4    8 1   
    10    5    6 1   
    11    6   30 1   
    12    7   11 1   
    13    8   13 ar  
    14    8   22 ar  
    15    9   15 1   
    16    9   31 1   
    17   10   11 2   
    18   10   32 1   
    19   11   33 1   
    20   12   14 1   
    21   12   16 ar  
    22   12   17 ar  
    23   13   18 ar  
    24   13   34 1   
    25   14   25 1   
    26   14   26 1   
    27   15   19 ar  
    28   15   20 ar  
    29   16   19 ar  
    30   16   35 1   
    31   17   20 ar  
    32   17   36 1   
    33   18   21 1   
    34   18   27 ar  
    35   19   37 1   
    36   20   38 1   
    37   21   39 1   
    38   22   24 ar  
    39   22   40 1   
    40   23   28 1   
    41   23   41 1   
    42   24   27 ar  
    43   24   42 1   
    44   25   28 1   
    45   25   43 1   
    46   25   44 1   
    47   26   29 1   
    48   26   45 1   
    49   26   46 1   
    50   27   47 1   
    51   28   48 1   
    52   28   49 1   
    53   29   50 1   
    54   29   51 1   
    55   29   52 1   
@<TRIPOS>SUBSTRUCTURE
     1 0VE         1 TEMP              0 ****  ****    0 ROOT
