@<TRIPOS>MOLECULE
0VE
   52    55     1     0     0
SMALL
bcc


@<TRIPOS>ATOM
      1 N1         -0.1530    0.0320   -0.0880 na        1 0VE      0.066700
      2 C2          1.2660   -0.0380    0.0570 cc        1 0VE     -0.204600
      3 C3          1.8270   -0.2420    1.4030 cc        1 0VE      0.728200
      4 C4         -0.9700   -0.0780    1.0350 cc        1 0VE     -0.169600
      5 N5          1.0100   -0.3260    2.4730 nd        1 0VE     -0.741000
      6 C6         -0.3360   -0.2470    2.2640 cd        1 0VE      0.423200
      7 N7          1.8810    0.1200   -1.1560 nd        1 0VE     -0.271600
      8 C8         -2.4280   -0.0240    0.9220 ca        1 0VE      0.010000
      9 N9          3.2040   -0.3980    1.4820 nu        1 0VE     -0.706300
     10 C10        -0.4070    0.2440   -1.4330 cc        1 0VE     -0.209100
     11 C11         0.8640    0.2930   -2.0680 cd        1 0VE     -0.003400
     12 C12         5.4930   -0.2970    5.0740 ca        1 0VE      0.173600
     13 C13        -3.1480    0.7720    1.8230 ca        1 0VE     -0.201000
     14 N14         6.2380   -0.2080    6.2580 nh        1 0VE     -0.672000
     15 C15         3.9230   -0.3440    2.6990 ca        1 0VE      0.077600
     16 C16         4.3740   -1.1530    4.9450 ca        1 0VE     -0.184500
     17 C17         5.8060    0.5340    3.9680 ca        1 0VE     -0.184500
     18 C18        -4.5460    0.8040    1.7420 ca        1 0VE      0.127100
     19 C19         3.6070   -1.1770    3.7880 ca        1 0VE     -0.097000
     20 C20         5.0400    0.5120    2.8150 ca        1 0VE     -0.097000
     21 O21        -5.3180    1.5620    2.5920 oh        1 0VE     -0.495100
     22 C22        -3.1090   -0.7730   -0.0440 ca        1 0VE     -0.157000
     23 O23         7.5140   -2.5660    7.8210 oh        1 0VE     -0.605800
     24 C24        -4.5020   -0.7300   -0.1110 ca        1 0VE     -0.096000
     25 C25         5.8210   -0.9400    7.4250 c3        1 0VE      0.210800
     26 C26         7.6510    0.1110    6.1740 c3        1 0VE      0.200800
     27 C27        -5.2350    0.0540    0.7740 ca        1 0VE     -0.150000
     28 C28         6.1490   -2.4420    7.4570 c3        1 0VE      0.092400
     29 C29         7.9790    1.5420    6.5780 c3        1 0VE     -0.105100
     30 H1         -0.9420   -0.3360    3.1840 h4        1 0VE      0.037100
     31 H2          3.7170   -0.1040    0.6750 hn        1 0VE      0.454800
     32 H3         -1.4130    0.3520   -1.8330 h4        1 0VE      0.192000
     33 H4          1.0650    0.4430   -3.1290 h4        1 0VE      0.184000
     34 H5         -2.6200    1.3690    2.5800 ha        1 0VE      0.142000
     35 H6          4.0870   -1.8270    5.7660 ha        1 0VE      0.134500
     36 H7          6.6590    1.2290    4.0210 ha        1 0VE      0.134500
     37 H8          2.7480   -1.8640    3.7370 ha        1 0VE      0.142000
     38 H9          5.3180    1.1790    1.9820 ha        1 0VE      0.142000
     39 H10        -4.7260    2.0350    3.1950 ho        1 0VE      0.421000
     40 H11        -2.5490   -1.4110   -0.7440 ha        1 0VE      0.142000
     41 H12         7.7260   -3.5060    7.7970 ho        1 0VE      0.402000
     42 H13        -5.0290   -1.3260   -0.8720 ha        1 0VE      0.139000
     43 H14         6.3210   -0.4590    8.3160 h1        1 0VE      0.065200
     44 H15         4.7070   -0.8290    7.5430 h1        1 0VE      0.065200
     45 H16         8.0220   -0.0620    5.1220 h1        1 0VE      0.054700
     46 H17         8.2230   -0.5940    6.8470 h1        1 0VE      0.054700
     47 H18        -6.3320    0.0980    0.7320 ha        1 0VE      0.154000
     48 H19         5.9660   -2.9290    6.4630 h1        1 0VE      0.031700
     49 H20         5.5060   -2.9390    8.2330 h1        1 0VE      0.031700
     50 H21         7.4690    2.2790    5.9130 hc        1 0VE      0.039033
     51 H22         9.0830    1.6910    6.4990 hc        1 0VE      0.039033
     52 H23         7.6650    1.7420    7.6300 hc        1 0VE      0.039033
@<TRIPOS>BOND
     1    1    2 1   
     2    1    4 1   
     3    1   10 1   
     4    2    3 1   
     5    2    7 2   
     6    3    5 2   
     7    3    9 1   
     8    4    6 2   
     9    4    8 1   
    10    5    6 1   
    11    6   30 1   
    12    7   11 1   
    13    8   13 ar  
    14    8   22 ar  
    15    9   15 1   
    16    9   31 1   
    17   10   11 2   
    18   10   32 1   
    19   11   33 1   
    20   12   14 1   
    21   12   16 ar  
    22   12   17 ar  
    23   13   18 ar  
    24   13   34 1   
    25   14   25 1   
    26   14   26 1   
    27   15   19 ar  
    28   15   20 ar  
    29   16   19 ar  
    30   16   35 1   
    31   17   20 ar  
    32   17   36 1   
    33   18   21 1   
    34   18   27 ar  
    35   19   37 1   
    36   20   38 1   
    37   21   39 1   
    38   22   24 ar  
    39   22   40 1   
    40   23   28 1   
    41   23   41 1   
    42   24   27 ar  
    43   24   42 1   
    44   25   28 1   
    45   25   43 1   
    46   25   44 1   
    47   26   29 1   
    48   26   45 1   
    49   26   46 1   
    50   27   47 1   
    51   28   48 1   
    52   28   49 1   
    53   29   50 1   
    54   29   51 1   
    55   29   52 1   
@<TRIPOS>SUBSTRUCTURE
     1 0VE         1 TEMP              0 ****  ****    0 ROOT
