@<TRIPOS>MOLECULE
0VF
   60    52     1     0     0
SMALL
bcc


@<TRIPOS>ATOM
      1 C1          0.3850    1.5710   -0.1920 c1        1 0VF      0.222000
      2 N2          1.7870    1.5600   -0.2020 n2        1 0VF     -0.303000
      3 N3         -0.2970    1.5580    1.0030 n1        1 0VF     -0.221000
      4 C4          2.4800    1.5370    0.9750 c1        1 0VF      0.249000
      5 C5          0.3870    1.5350    2.1750 c1        1 0VF     -0.210000
      6 C6          1.8030    1.5250    2.1680 c1        1 0VF     -0.210000
      7 N7         -0.0750    1.2740   -1.5560 n2        1 0VF     -0.238000
      8 N8          2.3130    1.5600    3.6730 n1        1 0VF     -0.049000
      9 S9         -0.0790    1.5780    3.6500 s         1 0VF      0.442000
     10 C10        -4.2760   -0.0760   -2.7950 c1        1 0VF      0.365000
     11 N11         3.8980    1.6720    1.0950 n3        1 0VF     -0.240000
     12 C12         1.1790    1.5910    4.5310 c1        1 0VF     -0.349000
     13 N13        -3.2910    0.8170   -2.2330 n2        1 0VF     -0.393000
     14 C14        -9.7090   -0.3970   -0.7430 c1        1 0VF      0.354000
     15 C15         5.1640   -0.0750    2.2900 c1        1 0VF     -0.136000
     16 C16         5.8870   -1.2610    2.2670 c1        1 0VF      0.052000
     17 C17        -1.0320    0.3910   -1.5110 c3        1 0VF     -0.043000
     18 C18        -5.6990   -0.0870   -2.2430 c2        1 0VF     -0.161000
     19 C19         4.7350    0.5000    1.0990 c2        1 0VF      0.054000
     20 C20        -8.2960   -0.2750   -1.2750 c1        1 0VF     -0.074000
     21 C21        -0.7100    2.5820   -2.2030 c3        1 0VF     -0.020000
     22 C22        -2.0000    0.7780   -2.6800 c3        1 0VF      0.025000
     23 C23         6.1810   -1.8710    1.0550 c1        1 0VF      0.032000
     24 O24        -3.9530   -0.8700   -3.6730 o         1 0VF     -0.392000
     25 O25        -9.9430   -0.1940    0.4770 o         1 0VF     -0.557000
     26 C26        -1.5560    2.1610   -3.1400 c3        1 0VF     -0.195000
     27 C27        -6.1210   -1.2470   -1.6030 c2        1 0VF     -0.101000
     28 C28        -6.5740    0.9780   -2.4000 c1        1 0VF     -0.132000
     29 C29        -7.8740    0.8850   -1.9160 c1        1 0VF     -0.120000
     30 C30        -7.4200   -1.3400   -1.1190 c2        1 0VF     -0.121000
     31 C31         5.7530   -1.2980   -0.1300 c2        1 0VF     -0.112000
     32 O32       -10.6550   -0.6640   -1.5280 o         1 0VF     -0.557000
     33 C33         5.0270   -0.1070   -0.1070 c2        1 0VF     -0.164000
     34 O34         6.5170   -1.9340    3.3700 o         1 0VF     -0.213000
     35 O35         7.1170   -2.8830    0.9700 o         1 0VF     -0.213000
     36 C36         5.6190   -2.2360    4.4620 c3        1 0VF     -0.076000
     37 C37         6.5820   -4.1200    0.5570 c3        1 0VF     -0.076000
     38 H1          4.2730    2.5030    1.1780 hn        1 0VF      0.226000
     39 H2          1.1960    1.6370    5.4990 DU        1 0VF      0.185000
     40 H3         -3.5340    1.4210   -1.6070 hn        1 0VF      0.229000
     41 H4          5.0420    0.3960    3.1200 ha        1 0VF      0.158000
     42 H5         -1.5000    0.4400   -0.6520 h1        1 0VF      0.107500
     43 H6         -0.6690   -0.5180   -1.6530 h1        1 0VF      0.107500
     44 H7          0.0020    3.1410   -2.6130 h1        1 0VF      0.093000
     45 H8         -1.1950    3.1000   -1.5160 h1        1 0VF      0.093000
     46 H9         -1.9150    0.1300   -3.4190 h1        1 0VF      0.139000
     47 H10        -1.0980    2.1020   -4.0140 hc        1 0VF      0.100500
     48 H11        -2.3320    2.7680   -3.1990 hc        1 0VF      0.100500
     49 H12        -5.5320   -2.0180   -1.5600 ha        1 0VF      0.130000
     50 H13        -6.3050    1.7520   -2.9240 ha        1 0VF      0.106000
     51 H14        -8.4770    1.6520   -1.9840 ha        1 0VF      0.158000
     52 H15        -7.5510   -2.2330   -0.7490 ha        1 0VF      0.159000
     53 H16         5.9660   -1.5550   -1.0510 ha        1 0VF      0.148000
     54 H18         4.7430    0.3090   -0.9460 ha        1 0VF      0.140000
     55 H19         5.4890   -1.4330    5.0120 h1        1 0VF      0.083833
     56 H20         4.7540   -2.5300    4.1020 h1        1 0VF      0.083833
     57 H21         6.0090   -2.9600    5.0210 h1        1 0VF      0.083833
     58 H22         6.1230   -4.0050   -0.2980 h1        1 0VF      0.083833
     59 H23         7.3110   -4.7760    0.4540 h1        1 0VF      0.083833
     60 H24         5.9440   -4.4420    1.2300 h1        1 0VF      0.083833
@<TRIPOS>BOND
     1    1    2 1   
     2    1    3 1   
     3    2    4 1   
     4    4   11 1   
     5    5    6 1   
     6    7   17 1   
     7    7   21 1   
     8    8   12 1   
     9    9   12 1   
    10   10   18 1   
    11   10   24 1   
    12   11   19 1   
    13   11   38 1   
    14   13   22 1   
    15   13   40 1   
    16   14   25 1   
    17   14   32 1   
    18   15   19 1   
    19   15   41 1   
    20   16   23 1   
    21   17   22 1   
    22   17   42 1   
    23   17   43 1   
    24   18   27 1   
    25   18   28 1   
    26   19   33 1   
    27   20   29 1   
    28   20   30 1   
    29   21   26 1   
    30   21   44 1   
    31   21   45 1   
    32   22   26 1   
    33   22   46 1   
    34   23   31 1   
    35   26   47 1   
    36   26   48 1   
    37   27   30 1   
    38   27   49 1   
    39   28   50 1   
    40   29   51 1   
    41   30   52 1   
    42   31   33 1   
    43   31   53 1   
    44   33   54 1   
    45   34   36 1   
    46   35   37 1   
    47   36   55 1   
    48   36   56 1   
    49   36   57 1   
    50   37   58 1   
    51   37   59 1   
    52   37   60 1   
@<TRIPOS>SUBSTRUCTURE
     1 0VF         1 TEMP              0 ****  ****    0 ROOT
