@<TRIPOS>MOLECULE
0VF
   60    64     1     0     0
SMALL
bcc


@<TRIPOS>ATOM
      1 C1         -0.0650   -0.2660    0.8080 ca        1 0VF      0.943900
      2 N2          1.2740   -0.2720    0.4020 nb        1 0VF     -0.817000
      3 N3         -0.5160   -0.4230    2.1190 nb        1 0VF     -0.752000
      4 C4          2.2290   -0.4230    1.3510 ca        1 0VF      0.783200
      5 C5          0.4500   -0.5520    3.0370 ca        1 0VF      0.507600
      6 C6          1.8620   -0.5540    2.7440 ca        1 0VF     -0.281200
      7 N7         -1.0160   -0.0370   -0.1740 nh        1 0VF     -0.749300
      8 N8          2.7000   -0.6890    3.8490 nc        1 0VF     -0.491100
      9 S9          0.2500   -0.7350    4.7230 ss        1 0VF     -0.106500
     10 N11         3.5780   -0.5050    1.0160 nh        1 0VF     -0.724300
     11 C12         1.9630   -0.7930    4.9360 cd        1 0VF      0.297100
     12 C14        -9.0110    5.2610   -2.1440 c         1 0VF      0.905200
     13 C15         5.2290    0.6670   -0.3350 ca        1 0VF     -0.216000
     14 C16         5.8160    0.9380   -1.5660 ca        1 0VF      0.117100
     15 C17        -2.4390   -0.1790    0.0700 c3        1 0VF      0.196800
     16 C18        -6.3430    1.8640   -1.8610 ca        1 0VF     -0.181600
     17 C19         4.1050   -0.1930   -0.2560 ca        1 0VF      0.142600
     18 C20        -8.0770    4.0600   -2.0510 ca        1 0VF     -0.094600
     19 C21        -0.6940   -0.0320   -1.5890 c3        1 0VF      0.218800
     20 C22        -3.1590   -0.1370   -1.3190 c3        1 0VF      0.100700
     21 C23         5.2900    0.3600   -2.7510 ca        1 0VF      0.088100
     22 O24        -5.8680   -0.4950   -1.8810 o         1 0VF     -0.630100
     23 O25       -10.1940    5.1190   -1.7260 o         1 0VF     -0.822300
     24 C26        -2.0160   -0.0460   -2.3640 c3        1 0VF     -0.116400
     25 C27        -7.6750    1.7490   -1.4400 ca        1 0VF     -0.116500
     26 C28        -5.8870    3.0770   -2.3950 ca        1 0VF     -0.116500
     27 C29        -6.7510    4.1630   -2.4880 ca        1 0VF     -0.120500
     28 C30        -8.5310    2.8440   -1.5310 ca        1 0VF     -0.120500
     29 C31         4.1860   -0.4860   -2.6660 ca        1 0VF     -0.167000
     30 O32        -8.5460    6.3280   -2.6330 o         1 0VF     -0.822300
     31 C33         3.5990   -0.7680   -1.4330 ca        1 0VF     -0.114000
     32 O35         5.9520    0.6870   -3.9180 os        1 0VF     -0.305900
     33 C36         7.3540    2.4750   -0.6020 c3        1 0VF      0.110700
     34 C37         5.3450    0.2300   -5.1210 c3        1 0VF      0.110700
     35 H1          4.2130   -0.3880    1.7790 hn        1 0VF      0.453800
     36 H2          2.4100   -0.9090    5.9270 h5        1 0VF      0.056800
     37 H3         -3.8170    1.8440   -1.2900 hn        1 0VF      0.315500
     38 H4          5.6370    1.1230    0.5800 ha        1 0VF      0.140000
     39 H5         -2.6650   -1.1600    0.5730 h1        1 0VF      0.068700
     40 H6         -2.7780    0.6470    0.7540 h1        1 0VF      0.068700
     41 H7         -0.0660   -0.9270   -1.8610 h1        1 0VF      0.054200
     42 H8         -0.0950    0.8910   -1.8230 h1        1 0VF      0.054200
     43 H9         -3.7010   -1.1200   -1.4590 h1        1 0VF      0.099700
     44 H10        -2.0970    0.8720   -2.9960 hc        1 0VF      0.060700
     45 H11        -2.0590   -0.9320   -3.0420 hc        1 0VF      0.060700
     46 H12        -8.0310    0.7870   -1.0440 ha        1 0VF      0.118000
     47 H13        -4.8550    3.1760   -2.7620 ha        1 0VF      0.118000
     48 H14        -6.4160    5.1260   -2.9080 ha        1 0VF      0.158500
     49 H15        -9.5800    2.7770   -1.1990 ha        1 0VF      0.158500
     50 H16         3.7640   -0.9440   -3.5720 ha        1 0VF      0.141000
     51 H18         2.7310   -1.4450   -1.4030 ha        1 0VF      0.157000
     52 H19         6.5280    3.1090   -0.1980 h1        1 0VF      0.043033
     53 H20         8.1840    3.1120   -1.0000 h1        1 0VF      0.043033
     54 H21         7.7370    1.7820    0.1870 h1        1 0VF      0.043033
     55 H22         4.2990    0.6120   -5.2110 h1        1 0VF      0.042700
     56 H23         5.3590   -0.8860   -5.1690 h1        1 0VF      0.042700
     57 H24         5.9950    0.6660   -5.9210 h1        1 0VF      0.042700
     58 N13        -4.1270    0.9120   -1.4200 n         1 0VF     -0.583900
     59 C10        -5.4620    0.6780   -1.7380 c         1 0VF      0.691700
     60 O34         6.9250    1.7430   -1.7440 os        1 0VF     -0.305900
@<TRIPOS>BOND
     1    1    2 ar  
     2    1    3 ar  
     3    1    7 1   
     4    2    4 ar  
     5    3    5 ar  
     6    4    6 ar  
     7    4   10 1   
     8    5    6 ar  
     9    5    9 1   
    10    6    8 1   
    11    7   15 1   
    12    7   19 1   
    13    8   11 2   
    14    9   11 1   
    15   10   17 1   
    16   10   35 1   
    17   11   36 1   
    18   12   18 1   
    19   12   23 1   
    20   12   30 1   
    21   13   14 ar  
    22   13   17 ar  
    23   13   38 1   
    24   14   21 ar  
    25   14   60 1   
    26   15   20 1   
    27   15   39 1   
    28   15   40 1   
    29   16   25 ar  
    30   16   26 ar  
    31   16   59 1   
    32   17   31 ar  
    33   18   27 ar  
    34   18   28 ar  
    35   19   24 1   
    36   19   41 1   
    37   19   42 1   
    38   20   24 1   
    39   20   43 1   
    40   20   58 1   
    41   21   29 ar  
    42   21   32 1   
    43   22   59 2   
    44   24   44 1   
    45   24   45 1   
    46   25   28 ar  
    47   25   46 1   
    48   26   27 ar  
    49   26   47 1   
    50   27   48 1   
    51   28   49 1   
    52   29   31 ar  
    53   29   50 1   
    54   31   51 1   
    55   32   34 1   
    56   33   52 1   
    57   33   53 1   
    58   33   54 1   
    59   33   60 1   
    60   34   55 1   
    61   34   56 1   
    62   34   57 1   
    63   37   58 1   
    64   58   59 1   
@<TRIPOS>SUBSTRUCTURE
     1 0VF         1 TEMP              0 ****  ****    0 ROOT
