@<TRIPOS>MOLECULE
0VF
   60    64     1     0     0
SMALL
bcc


@<TRIPOS>ATOM
      1 C1          1.0070   -1.3790   -0.8960 ca        1 0VF      0.943900
      2 N2          2.3080   -0.9290   -0.6500 nb        1 0VF     -0.817000
      3 N3          0.6250   -2.7130   -1.0400 nb        1 0VF     -0.752000
      4 C4          3.2920   -1.8520   -0.5180 ca        1 0VF      0.783200
      5 C5          1.6120   -3.6040   -0.8860 ca        1 0VF      0.507600
      6 C6          2.9870   -3.2630   -0.6120 ca        1 0VF     -0.281200
      7 N7          0.0120   -0.4180   -0.9540 nh        1 0VF     -0.749300
      8 N8          3.8540   -4.3450   -0.4770 nc        1 0VF     -0.491100
      9 S9          1.4880   -5.3050   -0.9720 ss        1 0VF     -0.106500
     10 N11         4.6200   -1.4770   -0.3380 nh        1 0VF     -0.724300
     11 C12         3.1770   -5.4610   -0.6470 cd        1 0VF      0.297100
     12 C14        -8.9640    1.6610    2.3610 c         1 0VF      0.905200
     13 C15         5.9560    0.0150    1.0450 ca        1 0VF     -0.216000
     14 C16         6.4490    1.2830    1.3350 ca        1 0VF      0.117100
     15 C17        -1.3430   -0.7220   -1.3740 c3        1 0VF      0.196800
     16 C18        -5.6280    1.2190   -0.3630 ca        1 0VF     -0.181600
     17 C19         5.0440   -0.1670   -0.0250 ca        1 0VF      0.142600
     18 C20        -7.7930    1.5110    1.3950 ca        1 0VF     -0.094600
     19 C21         0.2990    1.0050   -0.9940 c3        1 0VF      0.218800
     20 C22        -2.0820    0.6410   -1.5970 c3        1 0VF      0.100700
     21 C23         6.0360    2.4020    0.5650 ca        1 0VF      0.088100
     22 O24        -4.6620    1.0800   -2.5620 o         1 0VF     -0.630100
     23 O25       -10.0810    1.1920    2.0070 o         1 0VF     -0.822300
     24 C26        -1.0040    1.7290   -1.3510 c3        1 0VF     -0.116400
     25 C27        -6.8970    0.7440   -0.7220 ca        1 0VF     -0.116500
     26 C28        -5.4500    1.8570    0.8720 ca        1 0VF     -0.116500
     27 C29        -6.5280    2.0010    1.7410 ca        1 0VF     -0.120500
     28 C30        -7.9680    0.8860    0.1560 ca        1 0VF     -0.120500
     29 C31         5.1420    2.2160   -0.4860 ca        1 0VF     -0.167000
     30 O32        -8.7450    2.2430    3.4600 o         1 0VF     -0.822300
     31 C33         4.6510    0.9450   -0.7860 ca        1 0VF     -0.114000
     32 O35         6.5910    3.6140    0.9310 os        1 0VF     -0.305900
     33 C36         7.6390    0.4900    3.2350 c3        1 0VF      0.110700
     34 C37         6.0730    4.7570    0.2610 c3        1 0VF      0.110700
     35 H1          5.2290   -2.2060   -0.0290 hn        1 0VF      0.453800
     36 H2          3.6570   -6.4420   -0.5860 h5        1 0VF      0.056800
     37 H3         -3.1450    0.7370    0.1960 hn        1 0VF      0.315500
     38 H4          6.2740   -0.8480    1.6490 ha        1 0VF      0.140000
     39 H5         -1.3450   -1.3030   -2.3370 h1        1 0VF      0.068700
     40 H6         -1.8390   -1.3540   -0.5870 h1        1 0VF      0.068700
     41 H7          0.6810    1.3280    0.0130 h1        1 0VF      0.054200
     42 H8          1.0990    1.2310   -1.7540 h1        1 0VF      0.054200
     43 H9         -2.4040    0.6880   -2.6800 h1        1 0VF      0.099700
     44 H10        -1.2910    2.4260   -0.5260 hc        1 0VF      0.060700
     45 H11        -0.8690    2.3370   -2.2780 hc        1 0VF      0.060700
     46 H12        -7.0330    0.2650   -1.7030 ha        1 0VF      0.118000
     47 H13        -4.4710    2.2660    1.1570 ha        1 0VF      0.118000
     48 H14        -6.4140    2.5020    2.7160 ha        1 0VF      0.158500
     49 H15        -8.9730    0.5140   -0.1030 ha        1 0VF      0.158500
     50 H16         4.8100    3.0710   -1.0940 ha        1 0VF      0.141000
     51 H18         3.9490    0.8350   -1.6270 ha        1 0VF      0.157000
     52 H19         6.7050    0.1050    3.7100 h1        1 0VF      0.043033
     53 H20         8.1760   -0.3340    2.7040 h1        1 0VF      0.043033
     54 H21         8.3060    0.9640    4.0000 h1        1 0VF      0.043033
     55 H22         6.3250    4.7220   -0.8270 h1        1 0VF      0.042700
     56 H23         4.9680    4.8370    0.4040 h1        1 0VF      0.042700
     57 H24         6.6000    5.6090    0.7600 h1        1 0VF      0.042700
     58 N13        -3.2530    0.7860   -0.7880 n         1 0VF     -0.583900
     59 C10        -4.5130    1.0380   -1.3220 c         1 0VF      0.691700
     60 O34         7.3550    1.5590    2.3410 os        1 0VF     -0.305900
@<TRIPOS>BOND
     1    1    2 ar  
     2    1    3 ar  
     3    1    7 1   
     4    2    4 ar  
     5    3    5 ar  
     6    4    6 ar  
     7    4   10 1   
     8    5    6 ar  
     9    5    9 1   
    10    6    8 1   
    11    7   15 1   
    12    7   19 1   
    13    8   11 2   
    14    9   11 1   
    15   10   17 1   
    16   10   35 1   
    17   11   36 1   
    18   12   18 1   
    19   12   23 1   
    20   12   30 1   
    21   13   14 ar  
    22   13   17 ar  
    23   13   38 1   
    24   14   21 ar  
    25   14   60 1   
    26   15   20 1   
    27   15   39 1   
    28   15   40 1   
    29   16   25 ar  
    30   16   26 ar  
    31   16   59 1   
    32   17   31 ar  
    33   18   27 ar  
    34   18   28 ar  
    35   19   24 1   
    36   19   41 1   
    37   19   42 1   
    38   20   24 1   
    39   20   43 1   
    40   20   58 1   
    41   21   29 ar  
    42   21   32 1   
    43   22   59 2   
    44   24   44 1   
    45   24   45 1   
    46   25   28 ar  
    47   25   46 1   
    48   26   27 ar  
    49   26   47 1   
    50   27   48 1   
    51   28   49 1   
    52   29   31 ar  
    53   29   50 1   
    54   31   51 1   
    55   32   34 1   
    56   33   52 1   
    57   33   53 1   
    58   33   54 1   
    59   33   60 1   
    60   34   55 1   
    61   34   56 1   
    62   34   57 1   
    63   37   58 1   
    64   58   59 1   
@<TRIPOS>SUBSTRUCTURE
     1 0VF         1 TEMP              0 ****  ****    0 ROOT
