@<TRIPOS>MOLECULE
0VG
   50    54     1     0     0
SMALL
bcc


@<TRIPOS>ATOM
      1 C1         -0.4820    1.0120    0.1720 cc        1 0VG     -0.091300
      2 N2          0.3850   -0.1460    0.1960 na        1 0VG      0.187200
      3 C3         -0.6530    1.7460    1.4150 cc        1 0VG      0.249600
      4 N4          1.0350   -0.5930    1.2640 nc        1 0VG     -0.494800
      5 C5          0.0220    1.2570    2.5240 cd        1 0VG     -0.337300
      6 C6          0.8620    0.0920    2.4030 cd        1 0VG      0.467800
      7 N7         -3.4560    2.1040    0.5850 nb        1 0VG     -0.739000
      8 C8         -4.5570    2.2660   -0.2090 ca        1 0VG      0.665200
      9 N9         -5.5860    1.3020   -0.1810 nh        1 0VG     -0.742300
     10 N10        -0.9910    1.2060   -1.0760 nd        1 0VG     -0.249600
     11 N11        -1.3630    2.9480    1.4340 nu        1 0VG     -0.696300
     12 C12        -2.5270    3.0980    0.6040 ca        1 0VG      0.633200
     13 C13         0.3830   -0.6570   -1.1080 cc        1 0VG     -0.173100
     14 C14        -0.4660    0.1920   -1.8560 cd        1 0VG     -0.016400
     15 C15         1.5630   -0.3700    3.6160 ca        1 0VG     -0.147500
     16 C16        -5.3660    0.0050    0.4790 c3        1 0VG      0.206500
     17 C17        -6.3550    1.1180   -1.4080 c3        1 0VG      0.189800
     18 C18        -4.7390    3.4490   -0.9980 ca        1 0VG     -0.288300
     19 C19        -2.6450    4.2930   -0.1470 ca        1 0VG     -0.254300
     20 C20        -3.7760    4.4450   -0.9500 ca        1 0VG     -0.063000
     21 C21        -6.7810   -0.3540   -1.5030 c3        1 0VG     -0.090400
     22 C22        -6.2460   -1.0350   -0.2520 c3        1 0VG     -0.092400
     23 C23         2.9160   -0.7290    3.5680 ca        1 0VG     -0.101000
     24 C24         0.8660   -0.4420    4.8300 ca        1 0VG     -0.101000
     25 C25        -5.7030    0.0390    1.9650 c3        1 0VG     -0.088100
     26 C26         3.5650   -1.1470    4.7290 ca        1 0VG     -0.135500
     27 C27         1.5220   -0.8630    5.9850 ca        1 0VG     -0.135500
     28 C28         2.8720   -1.2140    5.9370 ca        1 0VG     -0.118000
     29 H1         -0.0460    1.7430    3.5060 ha        1 0VG      0.154000
     30 H2         -1.5190    3.3030    2.3600 hn        1 0VG      0.415800
     31 H3          0.9540   -1.5390   -1.3910 h4        1 0VG      0.193000
     32 H4         -0.7110    0.1080   -2.9150 h4        1 0VG      0.181000
     33 H5         -4.2850   -0.3120    0.3760 h1        1 0VG      0.064700
     34 H6         -7.2580    1.7880   -1.3480 h1        1 0VG      0.046700
     35 H7         -5.7660    1.4110   -2.3210 h1        1 0VG      0.046700
     36 H8         -5.6330    3.5740   -1.6220 ha        1 0VG      0.144000
     37 H9         -1.8650    5.0640   -0.1130 ha        1 0VG      0.154000
     38 H10        -3.8990    5.3590   -1.5500 ha        1 0VG      0.138000
     39 H11        -6.3550   -0.8190   -2.4260 hc        1 0VG      0.050700
     40 H12        -7.8930   -0.4340   -1.5620 hc        1 0VG      0.050700
     41 H13        -5.6370   -1.9350   -0.5090 hc        1 0VG      0.051700
     42 H14        -7.0870   -1.3670    0.4070 hc        1 0VG      0.051700
     43 H15         3.4670   -0.6830    2.6160 ha        1 0VG      0.142500
     44 H16        -0.2000   -0.1730    4.8670 ha        1 0VG      0.142500
     45 H17        -5.5500   -0.9830    2.3880 hc        1 0VG      0.041367
     46 H18        -5.0370    0.7540    2.5040 hc        1 0VG      0.041367
     47 H19        -6.7640    0.3430    2.1340 hc        1 0VG      0.041367
     48 H20         4.6290   -1.4260    4.6890 ha        1 0VG      0.134500
     49 H21         0.9720   -0.9210    6.9350 ha        1 0VG      0.134500
     50 H22         3.3860   -1.5450    6.8510 ha        1 0VG      0.133000
@<TRIPOS>BOND
     1    1    2 1   
     2    1    3 1   
     3    1   10 2   
     4    2    4 1   
     5    2   13 1   
     6    3    5 2   
     7    3   11 1   
     8    4    6 2   
     9    5    6 1   
    10    5   29 1   
    11    6   15 1   
    12    7    8 ar  
    13    7   12 ar  
    14    8    9 1   
    15    8   18 ar  
    16    9   16 1   
    17    9   17 1   
    18   10   14 1   
    19   11   12 1   
    20   11   30 1   
    21   12   19 ar  
    22   13   14 2   
    23   13   31 1   
    24   14   32 1   
    25   15   23 ar  
    26   15   24 ar  
    27   16   22 1   
    28   16   25 1   
    29   16   33 1   
    30   17   21 1   
    31   17   34 1   
    32   17   35 1   
    33   18   20 ar  
    34   18   36 1   
    35   19   20 ar  
    36   19   37 1   
    37   20   38 1   
    38   21   22 1   
    39   21   39 1   
    40   21   40 1   
    41   22   41 1   
    42   22   42 1   
    43   23   26 ar  
    44   23   43 1   
    45   24   27 ar  
    46   24   44 1   
    47   25   45 1   
    48   25   46 1   
    49   25   47 1   
    50   26   28 ar  
    51   26   48 1   
    52   27   28 ar  
    53   27   49 1   
    54   28   50 1   
@<TRIPOS>SUBSTRUCTURE
     1 0VG         1 TEMP              0 ****  ****    0 ROOT
