@<TRIPOS>MOLECULE
0VG
   51    55     1     0     0
SMALL
bcc


@<TRIPOS>ATOM
      1 C1          0.8250   -0.8280   -0.7120 cc        1 0VG     -0.116300
      2 N2          1.9300   -0.6270    0.2070 na        1 0VG      0.188200
      3 C3         -0.5010   -0.7910   -0.1490 cc        1 0VG      0.029600
      4 N4          1.7960   -0.4210    1.5060 nc        1 0VG     -0.405800
      5 C5         -0.6440   -0.5700    1.1990 cd        1 0VG     -0.147300
      6 C6          0.5520   -0.3900    2.0060 cd        1 0VG      0.443800
      7 N7         -3.3870    0.4970   -0.3680 nb        1 0VG     -0.770000
      8 C8         -4.1290    1.6420   -0.5340 ca        1 0VG      0.722200
      9 N9         -5.0930    1.9660    0.3940 nh        1 0VG     -0.755300
     10 N10         1.2710   -1.0200   -1.9810 nd        1 0VG     -0.280600
     11 N11        -1.6280   -0.9950   -1.0580 n4        1 0VG     -0.614100
     12 C12        -2.4060    0.2600   -1.2760 ca        1 0VG      0.513200
     13 C13         3.0910   -0.7090   -0.5790 cc        1 0VG     -0.127100
     14 C14         2.6510   -0.9490   -1.9030 cd        1 0VG      0.026600
     15 C15         0.3660   -0.1620    3.4480 ca        1 0VG     -0.183500
     16 C16        -5.4970    1.0820    1.4940 c3        1 0VG      0.225500
     17 C17        -6.1100    2.9660    0.1010 c3        1 0VG      0.202800
     18 C18        -3.8640    2.5320   -1.6470 ca        1 0VG     -0.262300
     19 C19        -2.0830    1.0670   -2.3730 ca        1 0VG     -0.261300
     20 C20        -2.8580    2.2320   -2.5370 ca        1 0VG     -0.038000
     21 C21        -7.2740    2.7470    1.0770 c3        1 0VG     -0.090400
     22 C22        -6.9010    1.5520    1.9430 c3        1 0VG     -0.092400
     23 C23         1.0950    0.8310    4.1130 ca        1 0VG     -0.095000
     24 C24        -0.5470   -0.9550    4.1580 ca        1 0VG     -0.095000
     25 C25        -4.5300    1.0980    2.6730 c3        1 0VG     -0.099100
     26 C26         0.9010    1.0350    5.4790 ca        1 0VG     -0.126000
     27 C27        -0.7310   -0.7470    5.5220 ca        1 0VG     -0.126000
     28 C28        -0.0100    0.2490    6.1840 ca        1 0VG     -0.093000
     29 H1         -1.6250   -0.5020    1.7010 ha        1 0VG      0.192000
     30 H2         -2.2420   -1.7220   -0.6600 hn        1 0VG      0.479300
     31 H3          4.0910   -0.5990   -0.1560 h4        1 0VG      0.221000
     32 H4          3.2770   -1.0720   -2.7920 h4        1 0VG      0.210000
     33 H5         -5.5680    0.0220    1.1080 h1        1 0VG      0.059700
     34 H6         -6.4650    2.8720   -0.9640 h1        1 0VG      0.058200
     35 H7         -5.6610    3.9890    0.2360 h1        1 0VG      0.058200
     36 H8         -4.4580    3.4510   -1.7700 ha        1 0VG      0.173000
     37 H9         -1.2690    0.8320   -3.0740 ha        1 0VG      0.176000
     38 H10        -2.6430    2.9010   -3.3870 ha        1 0VG      0.172000
     39 H11        -8.2200    2.5540    0.5120 hc        1 0VG      0.069200
     40 H12        -7.4290    3.6620    1.7010 hc        1 0VG      0.069200
     41 H13        -6.8910    1.8340    3.0250 hc        1 0VG      0.067200
     42 H14        -7.6350    0.7190    1.8140 hc        1 0VG      0.067200
     43 H15         1.8220    1.4510    3.5650 ha        1 0VG      0.140000
     44 H16        -1.1050   -1.7530    3.6460 ha        1 0VG      0.140000
     45 H17        -4.4220    2.1260    3.0950 hc        1 0VG      0.047700
     46 H18        -4.9320    0.4250    3.4680 hc        1 0VG      0.047700
     47 H19        -3.5210    0.7300    2.3720 hc        1 0VG      0.047700
     48 H20         1.4740    1.8170    6.0000 ha        1 0VG      0.150000
     49 H21        -1.4420   -1.3760    6.0810 ha        1 0VG      0.150000
     50 H22        -0.1570    0.4090    7.2640 ha        1 0VG      0.151000
     51 H112       -1.2810   -1.3120   -1.9770 hn        1 0VG      0.479300
@<TRIPOS>BOND
     1    1    2 1   
     2    1    3 1   
     3    1   10 2   
     4    2    4 1   
     5    2   13 1   
     6    3    5 2   
     7    3   11 1   
     8    4    6 2   
     9    5    6 1   
    10    5   29 1   
    11    6   15 1   
    12    7    8 ar  
    13    7   12 ar  
    14    8    9 1   
    15    8   18 ar  
    16    9   16 1   
    17    9   17 1   
    18   10   14 1   
    19   11   12 1   
    20   11   30 1   
    21   11   51 1   
    22   12   19 ar  
    23   13   14 2   
    24   13   31 1   
    25   14   32 1   
    26   15   23 ar  
    27   15   24 ar  
    28   16   22 1   
    29   16   25 1   
    30   16   33 1   
    31   17   21 1   
    32   17   34 1   
    33   17   35 1   
    34   18   20 ar  
    35   18   36 1   
    36   19   20 ar  
    37   19   37 1   
    38   20   38 1   
    39   21   22 1   
    40   21   39 1   
    41   21   40 1   
    42   22   41 1   
    43   22   42 1   
    44   23   26 ar  
    45   23   43 1   
    46   24   27 ar  
    47   24   44 1   
    48   25   45 1   
    49   25   46 1   
    50   25   47 1   
    51   26   28 ar  
    52   26   48 1   
    53   27   28 ar  
    54   27   49 1   
    55   28   50 1   
@<TRIPOS>SUBSTRUCTURE
     1 0VG         1 TEMP              0 ****  ****    0 ROOT
