@<TRIPOS>MOLECULE
0VG
   50    54     1     0     0
SMALL
bcc


@<TRIPOS>ATOM
      1 C1          0.5880   -1.3180   -0.4070 cc        1 0VG     -0.091300
      2 N2          1.5320   -1.6080    0.6510 na        1 0VG      0.187200
      3 C3          0.8280   -0.1310   -1.2110 cc        1 0VG      0.249600
      4 N4          2.5980   -0.8740    0.9470 nc        1 0VG     -0.494800
      5 C5          1.9380    0.6320   -0.8780 cd        1 0VG     -0.337300
      6 C6          2.8010    0.2210    0.2000 cd        1 0VG      0.467800
      7 N7         -2.0970    0.2120   -1.2150 nb        1 0VG     -0.739000
      8 C8         -3.4310   -0.0830   -1.2020 ca        1 0VG      0.665200
      9 N9         -4.2390    0.3790   -0.1420 nh        1 0VG     -0.742300
     10 N10        -0.3870   -2.2660   -0.4540 nd        1 0VG     -0.249600
     11 N11         0.0390    0.1350   -2.3310 nh        1 0VG     -0.696300
     12 C12        -1.3660   -0.1680   -2.2980 ca        1 0VG      0.633200
     13 C13         1.0840   -2.7890    1.2550 cc        1 0VG     -0.173100
     14 C14        -0.0880   -3.1610    0.5560 cd        1 0VG     -0.016400
     15 C15         3.9730    1.0670    0.4950 ca        1 0VG     -0.147500
     16 C16        -3.6180    0.9330    1.0730 c3        1 0VG      0.206500
     17 C17        -5.3980   -0.4360    0.2120 c3        1 0VG      0.189800
     18 C18        -4.0540   -0.7660   -2.2980 ca        1 0VG     -0.288300
     19 C19        -1.9160   -0.8430   -3.4150 ca        1 0VG     -0.254300
     20 C20        -3.2800   -1.1330   -3.3890 ca        1 0VG     -0.063000
     21 C21        -5.6390   -0.3130    1.7230 c3        1 0VG     -0.090400
     22 C22        -4.5770    0.6410    2.2500 c3        1 0VG     -0.092400
     23 C23         5.2310    0.4960    0.7160 ca        1 0VG     -0.101000
     24 C24         3.8210    2.4590    0.5470 ca        1 0VG     -0.101000
     25 C25        -3.3480    2.4290    0.9620 c3        1 0VG     -0.088100
     26 C26         6.3300    1.3150    0.9770 ca        1 0VG     -0.135500
     27 C27         4.9220    3.2700    0.8110 ca        1 0VG     -0.135500
     28 C28         6.1780    2.7000    1.0240 ca        1 0VG     -0.118000
     29 H1          2.2000    1.5460   -1.4270 ha        1 0VG      0.154000
     30 H2          0.2150    1.0360   -2.7370 hn        1 0VG      0.415800
     31 H3          1.6030   -3.2500    2.0920 h4        1 0VG      0.193000
     32 H4         -0.7150   -4.0340    0.7440 h4        1 0VG      0.181000
     33 H5         -2.6340    0.4170    1.2830 h1        1 0VG      0.064700
     34 H6         -6.2800   -0.0410   -0.3640 h1        1 0VG      0.046700
     35 H7         -5.2540   -1.5160   -0.0710 h1        1 0VG      0.046700
     36 H8         -5.1290   -0.9870   -2.2830 ha        1 0VG      0.144000
     37 H9         -1.2880   -1.1430   -4.2630 ha        1 0VG      0.154000
     38 H10        -3.7420   -1.6600   -4.2380 ha        1 0VG      0.138000
     39 H11        -6.6670    0.0780    1.9210 hc        1 0VG      0.050700
     40 H12        -5.5550   -1.3150    2.2090 hc        1 0VG      0.050700
     41 H13        -4.0100    0.1870    3.0980 hc        1 0VG      0.051700
     42 H14        -5.0440    1.5880    2.6160 hc        1 0VG      0.051700
     43 H15         5.3560   -0.5970    0.6860 ha        1 0VG      0.142500
     44 H16         2.8290    2.9100    0.3880 ha        1 0VG      0.142500
     45 H17        -4.2870    2.9970    0.7580 hc        1 0VG      0.041367
     46 H18        -2.9160    2.7840    1.9280 hc        1 0VG      0.041367
     47 H19        -2.6190    2.6390    0.1440 hc        1 0VG      0.041367
     48 H20         7.3190    0.8640    1.1470 ha        1 0VG      0.134500
     49 H21         4.7990    4.3630    0.8540 ha        1 0VG      0.134500
     50 H22         7.0460    3.3430    1.2310 ha        1 0VG      0.133000
@<TRIPOS>BOND
     1    1    2 1   
     2    1    3 1   
     3    1   10 2   
     4    2    4 1   
     5    2   13 1   
     6    3    5 2   
     7    3   11 1   
     8    4    6 2   
     9    5    6 1   
    10    5   29 1   
    11    6   15 1   
    12    7    8 ar  
    13    7   12 ar  
    14    8    9 1   
    15    8   18 ar  
    16    9   16 1   
    17    9   17 1   
    18   10   14 1   
    19   11   12 1   
    20   11   30 1   
    21   12   19 ar  
    22   13   14 2   
    23   13   31 1   
    24   14   32 1   
    25   15   23 ar  
    26   15   24 ar  
    27   16   22 1   
    28   16   25 1   
    29   16   33 1   
    30   17   21 1   
    31   17   34 1   
    32   17   35 1   
    33   18   20 ar  
    34   18   36 1   
    35   19   20 ar  
    36   19   37 1   
    37   20   38 1   
    38   21   22 1   
    39   21   39 1   
    40   21   40 1   
    41   22   41 1   
    42   22   42 1   
    43   23   26 ar  
    44   23   43 1   
    45   24   27 ar  
    46   24   44 1   
    47   25   45 1   
    48   25   46 1   
    49   25   47 1   
    50   26   28 ar  
    51   26   48 1   
    52   27   28 ar  
    53   27   49 1   
    54   28   50 1   
@<TRIPOS>SUBSTRUCTURE
     1 0VG         1 TEMP              0 ****  ****    0 ROOT
