@<TRIPOS>MOLECULE
0VG
   50    40     1     0     0
SMALL
bcc


@<TRIPOS>ATOM
      1 C1          2.1510   -1.0470   -1.4820 c1        1 0VG     -0.093000
      2 N2          3.4910   -1.1760   -1.6460 n1        1 0VG     -0.046500
      3 C3          1.6150   -0.9080   -0.2010 c1        1 0VG      0.174000
      4 N4          4.3360   -1.1700   -0.5310 n1        1 0VG     -0.046500
      5 C5          2.4440   -0.9020    0.8930 c1        1 0VG     -0.202000
      6 C6          3.8100   -1.0340    0.7250 c1        1 0VG      0.050333
      7 N7         -2.0930   -0.4240    0.0750 n1        1 0VG     -0.235000
      8 C8         -3.0310    0.5510   -0.1370 c1        1 0VG      0.050333
      9 N9         -4.4350    0.2730    0.1180 n2        1 0VG     -0.238000
     10 N10         1.5580   -1.1240   -2.7230 n1        1 0VG     -0.127000
     11 N11         0.2150   -1.1860    0.0660 n3        1 0VG     -0.229000
     12 C12        -0.7620   -0.1300   -0.0390 c2        1 0VG      0.127000
     13 C13         3.7370   -1.3330   -2.9750 c1        1 0VG     -0.144000
     14 C14         2.5270   -1.3000   -3.6380 c1        1 0VG     -0.152000
     15 C15         5.0010   -0.7390    1.6600 c1        1 0VG      0.050333
     16 C16        -5.3130    0.7150   -1.1590 c3        1 0VG      0.015000
     17 C17        -4.8420    0.9930    1.0940 c3        1 0VG     -0.044000
     18 C18        -2.6300    1.8390   -0.4700 c1        1 0VG     -0.202000
     19 C19        -0.3590    1.1560   -0.3710 c2        1 0VG     -0.229000
     20 C20        -1.2950    2.1330   -0.5850 c1        1 0VG     -0.053000
     21 C21        -6.3040    1.3440    0.7520 c3        1 0VG     -0.170000
     22 C22        -6.4910    0.9380   -0.7250 c3        1 0VG     -0.172000
     23 C23         5.5990   -1.8340    2.2610 c1        1 0VG     -0.123750
     24 C24         5.5130    0.5310    1.8680 c1        1 0VG     -0.202000
     25 C25        -5.3410   -0.4150   -2.1970 c3        1 0VG     -0.208000
     26 C26         6.7140   -1.6580    3.0740 c1        1 0VG     -0.123750
     27 C27         6.6260    0.7080    2.6790 c1        1 0VG     -0.123750
     28 C28         7.2260   -0.3890    3.2820 c1        1 0VG     -0.123750
     29 H1          2.0660   -0.8040    1.7960 ha        1 0VG      0.153000
     30 H2         -0.0570   -2.0500    0.2420 hn        1 0VG      0.254000
     31 H3          4.6080   -1.4480   -3.3840 DU        1 0VG      0.189500
     32 H4          2.4010   -1.3300   -4.6110 DU        1 0VG      0.189500
     33 H5         -4.9390    1.5360   -1.5610 h1        1 0VG      0.099000
     34 H6         -4.8010    0.4860    1.9320 h1        1 0VG      0.086000
     35 H7         -4.3130    1.7940    1.1620 h1        1 0VG      0.086000
     36 H8         -3.3040    2.5410   -0.6230 ha        1 0VG      0.153000
     37 H9          0.5920    1.3650   -0.4530 ha        1 0VG      0.157000
     38 H10        -1.0160    3.0280   -0.8160 ha        1 0VG      0.140000
     39 H11        -6.9110    0.8410    1.3180 hc        1 0VG      0.091000
     40 H12        -6.4570    2.3110    0.8620 hc        1 0VG      0.091000
     41 H13        -7.0470    0.1110   -0.7900 hc        1 0VG      0.092500
     42 H14        -6.9060    1.6700   -1.2290 hc        1 0VG      0.092500
     43 H15         5.2400   -2.7220    2.1150 ha        1 0VG      0.136000
     44 H16         5.0910    1.3010    1.4440 ha        1 0VG      0.153000
     45 H17        -4.4360   -0.7200   -2.3680 hc        1 0VG      0.083333
     46 H18        -5.8720   -1.1520   -1.8570 hc        1 0VG      0.083333
     47 H19        -5.7350   -0.0860   -3.0240 hc        1 0VG      0.083333
     48 H20         7.1330   -2.4250    3.4940 ha        1 0VG      0.136000
     49 H21         6.9850    1.6020    2.8250 ha        1 0VG      0.136000
     50 H22         8.0150   -0.2640    3.8570 ha        1 0VG      0.136000
@<TRIPOS>BOND
     1    1    3 1   
     2    2    4 1   
     3    3   11 1   
     4    5    6 1   
     5    5   29 1   
     6    7   12 1   
     7    8   18 1   
     8    9   16 1   
     9    9   17 1   
    10   10   14 1   
    11   11   12 1   
    12   11   30 1   
    13   12   19 1   
    14   13   14 1   
    15   15   24 1   
    16   16   22 1   
    17   16   25 1   
    18   16   33 1   
    19   17   21 1   
    20   17   34 1   
    21   17   35 1   
    22   18   36 1   
    23   19   20 1   
    24   19   37 1   
    25   20   38 1   
    26   21   22 1   
    27   21   39 1   
    28   21   40 1   
    29   22   41 1   
    30   22   42 1   
    31   23   26 1   
    32   23   43 1   
    33   24   44 1   
    34   25   45 1   
    35   25   46 1   
    36   25   47 1   
    37   26   48 1   
    38   27   28 1   
    39   27   49 1   
    40   28   50 1   
@<TRIPOS>SUBSTRUCTURE
     1 0VG         1 TEMP              0 ****  ****    0 ROOT
