@<TRIPOS>MOLECULE
0VG
   50    54     1     0     0
SMALL
bcc


@<TRIPOS>ATOM
      1 C1         -0.4860    0.9880    0.1560 cc        1 0VG     -0.091300
      2 N2          0.3720   -0.1770    0.1880 na        1 0VG      0.187200
      3 C3         -0.6420    1.7380    1.3920 cc        1 0VG      0.248600
      4 N4          1.0260   -0.6160    1.2570 nc        1 0VG     -0.494800
      5 C5          0.0370    1.2560    2.5020 cd        1 0VG     -0.337300
      6 C6          0.8660    0.0830    2.3890 cd        1 0VG      0.467800
      7 N7         -3.4490    2.1080    0.5770 nb        1 0VG     -0.739000
      8 C8         -4.5530    2.2690   -0.2120 ca        1 0VG      0.665200
      9 N9         -5.5900    1.3140   -0.1650 nh        1 0VG     -0.742300
     10 N10        -1.0010    1.1710   -1.0900 nd        1 0VG     -0.249600
     11 N11        -1.3430    2.9450    1.4020 nh        1 0VG     -0.696300
     12 C12        -2.5110    3.0950    0.5770 ca        1 0VG      0.633200
     13 C13         0.3570   -0.7030   -1.1100 cc        1 0VG     -0.173100
     14 C14        -0.4900    0.1440   -1.8620 cd        1 0VG     -0.016400
     15 C15         1.5720   -0.3700    3.6030 ca        1 0VG     -0.147500
     16 C16        -5.3760    0.0240    0.5110 c3        1 0VG      0.206500
     17 C17        -6.3690    1.1210   -1.3840 c3        1 0VG      0.189800
     18 C18        -4.7310    3.4440   -1.0140 ca        1 0VG     -0.288300
     19 C19        -2.6240    4.2800   -0.1890 ca        1 0VG     -0.254300
     20 C20        -3.7590    4.4320   -0.9850 ca        1 0VG     -0.063000
     21 C21        -6.8080   -0.3480   -1.4570 c3        1 0VG     -0.090400
     22 C22        -6.2700   -1.0180   -0.2020 c3        1 0VG     -0.092400
     23 C23         2.9210   -0.7410    3.5500 ca        1 0VG     -0.101000
     24 C24         0.8830   -0.4220    4.8220 ca        1 0VG     -0.101000
     25 C25        -5.7040    0.0800    1.9980 c3        1 0VG     -0.088100
     26 C26         3.5750   -1.1500    4.7120 ca        1 0VG     -0.135500
     27 C27         1.5430   -0.8350    5.9770 ca        1 0VG     -0.135500
     28 C28         2.8890   -1.1970    5.9240 ca        1 0VG     -0.118000
     29 H1         -0.0210    1.7540    3.4780 ha        1 0VG      0.154000
     30 H2         -1.4910    3.3120    2.3240 hn        1 0VG      0.415800
     31 H3          0.9200   -1.5930   -1.3860 h4        1 0VG      0.193000
     32 H4         -0.7420    0.0500   -2.9180 h4        1 0VG      0.181000
     33 H5         -4.2990   -0.3030    0.4040 h1        1 0VG      0.064700
     34 H6         -7.2650    1.7990   -1.3270 h1        1 0VG      0.046700
     35 H7         -5.7830    1.3970   -2.3050 h1        1 0VG      0.046700
     36 H8         -5.6280    3.5680   -1.6340 ha        1 0VG      0.144000
     37 H9         -1.8380    5.0450   -0.1690 ha        1 0VG      0.154000
     38 H10        -3.8790    5.3390   -1.5970 ha        1 0VG      0.138000
     39 H11        -7.9210   -0.4190   -1.5070 hc        1 0VG      0.050700
     40 H12        -6.3930   -0.8290   -2.3770 hc        1 0VG      0.050700
     41 H13        -7.1080   -1.3350    0.4670 hc        1 0VG      0.051700
     42 H14        -5.6690   -1.9250   -0.4520 hc        1 0VG      0.051700
     43 H15         3.4660   -0.7110    2.5940 ha        1 0VG      0.142500
     44 H16        -0.1810   -0.1450    4.8630 ha        1 0VG      0.142500
     45 H17        -5.5560   -0.9380    2.4330 hc        1 0VG      0.041367
     46 H18        -5.0290    0.7960    2.5240 hc        1 0VG      0.041367
     47 H19        -6.7610    0.3940    2.1690 hc        1 0VG      0.041367
     48 H20         4.6360   -1.4380    4.6670 ha        1 0VG      0.134500
     49 H21         0.9990   -0.8780    6.9320 ha        1 0VG      0.134500
     50 H22         3.4080   -1.5220    6.8390 ha        1 0VG      0.133000
@<TRIPOS>BOND
     1    1    2 1   
     2    1    3 1   
     3    1   10 2   
     4    2    4 1   
     5    2   13 1   
     6    3    5 2   
     7    3   11 1   
     8    4    6 2   
     9    5    6 1   
    10    5   29 1   
    11    6   15 1   
    12    7    8 ar  
    13    7   12 ar  
    14    8    9 1   
    15    8   18 ar  
    16    9   16 1   
    17    9   17 1   
    18   10   14 1   
    19   11   12 1   
    20   11   30 1   
    21   12   19 ar  
    22   13   14 2   
    23   13   31 1   
    24   14   32 1   
    25   15   23 ar  
    26   15   24 ar  
    27   16   22 1   
    28   16   25 1   
    29   16   33 1   
    30   17   21 1   
    31   17   34 1   
    32   17   35 1   
    33   18   20 ar  
    34   18   36 1   
    35   19   20 ar  
    36   19   37 1   
    37   20   38 1   
    38   21   22 1   
    39   21   39 1   
    40   21   40 1   
    41   22   41 1   
    42   22   42 1   
    43   23   26 ar  
    44   23   43 1   
    45   24   27 ar  
    46   24   44 1   
    47   25   45 1   
    48   25   46 1   
    49   25   47 1   
    50   26   28 ar  
    51   26   48 1   
    52   27   28 ar  
    53   27   49 1   
    54   28   50 1   
@<TRIPOS>SUBSTRUCTURE
     1 0VG         1 TEMP              0 ****  ****    0 ROOT
