@<TRIPOS>MOLECULE
0VH
   53    55     1     0     0
SMALL
bcc


@<TRIPOS>ATOM
      1 C1          1.8450    1.1690    0.4850 ca        1 0VH     -0.248300
      2 C2          2.6990    0.6390    1.4490 ca        1 0VH     -0.039000
      3 C3          2.2590   -0.4060    2.2610 ca        1 0VH     -0.224300
      4 C4          0.9590   -0.9170    2.0690 ca        1 0VH      0.441600
      5 N5          0.1100   -0.4310    1.1310 nb        1 0VH     -0.790000
      6 C6          0.5400    0.6110    0.3620 ca        1 0VH      0.628200
      7 N7         -0.3270    1.2020   -0.5990 nu        1 0VH     -0.720300
      8 C8          0.4970   -2.0560    2.9390 c3        1 0VH     -0.140700
      9 C9         -1.6450    0.8960   -0.8290 ca        1 0VH      0.253300
     10 C10        -2.5620    1.9430   -1.1830 ca        1 0VH     -0.349300
     11 C11        -3.9140    1.6300   -1.4000 ca        1 0VH      0.628200
     12 N12        -4.3680    0.2920   -1.2050 nb        1 0VH     -0.328000
     13 N13        -3.5680   -0.6180   -0.9380 nb        1 0VH     -0.229000
     14 C14        -2.2060   -0.4160   -0.7950 ca        1 0VH      0.129800
     15 C15        -1.3710   -1.6210   -0.7160 c         1 0VH      0.525600
     16 O16        -0.4010   -1.9310   -1.3850 o         1 0VH     -0.396100
     17 N17        -1.8120   -2.6280    0.3230 nz        1 0VH     -0.747400
     18 N18        -4.8700    2.5400   -1.8740 nu        1 0VH     -0.846900
     19 C19        -4.6180    3.9680   -1.8210 c3        1 0VH      0.184500
     20 C20        -5.6130    4.7360   -2.7510 c3        1 0VH      0.116500
     21 C21        -7.0450    4.7180   -2.2090 c3        1 0VH     -0.106400
     22 C22        -7.0740    5.3210   -0.8180 c3        1 0VH     -0.084400
     23 C23        -6.1200    4.6150    0.1180 c3        1 0VH     -0.095400
     24 C24        -4.7100    4.6130   -0.4290 c3        1 0VH     -0.110400
     25 N25        -5.5660    4.2160   -4.1620 nz        1 0VH     -0.837600
     26 C26        -0.6870   -1.6870    3.7970 c3        1 0VH     -0.099100
     27 H1          2.1820    1.9920   -0.1620 ha        1 0VH      0.165000
     28 H2          3.7180    1.0480    1.5670 ha        1 0VH      0.176000
     29 H3          2.9150   -0.8300    3.0370 ha        1 0VH      0.177000
     30 H4         -0.0330    2.1180   -0.8830 hn        1 0VH      0.461800
     31 H5          0.2510   -2.9430    2.2950 hc        1 0VH      0.060200
     32 H6          1.3500   -2.3690    3.6030 hc        1 0VH      0.060200
     33 H7         -2.1940    2.9770   -1.2560 ha        1 0VH      0.164000
     34 H8         -1.1780   -3.4360    0.3180 hn        1 0VH      0.474467
     35 H9         -1.7850   -2.1860    1.2520 hn        1 0VH      0.474467
     36 H10        -5.8120    2.3000   -1.6140 hn        1 0VH      0.439800
     37 H11        -3.5730    4.1470   -2.2200 h1        1 0VH      0.075700
     38 H12        -5.2510    5.8100   -2.7910 hx        1 0VH      0.123700
     39 H13        -7.4480    3.6710   -2.1770 hc        1 0VH      0.074700
     40 H14        -7.7170    5.3190   -2.8800 hc        1 0VH      0.074700
     41 H15        -6.8170    6.4130   -0.8740 hc        1 0VH      0.083200
     42 H16        -8.1210    5.2470   -0.4170 hc        1 0VH      0.083200
     43 H17        -6.4690    3.5640    0.3000 hc        1 0VH      0.074700
     44 H18        -6.1250    5.1380    1.1130 hc        1 0VH      0.074700
     45 H19        -4.0290    4.0640    0.2740 hc        1 0VH      0.078200
     46 H20        -4.3320    5.6680   -0.5060 hc        1 0VH      0.078200
     47 H21        -4.5980    4.1780   -4.4910 hn        1 0VH      0.465133
     48 H22        -6.1120    4.8320   -4.7730 hn        1 0VH      0.465133
     49 H24        -0.4400   -0.8170    4.4550 hc        1 0VH      0.048367
     50 H25        -0.9650   -2.5490    4.4520 hc        1 0VH      0.048367
     51 H26        -1.5750   -1.4090    3.1790 hc        1 0VH      0.048367
     52 H173       -2.7670   -2.9440    0.1270 hn        1 0VH      0.474467
     53 H253       -5.9670    3.2720   -4.2050 hn        1 0VH      0.465133
@<TRIPOS>BOND
     1    1    2 ar  
     2    1    6 ar  
     3    1   27 1   
     4    2    3 ar  
     5    2   28 1   
     6    3    4 ar  
     7    3   29 1   
     8    4    5 ar  
     9    4    8 1   
    10    5    6 ar  
    11    6    7 1   
    12    7    9 1   
    13    7   30 1   
    14    8   26 1   
    15    8   31 1   
    16    8   32 1   
    17    9   10 ar  
    18    9   14 ar  
    19   10   11 ar  
    20   10   33 1   
    21   11   12 ar  
    22   11   18 1   
    23   12   13 ar  
    24   13   14 ar  
    25   14   15 1   
    26   15   16 2   
    27   15   17 1   
    28   17   34 1   
    29   17   35 1   
    30   17   52 1   
    31   18   19 1   
    32   18   36 1   
    33   19   20 1   
    34   19   24 1   
    35   19   37 1   
    36   20   21 1   
    37   20   25 1   
    38   20   38 1   
    39   21   22 1   
    40   21   39 1   
    41   21   40 1   
    42   22   23 1   
    43   22   41 1   
    44   22   42 1   
    45   23   24 1   
    46   23   43 1   
    47   23   44 1   
    48   24   45 1   
    49   24   46 1   
    50   25   47 1   
    51   25   48 1   
    52   25   53 1   
    53   26   49 1   
    54   26   50 1   
    55   26   51 1   
@<TRIPOS>SUBSTRUCTURE
     1 0VH         1 TEMP              0 ****  ****    0 ROOT
