@<TRIPOS>MOLECULE
0VH
   51    46     1     0     0
SMALL
bcc


@<TRIPOS>ATOM
      1 C1          2.6480   -1.0230    0.3270 c1        1 0VH     -0.194000
      2 C2          4.0110   -0.9470    0.3000 c1        1 0VH     -0.138500
      3 C3          4.7470   -1.5470    1.2810 c1        1 0VH     -0.138500
      4 C4          4.1090   -2.2330    2.3030 c1        1 0VH      0.072000
      5 N5          2.7480   -2.3070    2.3290 n1        1 0VH     -0.150500
      6 C6          2.0130   -1.7080    1.3500 c1        1 0VH      0.102000
      7 N7          0.5940   -1.7360    1.4110 n3        1 0VH     -0.246000
      8 C8          4.9210   -2.8410    3.4260 c2        1 0VH     -0.115000
      9 C9         -0.1730   -1.2950    0.3020 c2        1 0VH      0.187000
     10 C10        -0.6340   -0.0170    0.2590 c1        1 0VH     -0.317000
     11 C11        -1.4270    0.3920   -0.7850 c1        1 0VH      0.072000
     12 N12        -1.7500   -0.4800   -1.7710 n1        1 0VH     -0.150500
     13 N13        -1.2850   -1.7710   -1.7280 n1        1 0VH      0.019000
     14 C14        -0.5020   -2.1760   -0.6990 c2        1 0VH     -0.262000
     15 C15        -0.0690   -3.6230   -0.6040 c2        1 0VH      0.380000
     16 O16         0.5170   -4.0170    0.3830 o         1 0VH     -0.407000
     17 N17        -0.4080   -4.5330   -1.6370 n         1 0VH     -0.407000
     18 N18        -1.9760    1.6990   -0.7880 n2        1 0VH     -0.280000
     19 C19        -3.1560    1.8850   -1.1850 c3        1 0VH      0.039000
     20 C20        -3.8400    3.1200   -0.4530 c3        1 0VH     -0.042000
     21 C21        -3.0410    4.4020   -0.5750 c3        1 0VH     -0.156000
     22 C22        -2.1580    4.3410   -1.6010 c3        1 0VH     -0.154000
     23 C23        -2.3990    3.7690   -2.8120 c3        1 0VH     -0.156000
     24 C24        -3.1990    2.5040   -2.6750 c3        1 0VH     -0.163000
     25 N25        -3.9910    2.8100    0.9070 n3        1 0VH     -0.358000
     26 C26         5.4940   -4.1660    2.9740 c3        1 0VH     -0.208000
     27 H1          2.1220   -0.5940   -0.3740 ha        1 0VH      0.155000
     28 H2          4.4590   -0.4640   -0.4210 ha        1 0VH      0.142500
     29 H3          5.7210   -1.4940    1.2620 ha        1 0VH      0.142500
     30 H4          0.1760   -2.0170    2.1720 hn        1 0VH      0.279000
     31 H5          5.6510   -2.2350    3.6660 ha        1 0VH      0.094000
     32 H6          4.3460   -2.9830    4.2050 ha        1 0VH      0.094000
     33 H7         -0.4010    0.6100    0.9680 ha        1 0VH      0.157000
     34 H8         -0.3190   -5.4310   -1.5010 hn        1 0VH      0.229500
     35 H9         -0.7060   -4.2190   -2.4440 hn        1 0VH      0.229500
     36 H10        -1.4920    2.3970   -0.4550 hn        1 0VH      0.238000
     37 H11        -3.7000    1.0750   -1.1130 h1        1 0VH      0.101000
     38 H12        -4.7250    3.2630   -0.8410 h1        1 0VH      0.066000
     39 H13        -2.5520    4.5540    0.2610 hc        1 0VH      0.084500
     40 H14        -3.6560    5.1490   -0.7260 hc        1 0VH      0.084500
     41 H15        -1.8990    5.2690   -1.7880 hc        1 0VH      0.084500
     42 H16        -1.3620    3.8920   -1.2440 hc        1 0VH      0.084500
     43 H17        -1.5430    3.5610   -3.2430 hc        1 0VH      0.080000
     44 H18        -2.8940    4.4020   -3.3720 hc        1 0VH      0.080000
     45 H19        -4.1290    2.6940   -2.9090 hc        1 0VH      0.097000
     46 H20        -2.8470    1.8390   -3.3020 hc        1 0VH      0.097000
     47 H21        -4.5220    2.0700    0.9940 hn        1 0VH      0.152500
     48 H22        -4.3780    3.5160    1.3390 hn        1 0VH      0.152500
     49 H24         4.7910   -4.6960    2.5430 hc        1 0VH      0.081333
     50 H25         6.2210   -4.0070    2.3370 hc        1 0VH      0.081333
     51 H26         5.8400   -4.6540    3.7510 hc        1 0VH      0.081333
@<TRIPOS>BOND
     1    1    6 1   
     2    1   27 1   
     3    2    3 1   
     4    2   28 1   
     5    3   29 1   
     6    4    5 1   
     7    6    7 1   
     8    7    9 1   
     9    7   30 1   
    10    8   26 1   
    11    8   31 1   
    12    8   32 1   
    13    9   10 1   
    14    9   14 1   
    15   10   33 1   
    16   11   12 1   
    17   13   14 1   
    18   14   15 1   
    19   15   16 1   
    20   15   17 1   
    21   17   34 1   
    22   17   35 1   
    23   18   19 1   
    24   18   36 1   
    25   19   20 1   
    26   19   24 1   
    27   19   37 1   
    28   20   21 1   
    29   20   25 1   
    30   20   38 1   
    31   21   22 1   
    32   21   39 1   
    33   21   40 1   
    34   22   23 1   
    35   22   41 1   
    36   22   42 1   
    37   23   24 1   
    38   23   43 1   
    39   23   44 1   
    40   24   45 1   
    41   24   46 1   
    42   25   47 1   
    43   25   48 1   
    44   26   49 1   
    45   26   50 1   
    46   26   51 1   
@<TRIPOS>SUBSTRUCTURE
     1 0VH         1 TEMP              0 ****  ****    0 ROOT
