@<TRIPOS>MOLECULE
0VH
   55    57     1     0     0
SMALL
bcc


@<TRIPOS>ATOM
      1 C1          0.1560   -1.8360    2.2220 ca        1 0VH     -0.164300
      2 C2          1.5510   -1.6390    2.2330 ca        1 0VH     -0.047000
      3 C3          2.0880   -0.5090    1.6360 ca        1 0VH     -0.148300
      4 C4          1.2220    0.4450    1.0150 ca        1 0VH      0.479600
      5 N5         -0.1160    0.2840    0.9950 nb        1 0VH     -0.742000
      6 C6         -0.6080   -0.8380    1.5960 ca        1 0VH      0.395200
      7 N7         -2.1050   -0.9740    1.6300 n4        1 0VH     -0.645100
      8 C8          1.8500    1.6550    0.3780 c3        1 0VH     -0.146700
      9 C9         -2.7710   -0.4020    0.4590 ca        1 0VH      0.065300
     10 C10        -2.9770    1.0160    0.4120 ca        1 0VH     -0.112300
     11 C11        -3.5930    1.5530   -0.7320 ca        1 0VH      0.453200
     12 N12        -3.9880    0.7150   -1.7900 nb        1 0VH     -0.189000
     13 N13        -3.8020   -0.5160   -1.7370 nb        1 0VH     -0.227000
     14 C14        -3.2000   -1.1580   -0.6590 ca        1 0VH      0.320800
     15 C15        -3.0580   -2.6480   -0.7530 c         1 0VH      0.462600
     16 O16        -2.6750   -3.3510    0.1720 o         1 0VH     -0.371100
     17 N17        -3.4070   -3.3330   -2.0280 n4        1 0VH     -0.723400
     18 N18        -3.7890    3.0090   -0.9200 n4        1 0VH     -0.763700
     19 C19        -5.0750    3.5660   -0.3210 c3        1 0VH      0.121500
     20 C20        -5.3120    5.0780   -0.6180 c3        1 0VH      0.084500
     21 C21        -5.3940    5.3500   -2.1270 c3        1 0VH     -0.115400
     22 C22        -6.5610    4.5710   -2.7060 c3        1 0VH     -0.104400
     23 C23        -6.5060    3.0980   -2.3710 c3        1 0VH     -0.114400
     24 C24        -6.3130    2.8440   -0.8910 c3        1 0VH     -0.104400
     25 N25        -4.4130    6.0510    0.0820 n4        1 0VH     -0.856600
     26 C26         2.4050    2.5930    1.4230 c3        1 0VH     -0.107100
     27 H1         -0.2760   -2.7310    2.7020 ha        1 0VH      0.193000
     28 H2          2.2010   -2.3910    2.7250 ha        1 0VH      0.223000
     29 H3          3.1810   -0.3280    1.6330 ha        1 0VH      0.220000
     30 H4         -2.3250   -1.9840    1.7300 hn        1 0VH      0.499300
     31 H5          2.6840    1.2950   -0.2890 hc        1 0VH      0.077200
     32 H6          1.1160    2.1990   -0.2730 hc        1 0VH      0.077200
     33 H7         -2.6240    1.6520    1.2490 ha        1 0VH      0.222000
     34 H8         -2.8350   -2.9750   -2.8110 hn        1 0VH      0.515133
     35 H9         -3.2310   -4.3560   -1.9320 hn        1 0VH      0.515133
     36 H10        -3.8190    3.2030   -1.9450 hn        1 0VH      0.486800
     37 H11        -5.0060    3.3850    0.7930 hx        1 0VH      0.114700
     38 H12        -6.3540    5.2820   -0.1840 hx        1 0VH      0.177700
     39 H13        -4.4350    5.0900   -2.6430 hc        1 0VH      0.094200
     40 H14        -5.5810    6.4460   -2.3200 hc        1 0VH      0.094200
     41 H15        -6.5600    4.7030   -3.8260 hc        1 0VH      0.121200
     42 H16        -7.5290    5.0110   -2.3390 hc        1 0VH      0.121200
     43 H17        -7.4820    2.6250   -2.6870 hc        1 0VH      0.094700
     44 H18        -5.7060    2.5920   -2.9740 hc        1 0VH      0.094700
     45 H19        -7.2120    3.2200   -0.3210 hc        1 0VH      0.106700
     46 H20        -6.2520    1.7450   -0.6820 hc        1 0VH      0.106700
     47 H21        -4.8130    7.0030   -0.0440 hn        1 0VH      0.482133
     48 H22        -4.3650    5.8650    1.0910 hn        1 0VH      0.482133
     49 H24         3.1550    2.0760    2.0720 hc        1 0VH      0.066033
     50 H25         1.5940    2.9990    2.0730 hc        1 0VH      0.066033
     51 H26         2.9210    3.4490    0.9180 hc        1 0VH      0.066033
     52 H72        -2.4370   -0.4860    2.4820 hn        1 0VH      0.499300
     53 H173       -4.4060   -3.1970   -2.2610 hn        1 0VH      0.515133
     54 H182       -2.9710    3.4820   -0.5180 hn        1 0VH      0.486800
     55 H253       -3.4690    6.0680   -0.3150 hn        1 0VH      0.482133
@<TRIPOS>BOND
     1    1    2 ar  
     2    1    6 ar  
     3    1   27 1   
     4    2    3 ar  
     5    2   28 1   
     6    3    4 ar  
     7    3   29 1   
     8    4    5 ar  
     9    4    8 1   
    10    5    6 ar  
    11    6    7 1   
    12    7    9 1   
    13    7   30 1   
    14    7   52 1   
    15    8   26 1   
    16    8   31 1   
    17    8   32 1   
    18    9   10 ar  
    19    9   14 ar  
    20   10   11 ar  
    21   10   33 1   
    22   11   12 ar  
    23   11   18 1   
    24   12   13 ar  
    25   13   14 ar  
    26   14   15 1   
    27   15   16 2   
    28   15   17 1   
    29   17   34 1   
    30   17   35 1   
    31   17   53 1   
    32   18   19 1   
    33   18   36 1   
    34   18   54 1   
    35   19   20 1   
    36   19   24 1   
    37   19   37 1   
    38   20   21 1   
    39   20   25 1   
    40   20   38 1   
    41   21   22 1   
    42   21   39 1   
    43   21   40 1   
    44   22   23 1   
    45   22   41 1   
    46   22   42 1   
    47   23   24 1   
    48   23   43 1   
    49   23   44 1   
    50   24   45 1   
    51   24   46 1   
    52   25   47 1   
    53   25   48 1   
    54   25   55 1   
    55   26   49 1   
    56   26   50 1   
    57   26   51 1   
@<TRIPOS>SUBSTRUCTURE
     1 0VH         1 TEMP              0 ****  ****    0 ROOT
