@<TRIPOS>MOLECULE
0VH
   51    53     1     0     0
SMALL
bcc


@<TRIPOS>ATOM
      1 C1          1.8760    0.6830   -1.5710 ca        1 0VH     -0.261300
      2 C2          2.2690    1.9700   -1.9270 ca        1 0VH     -0.081000
      3 C3          3.1750    2.6610   -1.1250 ca        1 0VH     -0.263300
      4 C4          3.6740    2.0290    0.0360 ca        1 0VH      0.439600
      5 N5          3.3050    0.7850    0.4090 nb        1 0VH     -0.692000
      6 C6          2.4170    0.1110   -0.3850 ca        1 0VH      0.626200
      7 N7          2.1040   -1.2320   -0.0450 nh        1 0VH     -0.726300
      8 C8          4.6600    2.7730    0.8960 c3        1 0VH     -0.130700
      9 C9          0.8000   -1.6530    0.1520 ca        1 0VH      0.205300
     10 C10        -0.3190   -0.8030   -0.0250 ca        1 0VH     -0.383300
     11 C11        -1.6240   -1.3400    0.1200 ca        1 0VH      0.649200
     12 N12        -1.7840   -2.7140    0.4320 nb        1 0VH     -0.391000
     13 N13        -0.7860   -3.4500    0.6030 nb        1 0VH     -0.241000
     14 C14         0.5120   -3.0210    0.4920 ca        1 0VH      0.151800
     15 C15         1.6020   -4.0050    0.7690 c         1 0VH      0.597600
     16 O16         2.6920   -3.6570    1.2790 o         1 0VH     -0.647100
     17 N17         1.4090   -5.3180    0.4240 n         1 0VH     -0.647000
     18 N18        -2.7620   -0.5620    0.0370 nh        1 0VH     -0.830900
     19 C19        -2.7420    0.7400   -0.5930 c3        1 0VH      0.227500
     20 C20        -4.0860    1.0750   -1.3240 c3        1 0VH      0.161500
     21 C21        -5.2170    1.2860   -0.3080 c3        1 0VH     -0.078400
     22 C22        -4.8680    2.3920    0.6630 c3        1 0VH     -0.078400
     23 C23        -3.5640    2.1100    1.3790 c3        1 0VH     -0.077400
     24 C24        -2.4390    1.8810    0.3950 c3        1 0VH     -0.087400
     25 N25        -4.4170    0.0560   -2.3030 n3        1 0VH     -0.924800
     26 C26         4.0820    3.1220    2.2450 c3        1 0VH     -0.090100
     27 H1          1.1760    0.1130   -2.1970 ha        1 0VH      0.153000
     28 H2          1.8710    2.4330   -2.8420 ha        1 0VH      0.138000
     29 H3          3.5020    3.6750   -1.3870 ha        1 0VH      0.146000
     30 H4          2.8080   -1.7310    0.4780 hn        1 0VH      0.485800
     31 H5          5.5820    2.1440    1.0330 hc        1 0VH      0.056200
     32 H6          4.9690    3.7100    0.3620 hc        1 0VH      0.056200
     33 H7         -0.1730    0.2640   -0.2370 ha        1 0VH      0.157000
     34 H8          0.5220   -5.6480    0.1390 hn        1 0VH      0.316500
     35 H9          2.0970   -5.9800    0.6870 hn        1 0VH      0.316500
     36 H10        -3.6410   -1.0360    0.0340 hn        1 0VH      0.454800
     37 H11        -1.9250    0.7550   -1.3790 h1        1 0VH      0.044700
     38 H12        -3.8970    2.0790   -1.8210 h1        1 0VH      0.021700
     39 H13        -6.1620    1.5560   -0.8500 hc        1 0VH      0.049700
     40 H14        -5.4170    0.3360    0.2540 hc        1 0VH      0.049700
     41 H15        -4.7900    3.3670    0.1120 hc        1 0VH      0.043200
     42 H16        -5.6930    2.4970    1.4150 hc        1 0VH      0.043200
     43 H17        -3.3050    2.9770    2.0420 hc        1 0VH      0.050700
     44 H18        -3.6820    1.2090    2.0360 hc        1 0VH      0.050700
     45 H19        -1.4930    1.6550    0.9540 hc        1 0VH      0.050200
     46 H20        -2.2660    2.8120   -0.2060 hc        1 0VH      0.050200
     47 H21        -5.3300    0.2090   -2.6790 hn        1 0VH      0.358800
     48 H22        -3.7430    0.0420   -3.0400 hn        1 0VH      0.358800
     49 H24         3.1580    3.7390    2.1330 hc        1 0VH      0.041367
     50 H25         3.8220    2.1980    2.8170 hc        1 0VH      0.041367
     51 H26         4.8280    3.7070    2.8360 hc        1 0VH      0.041367
@<TRIPOS>BOND
     1    1    2 ar  
     2    1    6 ar  
     3    1   27 1   
     4    2    3 ar  
     5    2   28 1   
     6    3    4 ar  
     7    3   29 1   
     8    4    5 ar  
     9    4    8 1   
    10    5    6 ar  
    11    6    7 1   
    12    7    9 1   
    13    7   30 1   
    14    8   26 1   
    15    8   31 1   
    16    8   32 1   
    17    9   10 ar  
    18    9   14 ar  
    19   10   11 ar  
    20   10   33 1   
    21   11   12 ar  
    22   11   18 1   
    23   12   13 ar  
    24   13   14 ar  
    25   14   15 1   
    26   15   16 2   
    27   15   17 1   
    28   17   34 1   
    29   17   35 1   
    30   18   19 1   
    31   18   36 1   
    32   19   20 1   
    33   19   24 1   
    34   19   37 1   
    35   20   21 1   
    36   20   25 1   
    37   20   38 1   
    38   21   22 1   
    39   21   39 1   
    40   21   40 1   
    41   22   23 1   
    42   22   41 1   
    43   22   42 1   
    44   23   24 1   
    45   23   43 1   
    46   23   44 1   
    47   24   45 1   
    48   24   46 1   
    49   25   47 1   
    50   25   48 1   
    51   26   49 1   
    52   26   50 1   
    53   26   51 1   
@<TRIPOS>SUBSTRUCTURE
     1 0VH         1 TEMP              0 ****  ****    0 ROOT
