@<TRIPOS>MOLECULE
0VH
   53    55     1     0     0
SMALL
bcc


@<TRIPOS>ATOM
      1 C1          1.8400    1.2760    0.5670 ca        1 0VH     -0.248300
      2 C2          2.6900    0.7530    1.5380 ca        1 0VH     -0.039000
      3 C3          2.2620   -0.3160    2.3250 ca        1 0VH     -0.224300
      4 C4          0.9800   -0.8580    2.1000 ca        1 0VH      0.441600
      5 N5          0.1360   -0.3780    1.1530 nb        1 0VH     -0.790000
      6 C6          0.5530    0.6860    0.4090 ca        1 0VH      0.628200
      7 N7         -0.3110    1.2710   -0.5590 nh        1 0VH     -0.720300
      8 C8          0.5320   -2.0220    2.9420 c3        1 0VH     -0.140700
      9 C9         -1.6160    0.9340   -0.8200 ca        1 0VH      0.253300
     10 C10        -2.5530    1.9630   -1.1740 ca        1 0VH     -0.349300
     11 C11        -3.8920    1.6180   -1.4220 ca        1 0VH      0.628200
     12 N12        -4.3140    0.2660   -1.2570 nb        1 0VH     -0.328000
     13 N13        -3.4950   -0.6280   -0.9900 nb        1 0VH     -0.229000
     14 C14        -2.1420   -0.3920   -0.8170 ca        1 0VH      0.129800
     15 C15        -1.2770   -1.5760   -0.7410 c         1 0VH      0.525600
     16 O16        -0.2870   -1.8500   -1.3960 o         1 0VH     -0.396100
     17 N17        -1.7100   -2.6120    0.2730 n4        1 0VH     -0.747400
     18 N18        -4.8630    2.5100   -1.9000 nh        1 0VH     -0.846900
     19 C19        -4.6510    3.9420   -1.8190 c3        1 0VH      0.184500
     20 C20        -5.6470    4.6990   -2.7550 c3        1 0VH      0.116500
     21 C21        -7.0890    4.6340   -2.2430 c3        1 0VH     -0.106400
     22 C22        -7.1620    5.2130   -0.8440 c3        1 0VH     -0.084400
     23 C23        -6.2070    4.5170    0.1000 c3        1 0VH     -0.095400
     24 C24        -4.7870    4.5610   -0.4180 c3        1 0VH     -0.110400
     25 N25        -5.5590    4.2050   -4.1740 n4        1 0VH     -0.837600
     26 C26        -0.6780   -1.6980    3.7830 c3        1 0VH     -0.099100
     27 H1          2.1680    2.1180   -0.0610 ha        1 0VH      0.165000
     28 H2          3.6950    1.1860    1.6820 ha        1 0VH      0.176000
     29 H3          2.9140   -0.7350    3.1060 ha        1 0VH      0.177000
     30 H4         -0.0360    2.1990   -0.8220 hn        1 0VH      0.461800
     31 H5          0.3210   -2.9040    2.2800 hc        1 0VH      0.060200
     32 H6          1.3800   -2.3230    3.6180 hc        1 0VH      0.060200
     33 H7         -2.2110    3.0070   -1.2230 ha        1 0VH      0.164000
     34 H8         -1.7130   -2.1840    1.2090 hn        1 0VH      0.474467
     35 H9         -1.0560   -3.4030    0.2670 hn        1 0VH      0.474467
     36 H10        -5.8030    2.2400   -1.6630 hn        1 0VH      0.439800
     37 H11        -3.6030    4.1570   -2.1940 h1        1 0VH      0.075700
     38 H12        -5.3140    5.7840   -2.7710 hx        1 0VH      0.123700
     39 H13        -7.4640    3.5770   -2.2360 hc        1 0VH      0.074700
     40 H14        -7.7630    5.2290   -2.9170 hc        1 0VH      0.074700
     41 H15        -8.2140    5.1050   -0.4650 hc        1 0VH      0.083200
     42 H16        -6.9320    6.3120   -0.8760 hc        1 0VH      0.083200
     43 H17        -6.5310    3.4540    0.2580 hc        1 0VH      0.074700
     44 H18        -6.2460    5.0230    1.1030 hc        1 0VH      0.074700
     45 H19        -4.4360    5.6270   -0.4710 hc        1 0VH      0.078200
     46 H20        -4.1050    4.0190    0.2880 hc        1 0VH      0.078200
     47 H21        -4.5840    4.1990   -4.4850 hn        1 0VH      0.465133
     48 H22        -5.9340    3.2510   -4.2400 hn        1 0VH      0.465133
     49 H24        -0.4670   -0.8330    4.4590 hc        1 0VH      0.048367
     50 H25        -1.5610   -1.4340    3.1520 hc        1 0VH      0.048367
     51 H26        -0.9450   -2.5780    4.4190 hc        1 0VH      0.048367
     52 H173       -2.6540   -2.9490    0.0540 hn        1 0VH      0.474467
     53 H253       -6.1090    4.8170   -4.7860 hn        1 0VH      0.465133
@<TRIPOS>BOND
     1    1    2 ar  
     2    1    6 ar  
     3    1   27 1   
     4    2    3 ar  
     5    2   28 1   
     6    3    4 ar  
     7    3   29 1   
     8    4    5 ar  
     9    4    8 1   
    10    5    6 ar  
    11    6    7 1   
    12    7    9 1   
    13    7   30 1   
    14    8   26 1   
    15    8   31 1   
    16    8   32 1   
    17    9   10 ar  
    18    9   14 ar  
    19   10   11 ar  
    20   10   33 1   
    21   11   12 ar  
    22   11   18 1   
    23   12   13 ar  
    24   13   14 ar  
    25   14   15 1   
    26   15   16 2   
    27   15   17 1   
    28   17   34 1   
    29   17   35 1   
    30   17   52 1   
    31   18   19 1   
    32   18   36 1   
    33   19   20 1   
    34   19   24 1   
    35   19   37 1   
    36   20   21 1   
    37   20   25 1   
    38   20   38 1   
    39   21   22 1   
    40   21   39 1   
    41   21   40 1   
    42   22   23 1   
    43   22   41 1   
    44   22   42 1   
    45   23   24 1   
    46   23   43 1   
    47   23   44 1   
    48   24   45 1   
    49   24   46 1   
    50   25   47 1   
    51   25   48 1   
    52   25   53 1   
    53   26   49 1   
    54   26   50 1   
    55   26   51 1   
@<TRIPOS>SUBSTRUCTURE
     1 0VH         1 TEMP              0 ****  ****    0 ROOT
