@<TRIPOS>MOLECULE
0VJ
   36    31     1     0     0
SMALL
bcc


@<TRIPOS>ATOM
      1 C01         0.4270   -1.4960   -4.8260 c1        1 0VJ     -0.098250
      2 C02         1.8350   -1.4390   -4.8180 c1        1 0VJ     -0.098250
      3 C03         2.5280   -1.4570   -3.6060 c1        1 0VJ     -0.098250
      4 C04         1.8230   -1.5310   -2.3970 c1        1 0VJ     -0.117000
      5 C05         0.4130   -1.5880   -2.4050 c1        1 0VJ     -0.102000
      6 C06        -0.2780   -1.5700   -3.6190 c1        1 0VJ     -0.098250
      7 C07         2.5970   -1.5790   -1.0460 c2        1 0VJ      0.279000
      8 C08         1.8440   -1.5960    0.2460 c2        1 0VJ      0.024000
      9 C09         0.3640   -1.5860    0.2370 c1        1 0VJ     -0.156000
     10 C10        -0.3740   -1.6180   -1.0630 c1        1 0VJ      0.306000
     11 C11        -0.4120   -1.5890    1.5580 c3        1 0VJ     -0.072000
     12 C12        -0.8260   -0.1360    1.9200 c2        1 0VJ     -0.110000
     13 C13         0.1340    0.7620    2.3870 c2        1 0VJ     -0.090000
     14 C14        -0.2540    2.0200    2.8530 c1        1 0VJ     -0.160000
     15 C15        -1.5970    2.3790    2.8540 c1        1 0VJ      0.078000
     16 C16        -2.5560    1.4850    2.3890 c1        1 0VJ     -0.206000
     17 C17        -2.1680    0.2210    1.9200 c1        1 0VJ     -0.086000
     18 O01        -1.9950    3.6700    3.3410 o         1 0VJ     -0.212000
     19 O02        -1.5900   -1.6100   -1.0720 o         1 0VJ     -0.282000
     20 O03         3.8100   -1.5880   -1.0410 o         1 0VJ     -0.285000
     21 O           2.5380   -1.7610    1.4620 oh        1 0VJ     -0.239000
     22 C          -2.0060    4.6950    2.3330 c3        1 0VJ     -0.076000
     23 H1         -0.0590   -1.4830   -5.6770 ha        1 0VJ      0.152750
     24 H2          2.3270   -1.3870   -5.6620 ha        1 0VJ      0.152750
     25 H3          3.5050   -1.4170   -3.6010 ha        1 0VJ      0.152750
     26 H4         -1.2600   -1.6100   -3.6250 ha        1 0VJ      0.152750
     27 H5         -1.2150   -2.1470    1.4650 hc        1 0VJ      0.110000
     28 H6          0.1580   -1.9540    2.2700 hc        1 0VJ      0.110000
     29 H7          1.0790    0.5110    2.3870 ha        1 0VJ      0.143000
     30 H8          0.4200    2.6490    3.1800 ha        1 0VJ      0.148000
     31 H9         -3.5040    1.7390    2.3900 ha        1 0VJ      0.136000
     32 H10        -2.8430   -0.4090    1.5930 ha        1 0VJ      0.146000
     33 H11         3.1710   -2.3730    1.3610 ho        1 0VJ      0.244000
     34 H12        -1.1050    4.8010    1.9660 h1        1 0VJ      0.082667
     35 H13        -2.3020    5.5520    2.7370 h1        1 0VJ      0.082667
     36 H14        -2.6270    4.4400    1.6130 h1        1 0VJ      0.082667
@<TRIPOS>BOND
     1    1    6 1   
     2    1   23 1   
     3    2    3 1   
     4    2   24 1   
     5    3   25 1   
     6    4    5 1   
     7    4    7 1   
     8    5   10 1   
     9    6   26 1   
    10    7    8 1   
    11    7   20 1   
    12    8    9 1   
    13    8   21 1   
    14    9   11 1   
    15   10   19 1   
    16   11   12 1   
    17   11   27 1   
    18   11   28 1   
    19   12   13 1   
    20   12   17 1   
    21   13   14 1   
    22   13   29 1   
    23   14   30 1   
    24   15   16 1   
    25   16   31 1   
    26   17   32 1   
    27   18   22 1   
    28   21   33 1   
    29   22   34 1   
    30   22   35 1   
    31   22   36 1   
@<TRIPOS>SUBSTRUCTURE
     1 0VJ         1 TEMP              0 ****  ****    0 ROOT
