@<TRIPOS>MOLECULE
0VJ
   36    38     1     0     0
SMALL
bcc


@<TRIPOS>ATOM
      1 C01         0.0080   -0.0370   -0.0300 ca        1 0VJ     -0.107000
      2 C02         1.4000   -0.0760   -0.0230 ca        1 0VJ     -0.121000
      3 C03         2.0920   -0.1140    1.1890 ca        1 0VJ     -0.077000
      4 C04         1.3890   -0.1090    2.3990 ca        1 0VJ     -0.137600
      5 C05        -0.0170   -0.0710    2.3940 ca        1 0VJ     -0.122600
      6 C06        -0.6990   -0.0360    1.1750 ca        1 0VJ     -0.087000
      7 C07         2.1320   -0.1420    3.6660 c         1 0VJ      0.558900
      8 C08         1.3210   -0.0740    4.9120 cc        1 0VJ      0.047900
      9 C09        -0.0340   -0.0320    4.9220 cd        1 0VJ     -0.178400
     10 C10        -0.7940   -0.0720    3.6570 c         1 0VJ      0.583900
     11 C11        -0.8160    0.0380    6.1900 c3        1 0VJ      0.018100
     12 C12        -1.1080    1.4430    6.5960 ca        1 0VJ     -0.117300
     13 C13        -2.2820    2.0720    6.1580 ca        1 0VJ     -0.088000
     14 C14        -2.5780    3.3700    6.5520 ca        1 0VJ     -0.182500
     15 C15        -1.6830    4.0530    7.3970 ca        1 0VJ      0.123100
     16 C16        -0.5050    3.4390    7.8360 ca        1 0VJ     -0.182500
     17 C17        -0.2260    2.1350    7.4290 ca        1 0VJ     -0.088000
     18 O01        -2.0690    5.3380    7.7330 os        1 0VJ     -0.328900
     19 O02        -2.0320   -0.1130    3.6420 o         1 0VJ     -0.519100
     20 O03         3.3670   -0.2160    3.7410 o         1 0VJ     -0.525100
     21 O           2.0030   -0.0540    6.1030 oh        1 0VJ     -0.484100
     22 C          -1.1900    6.0510    8.5930 c3        1 0VJ      0.113700
     23 H1         -0.5400   -0.0070   -0.9840 ha        1 0VJ      0.144000
     24 H2          1.9590   -0.0790   -0.9710 ha        1 0VJ      0.144000
     25 H3          3.1940   -0.1460    1.2060 ha        1 0VJ      0.159000
     26 H4         -1.8020   -0.0070    1.1780 ha        1 0VJ      0.164000
     27 H5         -0.2350   -0.4750    7.0070 hc        1 0VJ      0.071200
     28 H6         -1.7830   -0.5210    6.0500 hc        1 0VJ      0.071200
     29 H7         -2.9690    1.5290    5.4880 ha        1 0VJ      0.144500
     30 H8         -3.4960    3.8730    6.2160 ha        1 0VJ      0.142000
     31 H9          0.2000    3.9660    8.4920 ha        1 0VJ      0.142000
     32 H10         0.7040    1.6450    7.7610 ha        1 0VJ      0.144500
     33 H11         2.9540   -0.1310    5.9090 ho        1 0VJ      0.444000
     34 H12        -1.0830    5.5270    9.5740 h1        1 0VJ      0.043033
     35 H13        -0.1900    6.1870    8.1130 h1        1 0VJ      0.043033
     36 H14        -1.7000    7.0390    8.7280 h1        1 0VJ      0.043033
@<TRIPOS>BOND
     1    1    2 ar  
     2    1    6 ar  
     3    1   23 1   
     4    2    3 ar  
     5    2   24 1   
     6    3    4 ar  
     7    3   25 1   
     8    4    5 ar  
     9    4    7 1   
    10    5    6 ar  
    11    5   10 1   
    12    6   26 1   
    13    7    8 1   
    14    7   20 2   
    15    8    9 2   
    16    8   21 1   
    17    9   10 1   
    18    9   11 1   
    19   10   19 2   
    20   11   12 1   
    21   11   27 1   
    22   11   28 1   
    23   12   13 ar  
    24   12   17 ar  
    25   13   14 ar  
    26   13   29 1   
    27   14   15 ar  
    28   14   30 1   
    29   15   16 ar  
    30   15   18 1   
    31   16   17 ar  
    32   16   31 1   
    33   17   32 1   
    34   18   22 1   
    35   21   33 1   
    36   22   34 1   
    37   22   35 1   
    38   22   36 1   
@<TRIPOS>SUBSTRUCTURE
     1 0VJ         1 TEMP              0 ****  ****    0 ROOT
