@<TRIPOS>MOLECULE
0VJ
   36    38     1     0     0
SMALL
bcc


@<TRIPOS>ATOM
      1 C01         4.3810   -2.1070   -0.7840 ca        1 0VJ     -0.107000
      2 C02         4.8670   -0.9540   -1.3950 ca        1 0VJ     -0.121000
      3 C03         4.1960    0.2590   -1.2310 ca        1 0VJ     -0.077000
      4 C04         3.0340    0.3190   -0.4550 ca        1 0VJ     -0.137600
      5 C05         2.5420   -0.8440    0.1650 ca        1 0VJ     -0.122600
      6 C06         3.2230   -2.0530   -0.0050 ca        1 0VJ     -0.087000
      7 C07         2.3350    1.6020   -0.2960 c         1 0VJ      0.558900
      8 C08         1.0730    1.5780    0.4920 cc        1 0VJ      0.047900
      9 C09         0.5860    0.4630    1.0910 cd        1 0VJ     -0.178400
     10 C10         1.3170   -0.8160    1.0000 c         1 0VJ      0.583900
     11 C11        -0.6840    0.4740    1.8730 c3        1 0VJ      0.018100
     12 C12        -1.8670    0.1290    1.0330 ca        1 0VJ     -0.117300
     13 C13        -2.2760   -1.2060    0.9070 ca        1 0VJ     -0.088000
     14 C14        -3.3920   -1.5370    0.1500 ca        1 0VJ     -0.182500
     15 C15        -4.1120   -0.5130   -0.4950 ca        1 0VJ      0.123100
     16 C16        -3.7110    0.8230   -0.3830 ca        1 0VJ     -0.182500
     17 C17        -2.5870    1.1330    0.3820 ca        1 0VJ     -0.088000
     18 O01        -5.2070   -0.9440   -1.2210 os        1 0VJ     -0.328900
     19 O02         0.9330   -1.8300    1.6010 o         1 0VJ     -0.519100
     20 O03         2.7350    2.6700   -0.7810 o         1 0VJ     -0.525100
     21 O           0.3830    2.7580    0.6080 oh        1 0VJ     -0.484100
     22 C          -5.9600    0.0670   -1.8790 c3        1 0VJ      0.113700
     23 H1          4.9080   -3.0650   -0.9120 ha        1 0VJ      0.144000
     24 H2          5.7800   -0.9940   -2.0090 ha        1 0VJ      0.144000
     25 H3          4.5720    1.1790   -1.7090 ha        1 0VJ      0.159000
     26 H4          2.8330   -2.9620    0.4840 ha        1 0VJ      0.164000
     27 H5         -0.5950   -0.2660    2.7170 hc        1 0VJ      0.071200
     28 H6         -0.8280    1.4950    2.3220 hc        1 0VJ      0.071200
     29 H7         -1.6960   -1.9980    1.4100 ha        1 0VJ      0.144500
     30 H8         -3.7220   -2.5790    0.0450 ha        1 0VJ      0.142000
     31 H9         -4.2650    1.6260   -0.8860 ha        1 0VJ      0.142000
     32 H10        -2.2560    2.1800    0.4690 ha        1 0VJ      0.144500
     33 H11         0.8940    3.4530    0.1550 ho        1 0VJ      0.444000
     34 H12        -6.3830    0.7900   -1.1390 h1        1 0VJ      0.043033
     35 H13        -5.3310    0.6020   -2.6310 h1        1 0VJ      0.043033
     36 H14        -6.7790   -0.5040   -2.3840 h1        1 0VJ      0.043033
@<TRIPOS>BOND
     1    1    2 ar  
     2    1    6 ar  
     3    1   23 1   
     4    2    3 ar  
     5    2   24 1   
     6    3    4 ar  
     7    3   25 1   
     8    4    5 ar  
     9    4    7 1   
    10    5    6 ar  
    11    5   10 1   
    12    6   26 1   
    13    7    8 1   
    14    7   20 2   
    15    8    9 2   
    16    8   21 1   
    17    9   10 1   
    18    9   11 1   
    19   10   19 2   
    20   11   12 1   
    21   11   27 1   
    22   11   28 1   
    23   12   13 ar  
    24   12   17 ar  
    25   13   14 ar  
    26   13   29 1   
    27   14   15 ar  
    28   14   30 1   
    29   15   16 ar  
    30   15   18 1   
    31   16   17 ar  
    32   16   31 1   
    33   17   32 1   
    34   18   22 1   
    35   21   33 1   
    36   22   34 1   
    37   22   35 1   
    38   22   36 1   
@<TRIPOS>SUBSTRUCTURE
     1 0VJ         1 TEMP              0 ****  ****    0 ROOT
