@<TRIPOS>MOLECULE
0VJ
   36    38     1     0     0
SMALL
bcc


@<TRIPOS>ATOM
      1 C01        -0.0060   -0.0520   -0.0240 ca        1 0VJ     -0.107000
      2 C02         1.3860   -0.0750   -0.0260 ca        1 0VJ     -0.121000
      3 C03         2.0860   -0.1010    1.1810 ca        1 0VJ     -0.077000
      4 C04         1.3910   -0.1010    2.3950 ca        1 0VJ     -0.137600
      5 C05        -0.0150   -0.0790    2.4000 ca        1 0VJ     -0.122600
      6 C06        -0.7060   -0.0550    1.1850 ca        1 0VJ     -0.087000
      7 C07         2.1420   -0.1210    3.6580 c         1 0VJ      0.558900
      8 C08         1.3390   -0.0580    4.9090 cc        1 0VJ      0.047900
      9 C09        -0.0160   -0.0310    4.9280 cd        1 0VJ     -0.178400
     10 C10        -0.7840   -0.0850    3.6680 c         1 0VJ      0.583900
     11 C11        -0.7900    0.0350    6.2010 c3        1 0VJ      0.018100
     12 C12        -1.0970    1.4380    6.6030 ca        1 0VJ     -0.117300
     13 C13        -2.2800    2.0520    6.1710 ca        1 0VJ     -0.088000
     14 C14        -2.5880    3.3490    6.5610 ca        1 0VJ     -0.182500
     15 C15        -1.6950    4.0460    7.3970 ca        1 0VJ      0.123100
     16 C16        -0.5060    3.4470    7.8290 ca        1 0VJ     -0.182500
     17 C17        -0.2160    2.1440    7.4260 ca        1 0VJ     -0.088000
     18 O01        -2.0930    5.3270    7.7300 os        1 0VJ     -0.328900
     19 O02        -2.0220   -0.1410    3.6610 o         1 0VJ     -0.519100
     20 O03         3.3780   -0.1810    3.7250 o         1 0VJ     -0.525100
     21 O           2.0280   -0.0250    6.0960 oh        1 0VJ     -0.484100
     22 C          -1.2150    6.0550    8.5790 c3        1 0VJ      0.113700
     23 H1         -0.5610   -0.0310   -0.9750 ha        1 0VJ      0.144000
     24 H2          1.9390   -0.0740   -0.9780 ha        1 0VJ      0.144000
     25 H3          3.1880   -0.1210    1.1920 ha        1 0VJ      0.159000
     26 H4         -1.8090   -0.0390    1.1950 ha        1 0VJ      0.164000
     27 H5         -1.7520   -0.5350    6.0690 hc        1 0VJ      0.071200
     28 H6         -0.1990   -0.4680    7.0160 hc        1 0VJ      0.071200
     29 H7         -2.9660    1.4980    5.5090 ha        1 0VJ      0.144500
     30 H8         -3.5140    3.8390    6.2300 ha        1 0VJ      0.142000
     31 H9          0.1970    3.9850    8.4780 ha        1 0VJ      0.142000
     32 H10         0.7220    1.6660    7.7530 ha        1 0VJ      0.144500
     33 H11         2.9790   -0.0920    5.8960 ho        1 0VJ      0.444000
     34 H12        -1.0950    5.5370    9.5620 h1        1 0VJ      0.043033
     35 H13        -0.2210    6.1990    8.0900 h1        1 0VJ      0.043033
     36 H14        -1.7350    7.0370    8.7130 h1        1 0VJ      0.043033
@<TRIPOS>BOND
     1    1    2 ar  
     2    1    6 ar  
     3    1   23 1   
     4    2    3 ar  
     5    2   24 1   
     6    3    4 ar  
     7    3   25 1   
     8    4    5 ar  
     9    4    7 1   
    10    5    6 ar  
    11    5   10 1   
    12    6   26 1   
    13    7    8 1   
    14    7   20 2   
    15    8    9 2   
    16    8   21 1   
    17    9   10 1   
    18    9   11 1   
    19   10   19 2   
    20   11   12 1   
    21   11   27 1   
    22   11   28 1   
    23   12   13 ar  
    24   12   17 ar  
    25   13   14 ar  
    26   13   29 1   
    27   14   15 ar  
    28   14   30 1   
    29   15   16 ar  
    30   15   18 1   
    31   16   17 ar  
    32   16   31 1   
    33   17   32 1   
    34   18   22 1   
    35   21   33 1   
    36   22   34 1   
    37   22   35 1   
    38   22   36 1   
@<TRIPOS>SUBSTRUCTURE
     1 0VJ         1 TEMP              0 ****  ****    0 ROOT
