@<TRIPOS>MOLECULE
0VJ
   36    38     1     0     0
SMALL
bcc


@<TRIPOS>ATOM
      1 C01         0.0030   -0.0280   -0.0330 ca        1 0VJ     -0.107000
      2 C02         1.3950   -0.0670   -0.0290 ca        1 0VJ     -0.121000
      3 C03         2.0880   -0.1050    1.1830 ca        1 0VJ     -0.077000
      4 C04         1.3870   -0.1030    2.3930 ca        1 0VJ     -0.137600
      5 C05        -0.0190   -0.0660    2.3900 ca        1 0VJ     -0.122600
      6 C06        -0.7030   -0.0290    1.1720 ca        1 0VJ     -0.087000
      7 C07         2.1310   -0.1380    3.6600 c         1 0VJ      0.558900
      8 C08         1.3230   -0.0720    4.9070 cc        1 0VJ      0.047900
      9 C09        -0.0320   -0.0320    4.9190 cd        1 0VJ     -0.178400
     10 C10        -0.7940   -0.0700    3.6550 c         1 0VJ      0.583900
     11 C11        -0.8130    0.0350    6.1880 c3        1 0VJ      0.018100
     12 C12        -1.1060    1.4390    6.5970 ca        1 0VJ     -0.117300
     13 C13        -2.2800    2.0690    6.1620 ca        1 0VJ     -0.088000
     14 C14        -2.5770    3.3660    6.5580 ca        1 0VJ     -0.182500
     15 C15        -1.6810    4.0480    7.4040 ca        1 0VJ      0.123100
     16 C16        -0.5020    3.4330    7.8400 ca        1 0VJ     -0.182500
     17 C17        -0.2230    2.1300    7.4310 ca        1 0VJ     -0.088000
     18 O01        -2.0680    5.3310    7.7440 os        1 0VJ     -0.328900
     19 O02        -2.0330   -0.1120    3.6410 o         1 0VJ     -0.519100
     20 O03         3.3660   -0.2100    3.7320 o         1 0VJ     -0.525100
     21 O           2.0050   -0.0540    6.0970 oh        1 0VJ     -0.484100
     22 C          -1.1880    6.0430    8.6040 c3        1 0VJ      0.113700
     23 H1         -0.5470    0.0030   -0.9870 ha        1 0VJ      0.144000
     24 H2          1.9530   -0.0670   -0.9770 ha        1 0VJ      0.144000
     25 H3          3.1900   -0.1370    1.1980 ha        1 0VJ      0.159000
     26 H4         -1.8060   -0.0020    1.1770 ha        1 0VJ      0.164000
     27 H5         -0.2310   -0.4790    7.0030 hc        1 0VJ      0.071200
     28 H6         -1.7800   -0.5240    6.0480 hc        1 0VJ      0.071200
     29 H7         -2.9670    1.5260    5.4910 ha        1 0VJ      0.144500
     30 H8         -3.4950    3.8690    6.2240 ha        1 0VJ      0.142000
     31 H9          0.2030    3.9590    8.4980 ha        1 0VJ      0.142000
     32 H10         0.7070    1.6390    7.7600 ha        1 0VJ      0.144500
     33 H11         2.9570   -0.1300    5.9020 ho        1 0VJ      0.444000
     34 H12        -1.0800    5.5160    9.5840 h1        1 0VJ      0.043033
     35 H13        -0.1890    6.1810    8.1230 h1        1 0VJ      0.043033
     36 H14        -1.6990    7.0300    8.7420 h1        1 0VJ      0.043033
@<TRIPOS>BOND
     1    1    2 ar  
     2    1    6 ar  
     3    1   23 1   
     4    2    3 ar  
     5    2   24 1   
     6    3    4 ar  
     7    3   25 1   
     8    4    5 ar  
     9    4    7 1   
    10    5    6 ar  
    11    5   10 1   
    12    6   26 1   
    13    7    8 1   
    14    7   20 2   
    15    8    9 2   
    16    8   21 1   
    17    9   10 1   
    18    9   11 1   
    19   10   19 2   
    20   11   12 1   
    21   11   27 1   
    22   11   28 1   
    23   12   13 ar  
    24   12   17 ar  
    25   13   14 ar  
    26   13   29 1   
    27   14   15 ar  
    28   14   30 1   
    29   15   16 ar  
    30   15   18 1   
    31   16   17 ar  
    32   16   31 1   
    33   17   32 1   
    34   18   22 1   
    35   21   33 1   
    36   22   34 1   
    37   22   35 1   
    38   22   36 1   
@<TRIPOS>SUBSTRUCTURE
     1 0VJ         1 TEMP              0 ****  ****    0 ROOT
