@<TRIPOS>MOLECULE
0VK
   72    74     1     0     0
SMALL
bcc


@<TRIPOS>ATOM
      1 C1          5.5210    1.9980   -0.0680 ca        1 0VK     -0.105000
      2 C2          6.7530    1.4800    0.3380 ca        1 0VK     -0.085300
      3 C3          6.9340    0.0860    0.3960 ca        1 0VK     -0.090300
      4 C4          5.8820   -0.7640    0.0490 ca        1 0VK     -0.099000
      5 C5          4.6530   -0.2380   -0.3640 ca        1 0VK     -0.095300
      6 C6          4.4760    1.1470   -0.4200 ca        1 0VK     -0.103000
      7 C48         8.2520   -0.4610    0.8370 c3        1 0VK      0.176700
      8 O49         8.2250   -1.8800    0.7800 oh        1 0VK     -0.597800
      9 C52         7.8860    2.3780    0.7130 c3        1 0VK      0.175700
     10 O53         7.4790    3.7330    0.6010 oh        1 0VK     -0.595800
     11 C10         3.5700   -1.1840   -0.7650 c3        1 0VK      0.175700
     12 O1          2.3110   -0.5260   -0.5650 os        1 0VK     -0.327900
     13 C14         1.1920   -1.2800   -0.8630 ca        1 0VK      0.121100
     14 C17        -0.0310   -0.6330   -0.6060 ca        1 0VK     -0.142000
     15 C18        -1.2320   -1.2920   -0.8730 cp        1 0VK     -0.009000
     16 C19        -1.2190   -2.5990   -1.4010 ca        1 0VK     -0.096300
     17 C20         0.0070   -3.2210   -1.6480 ca        1 0VK     -0.100000
     18 C21         1.2150   -2.5770   -1.3850 ca        1 0VK     -0.199000
     19 C8         -2.4840   -3.3080   -1.7010 c3        1 0VK     -0.050800
     20 C7         -2.4960   -0.5870   -0.6180 cp        1 0VK     -0.038000
     21 C9         -2.9300    0.3670   -1.5500 ca        1 0VK     -0.115000
     22 C11        -3.2710   -0.8310    0.5280 ca        1 0VK     -0.057300
     23 C12        -4.4610   -0.1170    0.7160 ca        1 0VK     -0.124000
     24 C13        -4.1130    1.0700   -1.3510 ca        1 0VK     -0.129000
     25 C16        -4.8890    0.8390   -0.2080 ca        1 0VK     -0.104300
     26 C15        -2.8720   -1.8390    1.5500 c3        1 0VK     -0.044100
     27 C22        -2.4440   -1.1870    2.8520 c3        1 0VK     -0.075400
     28 C24        -6.1700    1.6130    0.0070 c3        1 0VK      0.198100
     29 C25        -5.8650    3.1200   -0.0720 c3        1 0VK     -0.083400
     30 C26        -7.2240    1.2180   -1.0390 c3        1 0VK     -0.083400
     31 O2         -6.7470    1.3050    1.2770 oh        1 0VK     -0.591800
     32 C28        -7.6070   -0.2350   -0.9620 c3        1 0VK     -0.092600
     33 C29        -7.0320    3.9830    0.3300 c3        1 0VK     -0.092600
     34 C23        -2.0830   -2.2210    3.8870 c3        1 0VK     -0.094100
     35 H1          5.3810    3.0910   -0.1080 ha        1 0VK      0.156000
     36 H2          6.0290   -1.8550    0.1020 ha        1 0VK      0.153000
     37 H3          3.5050    1.5600   -0.7340 ha        1 0VK      0.150000
     38 H4          9.0690   -0.0740    0.1650 h1        1 0VK      0.030200
     39 H5          8.4660   -0.1290    1.8920 h1        1 0VK      0.030200
     40 H6          9.0870   -2.1770    1.0940 ho        1 0VK      0.403000
     41 H7          8.2030    2.1660    1.7730 h1        1 0VK      0.029700
     42 H8          8.7620    2.1900    0.0310 h1        1 0VK      0.029700
     43 H9          8.2400    4.2640    0.8630 ho        1 0VK      0.403000
     44 H10         3.6770   -1.4510   -1.8520 h1        1 0VK      0.049200
     45 H11         3.6040   -2.1180   -0.1410 h1        1 0VK      0.049200
     46 H12        -0.0270    0.3870   -0.1950 ha        1 0VK      0.153000
     47 H13         0.0230   -4.2420   -2.0610 ha        1 0VK      0.133000
     48 H14         2.1620   -3.0940   -1.5910 ha        1 0VK      0.137000
     49 H15        -2.9810   -2.8480   -2.5920 hc        1 0VK      0.045700
     50 H16        -2.3030   -4.3890   -1.9180 hc        1 0VK      0.045700
     51 H17        -3.1880   -3.2310   -0.8330 hc        1 0VK      0.045700
     52 H18        -2.3240    0.5570   -2.4490 ha        1 0VK      0.138000
     53 H19        -5.0750   -0.3290    1.6060 ha        1 0VK      0.144000
     54 H20        -4.4380    1.8070   -2.1000 ha        1 0VK      0.132000
     55 H21        -3.7420   -2.5230    1.7460 hc        1 0VK      0.054700
     56 H22        -2.0320   -2.4750    1.1610 hc        1 0VK      0.054700
     57 H23        -1.5630   -0.5180    2.6630 hc        1 0VK      0.042700
     58 H24        -3.2760   -0.5390    3.2360 hc        1 0VK      0.042700
     59 H25        -4.9920    3.3370    0.6000 hc        1 0VK      0.046950
     60 H26        -5.5530    3.3690   -1.1190 hc        1 0VK      0.046950
     61 H27        -8.1340    1.8520   -0.8720 hc        1 0VK      0.046950
     62 H28        -6.8100    1.4580   -2.0520 hc        1 0VK      0.046950
     63 H29        -6.1480    1.6570    1.9470 ho        1 0VK      0.400000
     64 H30        -6.7180   -0.8880   -1.1390 hc        1 0VK      0.039200
     65 H31        -8.0210   -0.4730    0.0480 hc        1 0VK      0.039200
     66 H32        -8.3820   -0.4690   -1.7320 hc        1 0VK      0.039200
     67 H33        -7.8350    3.9550   -0.4450 hc        1 0VK      0.039200
     68 H34        -7.4680    3.6310    1.2970 hc        1 0VK      0.039200
     69 H35        -6.7000    5.0420    0.4520 hc        1 0VK      0.039200
     70 H36        -1.7700   -1.7240    4.8370 hc        1 0VK      0.033700
     71 H37        -2.9560   -2.8820    4.1070 hc        1 0VK      0.033700
     72 H38        -1.2410   -2.8600    3.5290 hc        1 0VK      0.033700
@<TRIPOS>BOND
     1    1    2 ar  
     2    1    6 ar  
     3    1   35 1   
     4    2    3 ar  
     5    2    9 1   
     6    3    4 ar  
     7    3    7 1   
     8    4    5 ar  
     9    4   36 1   
    10    5    6 ar  
    11    5   11 1   
    12    6   37 1   
    13    7    8 1   
    14    7   38 1   
    15    7   39 1   
    16    8   40 1   
    17    9   10 1   
    18    9   41 1   
    19    9   42 1   
    20   10   43 1   
    21   11   12 1   
    22   11   44 1   
    23   11   45 1   
    24   12   13 1   
    25   13   14 ar  
    26   13   18 ar  
    27   14   15 ar  
    28   14   46 1   
    29   15   16 ar  
    30   15   20 1   
    31   16   17 ar  
    32   16   19 1   
    33   17   18 ar  
    34   17   47 1   
    35   18   48 1   
    36   19   49 1   
    37   19   50 1   
    38   19   51 1   
    39   20   21 ar  
    40   20   22 ar  
    41   21   24 ar  
    42   21   52 1   
    43   22   23 ar  
    44   22   26 1   
    45   23   25 ar  
    46   23   53 1   
    47   24   25 ar  
    48   24   54 1   
    49   25   28 1   
    50   26   27 1   
    51   26   55 1   
    52   26   56 1   
    53   27   34 1   
    54   27   57 1   
    55   27   58 1   
    56   28   29 1   
    57   28   30 1   
    58   28   31 1   
    59   29   33 1   
    60   29   59 1   
    61   29   60 1   
    62   30   32 1   
    63   30   61 1   
    64   30   62 1   
    65   31   63 1   
    66   32   64 1   
    67   32   65 1   
    68   32   66 1   
    69   33   67 1   
    70   33   68 1   
    71   33   69 1   
    72   34   70 1   
    73   34   71 1   
    74   34   72 1   
@<TRIPOS>SUBSTRUCTURE
     1 0VK         1 TEMP              0 ****  ****    0 ROOT
