@<TRIPOS>MOLECULE
0VK
   72    74     1     0     0
SMALL
bcc


@<TRIPOS>ATOM
      1 C1          0.8370    1.4340    0.6480 ca        1 0VK     -0.105000
      2 C2          1.7620    0.4490    0.2950 ca        1 0VK     -0.085300
      3 C3          1.9520   -0.6600    1.1410 ca        1 0VK     -0.090300
      4 C4          1.2180   -0.7630    2.3230 ca        1 0VK     -0.098000
      5 C5          0.2880    0.2250    2.6670 ca        1 0VK     -0.095300
      6 C6          0.1010    1.3240    1.8270 ca        1 0VK     -0.103000
      7 C48         2.9470   -1.7060    0.7580 c3        1 0VK      0.176700
      8 O49         2.9450   -2.7460    1.7260 oh        1 0VK     -0.597800
      9 C52         2.5550    0.5470   -0.9670 c3        1 0VK      0.175700
     10 O53         2.2190    1.7460   -1.6500 oh        1 0VK     -0.595800
     11 C10        -0.5050    0.0530    3.9210 c3        1 0VK      0.175700
     12 O1         -0.8940    1.3550    4.3800 os        1 0VK     -0.327900
     13 C14        -1.6170    1.3790    5.5580 ca        1 0VK      0.121100
     14 C17        -1.9380    2.6700    6.0170 ca        1 0VK     -0.142000
     15 C18        -2.6740    2.8220    7.1930 cp        1 0VK     -0.009000
     16 C19        -3.0910    1.6880    7.9180 ca        1 0VK     -0.096300
     17 C20        -2.7600    0.4160    7.4430 ca        1 0VK     -0.099000
     18 C21        -2.0280    0.2480    6.2690 ca        1 0VK     -0.199000
     19 C8         -3.8650    1.8360    9.1720 c3        1 0VK     -0.049800
     20 C7         -3.0200    4.1760    7.6450 cp        1 0VK     -0.039000
     21 C9         -4.2150    4.7550    7.1950 ca        1 0VK     -0.116000
     22 C11        -2.1830    4.9050    8.5060 ca        1 0VK     -0.057300
     23 C12        -2.5530    6.2000    8.8890 ca        1 0VK     -0.123000
     24 C13        -4.5710    6.0430    7.5830 ca        1 0VK     -0.129000
     25 C16        -3.7350    6.7820    8.4290 ca        1 0VK     -0.104300
     26 C15        -0.9140    4.3280    9.0310 c3        1 0VK     -0.041100
     27 C22         0.2690    4.6720    8.1440 c3        1 0VK     -0.076400
     28 C24        -4.1220    8.1860    8.8380 c3        1 0VK      0.198100
     29 C25        -4.3900    9.0210    7.5720 c3        1 0VK     -0.083400
     30 C26        -5.3630    8.1650    9.7440 c3        1 0VK     -0.083400
     31 O2         -3.0880    8.7990    9.6090 oh        1 0VK     -0.591800
     32 C28        -5.1350    7.4140   11.0290 c3        1 0VK     -0.092600
     33 C29        -4.5840   10.4870    7.8590 c3        1 0VK     -0.092600
     34 C23         1.5510    4.1110    8.7000 c3        1 0VK     -0.093100
     35 H1          0.6930    2.3030   -0.0140 ha        1 0VK      0.156000
     36 H2          1.3760   -1.6300    2.9840 ha        1 0VK      0.153000
     37 H3         -0.6230    2.1060    2.1040 ha        1 0VK      0.150000
     38 H4          3.9740   -1.2480    0.6980 h1        1 0VK      0.030200
     39 H5          2.6830   -2.1320   -0.2510 h1        1 0VK      0.030200
     40 H6          3.6150   -3.3780    1.4420 ho        1 0VK      0.403000
     41 H7          2.3310   -0.3380   -1.6270 h1        1 0VK      0.029700
     42 H8          3.6550    0.5460   -0.7250 h1        1 0VK      0.029700
     43 H9          2.7630    1.7620   -2.4460 ho        1 0VK      0.403000
     44 H10        -1.4280   -0.5550    3.7110 h1        1 0VK      0.049200
     45 H11         0.1070   -0.4540    4.7150 h1        1 0VK      0.049200
     46 H12        -1.6040    3.5460    5.4420 ha        1 0VK      0.153000
     47 H13        -3.0850   -0.4740    8.0050 ha        1 0VK      0.133000
     48 H14        -1.7860   -0.7660    5.9220 ha        1 0VK      0.137000
     49 H15        -4.2660    0.8540    9.5220 hc        1 0VK      0.045033
     50 H16        -3.2110    2.2600    9.9760 hc        1 0VK      0.045033
     51 H17        -4.7230    2.5380    9.0180 hc        1 0VK      0.045033
     52 H18        -4.8760    4.1820    6.5270 ha        1 0VK      0.138000
     53 H19        -1.9010    6.7600    9.5790 ha        1 0VK      0.144000
     54 H20        -5.5160    6.4760    7.2230 ha        1 0VK      0.132000
     55 H21        -1.0100    3.2110    9.1070 hc        1 0VK      0.052200
     56 H22        -0.7250    4.7170   10.0680 hc        1 0VK      0.052200
     57 H23         0.0880    4.2610    7.1140 hc        1 0VK      0.044200
     58 H24         0.3520    5.7870    8.0490 hc        1 0VK      0.044200
     59 H25        -3.5200    8.8910    6.8750 hc        1 0VK      0.046950
     60 H26        -5.2980    8.6140    7.0570 hc        1 0VK      0.046950
     61 H27        -6.2030    7.6990    9.1660 hc        1 0VK      0.046950
     62 H28        -5.6430    9.2250    9.9780 hc        1 0VK      0.046950
     63 H29        -2.3380    8.9280    9.0150 ho        1 0VK      0.400000
     64 H30        -4.8670    6.3490   10.8230 hc        1 0VK      0.039367
     65 H31        -4.2990    7.8800   11.6050 hc        1 0VK      0.039367
     66 H32        -6.0590    7.4360   11.6550 hc        1 0VK      0.039367
     67 H33        -5.5630   10.6690    8.3640 hc        1 0VK      0.039367
     68 H34        -3.7720   10.8690    8.5250 hc        1 0VK      0.039367
     69 H35        -4.5690   11.0690    6.9060 hc        1 0VK      0.039367
     70 H36         1.4920    2.9980    8.7810 hc        1 0VK      0.033700
     71 H37         2.4080    4.3700    8.0320 hc        1 0VK      0.033700
     72 H38         1.7580    4.5260    9.7160 hc        1 0VK      0.033700
@<TRIPOS>BOND
     1    1    2 ar  
     2    1    6 ar  
     3    1   35 1   
     4    2    3 ar  
     5    2    9 1   
     6    3    4 ar  
     7    3    7 1   
     8    4    5 ar  
     9    4   36 1   
    10    5    6 ar  
    11    5   11 1   
    12    6   37 1   
    13    7    8 1   
    14    7   38 1   
    15    7   39 1   
    16    8   40 1   
    17    9   10 1   
    18    9   41 1   
    19    9   42 1   
    20   10   43 1   
    21   11   12 1   
    22   11   44 1   
    23   11   45 1   
    24   12   13 1   
    25   13   14 ar  
    26   13   18 ar  
    27   14   15 ar  
    28   14   46 1   
    29   15   16 ar  
    30   15   20 1   
    31   16   17 ar  
    32   16   19 1   
    33   17   18 ar  
    34   17   47 1   
    35   18   48 1   
    36   19   49 1   
    37   19   50 1   
    38   19   51 1   
    39   20   21 ar  
    40   20   22 ar  
    41   21   24 ar  
    42   21   52 1   
    43   22   23 ar  
    44   22   26 1   
    45   23   25 ar  
    46   23   53 1   
    47   24   25 ar  
    48   24   54 1   
    49   25   28 1   
    50   26   27 1   
    51   26   55 1   
    52   26   56 1   
    53   27   34 1   
    54   27   57 1   
    55   27   58 1   
    56   28   29 1   
    57   28   30 1   
    58   28   31 1   
    59   29   33 1   
    60   29   59 1   
    61   29   60 1   
    62   30   32 1   
    63   30   61 1   
    64   30   62 1   
    65   31   63 1   
    66   32   64 1   
    67   32   65 1   
    68   32   66 1   
    69   33   67 1   
    70   33   68 1   
    71   33   69 1   
    72   34   70 1   
    73   34   71 1   
    74   34   72 1   
@<TRIPOS>SUBSTRUCTURE
     1 0VK         1 TEMP              0 ****  ****    0 ROOT
