@<TRIPOS>MOLECULE
0VK
   72    74     1     0     0
SMALL
bcc


@<TRIPOS>ATOM
      1 C1          0.8410    1.4220    0.6520 ca        1 0VK     -0.105000
      2 C2          1.7740    0.4420    0.3070 ca        1 0VK     -0.085300
      3 C3          1.9700   -0.6600    1.1600 ca        1 0VK     -0.090300
      4 C4          1.2320   -0.7620    2.3400 ca        1 0VK     -0.098000
      5 C5          0.2930    0.2200    2.6750 ca        1 0VK     -0.095300
      6 C6          0.1010    1.3130    1.8280 ca        1 0VK     -0.103000
      7 C48         2.9750   -1.7000    0.7870 c3        1 0VK      0.176700
      8 O49         2.9780   -2.7340    1.7600 oh        1 0VK     -0.597800
      9 C52         2.5710    0.5410   -0.9520 c3        1 0VK      0.175700
     10 O53         2.2270    1.7320   -1.6440 oh        1 0VK     -0.595800
     11 C10        -0.5020    0.0490    3.9270 c3        1 0VK      0.175700
     12 O1         -0.8980    1.3510    4.3800 os        1 0VK     -0.327900
     13 C14        -1.6210    1.3770    5.5580 ca        1 0VK      0.121100
     14 C17        -1.9430    2.6680    6.0150 ca        1 0VK     -0.142000
     15 C18        -2.6790    2.8210    7.1900 cp        1 0VK     -0.009000
     16 C19        -3.0970    1.6880    7.9160 ca        1 0VK     -0.096300
     17 C20        -2.7660    0.4160    7.4440 ca        1 0VK     -0.099000
     18 C21        -2.0320    0.2460    6.2710 ca        1 0VK     -0.199000
     19 C8         -3.8720    1.8380    9.1700 c3        1 0VK     -0.049800
     20 C7         -3.0260    4.1760    7.6410 cp        1 0VK     -0.039000
     21 C9         -4.2210    4.7540    7.1910 ca        1 0VK     -0.116000
     22 C11        -2.1890    4.9070    8.4990 ca        1 0VK     -0.057300
     23 C12        -2.5590    6.2020    8.8810 ca        1 0VK     -0.123000
     24 C13        -4.5780    6.0420    7.5770 ca        1 0VK     -0.129000
     25 C16        -3.7420    6.7830    8.4210 ca        1 0VK     -0.104300
     26 C15        -0.9190    4.3320    9.0250 c3        1 0VK     -0.041100
     27 C22         0.2630    4.6760    8.1370 c3        1 0VK     -0.076400
     28 C24        -4.1300    8.1880    8.8280 c3        1 0VK      0.198100
     29 C25        -4.3980    9.0200    7.5600 c3        1 0VK     -0.083400
     30 C26        -5.3700    8.1670    9.7340 c3        1 0VK     -0.083400
     31 O2         -3.0950    8.8020    9.5960 oh        1 0VK     -0.591800
     32 C28        -5.1410    7.4180   11.0210 c3        1 0VK     -0.092600
     33 C29        -4.5930   10.4860    7.8450 c3        1 0VK     -0.092600
     34 C23         1.5460    4.1160    8.6930 c3        1 0VK     -0.093100
     35 H1          0.6910    2.2870   -0.0160 ha        1 0VK      0.156000
     36 H2          1.3960   -1.6250    3.0060 ha        1 0VK      0.153000
     37 H3         -0.6300    2.0910    2.0980 ha        1 0VK      0.150000
     38 H4          3.9990   -1.2340    0.7270 h1        1 0VK      0.030200
     39 H5          2.7180   -2.1340   -0.2210 h1        1 0VK      0.030200
     40 H6          3.6550   -3.3620    1.4820 ho        1 0VK      0.403000
     41 H7          2.3570   -0.3500   -1.6080 h1        1 0VK      0.029700
     42 H8          3.6700    0.5500   -0.7070 h1        1 0VK      0.029700
     43 H9          2.7740    1.7490   -2.4380 ho        1 0VK      0.403000
     44 H10        -1.4230   -0.5620    3.7160 h1        1 0VK      0.049200
     45 H11         0.1080   -0.4540    4.7250 h1        1 0VK      0.049200
     46 H12        -1.6080    3.5430    5.4400 ha        1 0VK      0.153000
     47 H13        -3.0900   -0.4730    8.0070 ha        1 0VK      0.133000
     48 H14        -1.7890   -0.7680    5.9250 ha        1 0VK      0.137000
     49 H15        -4.2750    0.8570    9.5190 hc        1 0VK      0.045033
     50 H16        -3.2170    2.2600    9.9750 hc        1 0VK      0.045033
     51 H17        -4.7280    2.5420    9.0160 hc        1 0VK      0.045033
     52 H18        -4.8830    4.1790    6.5240 ha        1 0VK      0.138000
     53 H19        -1.9070    6.7640    9.5700 ha        1 0VK      0.144000
     54 H20        -5.5240    6.4730    7.2170 ha        1 0VK      0.132000
     55 H21        -1.0140    3.2140    9.1020 hc        1 0VK      0.052200
     56 H22        -0.7300    4.7220   10.0610 hc        1 0VK      0.052200
     57 H23         0.0830    4.2630    7.1080 hc        1 0VK      0.044200
     58 H24         0.3450    5.7910    8.0410 hc        1 0VK      0.044200
     59 H25        -3.5290    8.8890    6.8630 hc        1 0VK      0.046950
     60 H26        -5.3060    8.6110    7.0470 hc        1 0VK      0.046950
     61 H27        -6.2100    7.7010    9.1580 hc        1 0VK      0.046950
     62 H28        -5.6490    9.2280    9.9670 hc        1 0VK      0.046950
     63 H29        -2.3450    8.9310    9.0020 ho        1 0VK      0.400000
     64 H30        -4.8720    6.3540   10.8150 hc        1 0VK      0.039367
     65 H31        -4.3040    7.8860   11.5950 hc        1 0VK      0.039367
     66 H32        -6.0640    7.4410   11.6470 hc        1 0VK      0.039367
     67 H33        -5.5720   10.6690    8.3510 hc        1 0VK      0.039367
     68 H34        -3.7810   10.8700    8.5100 hc        1 0VK      0.039367
     69 H35        -4.5790   11.0660    6.8910 hc        1 0VK      0.039367
     70 H36         1.4880    3.0040    8.7750 hc        1 0VK      0.033700
     71 H37         2.4020    4.3760    8.0240 hc        1 0VK      0.033700
     72 H38         1.7530    4.5330    9.7090 hc        1 0VK      0.033700
@<TRIPOS>BOND
     1    1    2 ar  
     2    1    6 ar  
     3    1   35 1   
     4    2    3 ar  
     5    2    9 1   
     6    3    4 ar  
     7    3    7 1   
     8    4    5 ar  
     9    4   36 1   
    10    5    6 ar  
    11    5   11 1   
    12    6   37 1   
    13    7    8 1   
    14    7   38 1   
    15    7   39 1   
    16    8   40 1   
    17    9   10 1   
    18    9   41 1   
    19    9   42 1   
    20   10   43 1   
    21   11   12 1   
    22   11   44 1   
    23   11   45 1   
    24   12   13 1   
    25   13   14 ar  
    26   13   18 ar  
    27   14   15 ar  
    28   14   46 1   
    29   15   16 ar  
    30   15   20 1   
    31   16   17 ar  
    32   16   19 1   
    33   17   18 ar  
    34   17   47 1   
    35   18   48 1   
    36   19   49 1   
    37   19   50 1   
    38   19   51 1   
    39   20   21 ar  
    40   20   22 ar  
    41   21   24 ar  
    42   21   52 1   
    43   22   23 ar  
    44   22   26 1   
    45   23   25 ar  
    46   23   53 1   
    47   24   25 ar  
    48   24   54 1   
    49   25   28 1   
    50   26   27 1   
    51   26   55 1   
    52   26   56 1   
    53   27   34 1   
    54   27   57 1   
    55   27   58 1   
    56   28   29 1   
    57   28   30 1   
    58   28   31 1   
    59   29   33 1   
    60   29   59 1   
    61   29   60 1   
    62   30   32 1   
    63   30   61 1   
    64   30   62 1   
    65   31   63 1   
    66   32   64 1   
    67   32   65 1   
    68   32   66 1   
    69   33   67 1   
    70   33   68 1   
    71   33   69 1   
    72   34   70 1   
    73   34   71 1   
    74   34   72 1   
@<TRIPOS>SUBSTRUCTURE
     1 0VK         1 TEMP              0 ****  ****    0 ROOT
