@<TRIPOS>MOLECULE
0VK
   72    64     1     0     0
SMALL
bcc


@<TRIPOS>ATOM
      1 C1         -1.7190   -7.1600    0.1360 c1        1 0VK     -0.118250
      2 C2         -1.4090   -7.2950    1.4960 c1        1 0VK     -0.092000
      3 C3         -0.5060   -6.4080    2.0930 c1        1 0VK     -0.092000
      4 C4          0.0850   -5.3870    1.3280 c1        1 0VK     -0.092000
      5 C5         -0.2240   -5.2570   -0.0130 c1        1 0VK     -0.090000
      6 C6         -1.1280   -6.1440   -0.6170 c1        1 0VK     -0.118250
      7 C48        -0.1600   -6.5380    3.6300 c3        1 0VK      0.011500
      8 O49        -0.9750   -5.7380    4.3440 oh        1 0VK     -0.330000
      9 C52        -2.0660   -8.4120    2.3360 c3        1 0VK      0.011500
     10 O53        -3.3130   -8.7780    1.7520 oh        1 0VK     -0.330000
     11 C10         0.5230   -4.2170   -0.8840 c3        1 0VK      0.018000
     12 O1         -0.3860   -3.2810   -1.3780 os        1 0VK     -0.213000
     13 C14         0.2560   -2.0880   -1.9880 c1        1 0VK      0.074000
     14 C17        -0.0380   -0.8370   -1.5180 c1        1 0VK     -0.143000
     15 C18         0.5450    0.2740   -2.1010 c1        1 0VK     -0.008000
     16 C19         1.4200    0.1200   -3.1540 c2        1 0VK     -0.086000
     17 C20         1.7140   -1.1310   -3.6240 c1        1 0VK     -0.099000
     18 C21         1.1340   -2.2400   -3.0440 c1        1 0VK     -0.198000
     19 C8          2.0460    1.3520   -3.8120 c3        1 0VK     -0.176000
     20 C7          0.1950    1.7180   -1.5720 c1        1 0VK     -0.039000
     21 C9         -0.7490    2.5040   -2.2490 c1        1 0VK     -0.118250
     22 C11         0.7640    2.1760   -0.3890 c1        1 0VK     -0.050000
     23 C12         0.3900    3.4310    0.1310 c1        1 0VK     -0.123000
     24 C13        -1.1210    3.7520   -1.7330 c1        1 0VK     -0.118250
     25 C16        -0.5500    4.2150   -0.5410 c1        1 0VK     -0.104000
     26 C15         1.6790    1.2160    0.4600 c3        1 0VK     -0.129000
     27 C22         2.9860    1.9350    0.8190 c3        1 0VK     -0.154000
     28 C24        -0.8740    5.5730   -0.0390 c2        1 0VK      0.121000
     29 C25        -0.4220    6.6670   -1.1220 c3        1 0VK     -0.163500
     30 C26        -2.3710    5.6820    0.2060 c3        1 0VK     -0.163500
     31 O2         -0.1680    5.8060    1.1930 oh        1 0VK     -0.319000
     32 C28        -2.6260    5.9900    1.7170 c3        1 0VK     -0.210000
     33 C29        -0.3650    8.0440   -0.4650 c3        1 0VK     -0.210000
     34 C23         3.5340    1.3770    2.1250 c3        1 0VK     -0.211000
     35 H1         -2.3280   -7.7560   -0.2730 ha        1 0VK      0.140750
     36 H2          0.6930   -4.7900    1.7320 ha        1 0VK      0.149000
     37 H3         -1.3530   -6.0430   -1.6130 ha        1 0VK      0.140750
     38 H4          0.7100   -6.2840    3.7670 h1        1 0VK      0.088500
     39 H5         -0.2820   -7.5000    3.9290 h1        1 0VK      0.088500
     40 H6         -0.8560   -5.8940    5.2170 ho        1 0VK      0.204500
     41 H7         -2.2110   -8.0980    3.2210 h1        1 0VK      0.088500
     42 H8         -1.4590   -9.2150    2.3610 h1        1 0VK      0.088500
     43 H9         -3.5660   -9.5470    2.0690 ho        1 0VK      0.204500
     44 H10         0.9730   -4.6890   -1.6540 h1        1 0VK      0.088500
     45 H11         1.1830   -3.7690   -0.3550 h1        1 0VK      0.088500
     46 H12        -0.6660   -0.7270   -0.7600 ha        1 0VK      0.153000
     47 H13         2.3380   -1.2400   -4.3740 ha        1 0VK      0.133000
     48 H14         1.3470   -3.1470   -3.3850 ha        1 0VK      0.137000
     49 H15         1.9370    2.1510   -3.2020 hc        1 0VK      0.085000
     50 H16         1.6150    1.5230   -4.6300 hc        1 0VK      0.085000
     51 H17         3.0650    1.1790   -3.9840 hc        1 0VK      0.085000
     52 H18        -1.1170    2.2050   -3.0180 ha        1 0VK      0.140750
     53 H19         0.7810    3.7470    0.9450 ha        1 0VK      0.146000
     54 H20        -1.7750    4.2950   -2.2020 ha        1 0VK      0.140750
     55 H21         1.2200    0.9640    1.2600 hc        1 0VK      0.093000
     56 H22         1.8940    0.3710   -0.0950 hc        1 0VK      0.093000
     57 H23         2.8010    2.9680    0.9280 hc        1 0VK      0.082500
     58 H24         3.6830    1.7860    0.0600 hc        1 0VK      0.082500
     59 H25         0.4800    6.4330   -1.4720 hc        1 0VK      0.088500
     60 H26        -1.0620    6.6820   -1.8580 hc        1 0VK      0.088500
     61 H27        -2.7420    6.4090   -0.3480 hc        1 0VK      0.088500
     62 H28        -2.8160    4.8180   -0.0360 hc        1 0VK      0.088500
     63 H29        -0.5060    5.3160    1.8170 ho        1 0VK      0.201000
     64 H30        -2.4330    5.1980    2.2450 hc        1 0VK      0.077167
     65 H31        -2.0250    6.7470    2.0130 hc        1 0VK      0.077167
     66 H32        -3.5810    6.2530    1.8490 hc        1 0VK      0.077167
     67 H33         0.2850    8.5800   -0.9100 hc        1 0VK      0.077167
     68 H34        -0.1140    7.9450    0.4870 hc        1 0VK      0.077167
     69 H35        -1.1800    8.4450   -0.5230 hc        1 0VK      0.077167
     70 H36         3.6630    0.3600    2.0350 hc        1 0VK      0.072667
     71 H37         4.4440    1.8230    2.3330 hc        1 0VK      0.072667
     72 H38         2.8590    1.5790    2.9040 hc        1 0VK      0.072667
@<TRIPOS>BOND
     1    1    6 1   
     2    1   35 1   
     3    2    3 1   
     4    2    9 1   
     5    3    7 1   
     6    4    5 1   
     7    4   36 1   
     8    5   11 1   
     9    6   37 1   
    10    7    8 1   
    11    7   38 1   
    12    7   39 1   
    13    8   40 1   
    14    9   10 1   
    15    9   41 1   
    16    9   42 1   
    17   10   43 1   
    18   11   12 1   
    19   11   44 1   
    20   11   45 1   
    21   12   13 1   
    22   13   18 1   
    23   14   15 1   
    24   14   46 1   
    25   15   16 1   
    26   16   17 1   
    27   16   19 1   
    28   17   47 1   
    29   18   48 1   
    30   19   49 1   
    31   19   50 1   
    32   19   51 1   
    33   20   22 1   
    34   21   24 1   
    35   21   52 1   
    36   22   26 1   
    37   23   25 1   
    38   23   53 1   
    39   24   54 1   
    40   26   27 1   
    41   26   55 1   
    42   26   56 1   
    43   27   34 1   
    44   27   57 1   
    45   27   58 1   
    46   28   29 1   
    47   28   30 1   
    48   28   31 1   
    49   29   33 1   
    50   29   59 1   
    51   29   60 1   
    52   30   32 1   
    53   30   61 1   
    54   30   62 1   
    55   31   63 1   
    56   32   64 1   
    57   32   65 1   
    58   32   66 1   
    59   33   67 1   
    60   33   68 1   
    61   33   69 1   
    62   34   70 1   
    63   34   71 1   
    64   34   72 1   
@<TRIPOS>SUBSTRUCTURE
     1 0VK         1 TEMP              0 ****  ****    0 ROOT
