@<TRIPOS>MOLECULE
0VK
   72    74     1     0     0
SMALL
bcc


@<TRIPOS>ATOM
      1 C1          0.8460    1.4340    0.6460 ca        1 0VK     -0.105000
      2 C2          1.7800    0.4530    0.3060 ca        1 0VK     -0.085300
      3 C3          1.9670   -0.6520    1.1570 ca        1 0VK     -0.090300
      4 C4          1.2180   -0.7570    2.3310 ca        1 0VK     -0.098000
      5 C5          0.2790    0.2260    2.6610 ca        1 0VK     -0.095300
      6 C6          0.0970    1.3230    1.8160 ca        1 0VK     -0.103000
      7 C48         2.9720   -1.6940    0.7900 c3        1 0VK      0.176700
      8 O49         2.9650   -2.7310    1.7610 oh        1 0VK     -0.597800
      9 C52         2.5890    0.5530   -0.9450 c3        1 0VK      0.175700
     10 O53         2.2520    1.7470   -1.6370 oh        1 0VK     -0.595800
     11 C10        -0.5280    0.0530    3.9050 c3        1 0VK      0.175700
     12 O1         -0.9190    1.3560    4.3620 os        1 0VK     -0.327900
     13 C14        -1.6480    1.3800    5.5370 ca        1 0VK      0.121100
     14 C17        -1.9580    2.6710    6.0020 ca        1 0VK     -0.142000
     15 C18        -2.6980    2.8230    7.1750 cp        1 0VK     -0.009000
     16 C19        -3.1310    1.6890    7.8910 ca        1 0VK     -0.096300
     17 C20        -2.8100    0.4170    7.4100 ca        1 0VK     -0.099000
     18 C21        -2.0730    0.2490    6.2400 ca        1 0VK     -0.199000
     19 C8         -3.9090    1.8380    9.1420 c3        1 0VK     -0.049800
     20 C7         -3.0340    4.1790    7.6340 cp        1 0VK     -0.039000
     21 C9         -4.2210    4.7720    7.1840 ca        1 0VK     -0.116000
     22 C11        -2.1920    4.8950    8.5010 ca        1 0VK     -0.057300
     23 C12        -2.5500    6.1910    8.8910 ca        1 0VK     -0.123000
     24 C13        -4.5660    6.0600    7.5780 ca        1 0VK     -0.129000
     25 C16        -3.7260    6.7870    8.4310 ca        1 0VK     -0.104300
     26 C15        -0.9300    4.3030    9.0270 c3        1 0VK     -0.041100
     27 C22         0.2590    4.6420    8.1450 c3        1 0VK     -0.076400
     28 C24        -4.1010    8.1920    8.8460 c3        1 0VK      0.198100
     29 C25        -4.3590    9.0370    7.5840 c3        1 0VK     -0.083400
     30 C26        -5.3440    8.1770    9.7490 c3        1 0VK     -0.083400
     31 O2         -3.0630    8.7910    9.6220 oh        1 0VK     -0.591800
     32 C28        -5.1250    7.4180   11.0310 c3        1 0VK     -0.092600
     33 C29        -4.5390   10.5030    7.8790 c3        1 0VK     -0.092600
     34 C23         1.5340    4.0650    8.7010 c3        1 0VK     -0.093100
     35 H1          0.7050    2.3000   -0.0200 ha        1 0VK      0.156000
     36 H2          1.3740   -1.6220    2.9950 ha        1 0VK      0.153000
     37 H3         -0.6350    2.1010    2.0820 ha        1 0VK      0.150000
     38 H4          3.9970   -1.2300    0.7400 h1        1 0VK      0.030200
     39 H5          2.7220   -2.1250   -0.2210 h1        1 0VK      0.030200
     40 H6          3.6430   -3.3590    1.4870 ho        1 0VK      0.403000
     41 H7          2.3800   -0.3360   -1.6050 h1        1 0VK      0.029700
     42 H8          3.6860    0.5610   -0.6900 h1        1 0VK      0.029700
     43 H9          2.8060    1.7640   -2.4260 ho        1 0VK      0.403000
     44 H10         0.0720   -0.4570    4.7050 h1        1 0VK      0.049200
     45 H11        -1.4510   -0.5500    3.6830 h1        1 0VK      0.049200
     46 H12        -1.6120    3.5480    5.4350 ha        1 0VK      0.153000
     47 H13        -3.1470   -0.4720    7.9650 ha        1 0VK      0.133000
     48 H14        -1.8390   -0.7650    5.8870 ha        1 0VK      0.137000
     49 H15        -4.3260    0.8590    9.4810 hc        1 0VK      0.045033
     50 H16        -4.7570    2.5530    8.9900 hc        1 0VK      0.045033
     51 H17        -3.2550    2.2460    9.9530 hc        1 0VK      0.045033
     52 H18        -4.8860    4.2080    6.5110 ha        1 0VK      0.138000
     53 H19        -1.8950    6.7420    9.5850 ha        1 0VK      0.144000
     54 H20        -5.5070    6.5040    7.2180 ha        1 0VK      0.132000
     55 H21        -1.0360    3.1860    9.0950 hc        1 0VK      0.052200
     56 H22        -0.7400    4.6840   10.0660 hc        1 0VK      0.052200
     57 H23         0.3520    5.7560    8.0570 hc        1 0VK      0.044200
     58 H24         0.0780    4.2390    7.1120 hc        1 0VK      0.044200
     59 H25        -3.4890    8.9010    6.8880 hc        1 0VK      0.046950
     60 H26        -5.2690    8.6400    7.0650 hc        1 0VK      0.046950
     61 H27        -5.6140    9.2390    9.9880 hc        1 0VK      0.046950
     62 H28        -6.1870    7.7230    9.1670 hc        1 0VK      0.046950
     63 H29        -2.3110    8.9160    9.0310 ho        1 0VK      0.400000
     64 H30        -4.2860    7.8730   11.6110 hc        1 0VK      0.039367
     65 H31        -6.0510    7.4440   11.6550 hc        1 0VK      0.039367
     66 H32        -4.8660    6.3520   10.8190 hc        1 0VK      0.039367
     67 H33        -3.7240   10.8740    8.5480 hc        1 0VK      0.039367
     68 H34        -5.5170   10.6910    8.3840 hc        1 0VK      0.039367
     69 H35        -4.5170   11.0890    6.9280 hc        1 0VK      0.039367
     70 H36         1.4650    2.9530    8.7760 hc        1 0VK      0.033700
     71 H37         2.3950    4.3210    8.0380 hc        1 0VK      0.033700
     72 H38         1.7410    4.4720    9.7210 hc        1 0VK      0.033700
@<TRIPOS>BOND
     1    1    2 ar  
     2    1    6 ar  
     3    1   35 1   
     4    2    3 ar  
     5    2    9 1   
     6    3    4 ar  
     7    3    7 1   
     8    4    5 ar  
     9    4   36 1   
    10    5    6 ar  
    11    5   11 1   
    12    6   37 1   
    13    7    8 1   
    14    7   38 1   
    15    7   39 1   
    16    8   40 1   
    17    9   10 1   
    18    9   41 1   
    19    9   42 1   
    20   10   43 1   
    21   11   12 1   
    22   11   44 1   
    23   11   45 1   
    24   12   13 1   
    25   13   14 ar  
    26   13   18 ar  
    27   14   15 ar  
    28   14   46 1   
    29   15   16 ar  
    30   15   20 1   
    31   16   17 ar  
    32   16   19 1   
    33   17   18 ar  
    34   17   47 1   
    35   18   48 1   
    36   19   49 1   
    37   19   50 1   
    38   19   51 1   
    39   20   21 ar  
    40   20   22 ar  
    41   21   24 ar  
    42   21   52 1   
    43   22   23 ar  
    44   22   26 1   
    45   23   25 ar  
    46   23   53 1   
    47   24   25 ar  
    48   24   54 1   
    49   25   28 1   
    50   26   27 1   
    51   26   55 1   
    52   26   56 1   
    53   27   34 1   
    54   27   57 1   
    55   27   58 1   
    56   28   29 1   
    57   28   30 1   
    58   28   31 1   
    59   29   33 1   
    60   29   59 1   
    61   29   60 1   
    62   30   32 1   
    63   30   61 1   
    64   30   62 1   
    65   31   63 1   
    66   32   64 1   
    67   32   65 1   
    68   32   66 1   
    69   33   67 1   
    70   33   68 1   
    71   33   69 1   
    72   34   70 1   
    73   34   71 1   
    74   34   72 1   
@<TRIPOS>SUBSTRUCTURE
     1 0VK         1 TEMP              0 ****  ****    0 ROOT
