@<TRIPOS>MOLECULE
0VM
   42    45     1     0     0
SMALL
bcc


@<TRIPOS>ATOM
      1 C8          0.0780   -0.9110    0.6130 ca        1 0VM      0.060000
      2 C9          0.9060   -1.2020    1.6930 ca        1 0VM     -0.100000
      3 C10         1.7260   -0.1640    2.1600 ca        1 0VM     -0.046200
      4 C11         1.7120    1.1550    1.5450 ca        1 0VM      0.070400
      5 C13         0.8580    1.4020    0.4510 ca        1 0VM     -0.048000
      6 C14         0.0570    0.3710    0.0030 ca        1 0VM     -0.105000
      7 N3          2.6690   -0.1160    3.1890 na        1 0VM     -0.232300
      8 C12         3.1600    1.2120    3.1810 cc        1 0VM      0.394700
      9 N4          2.6180    1.9940    2.2020 nd        1 0VM     -0.487100
     10 C15         4.4890   -0.5140    7.7110 ca        1 0VM      0.197100
     11 C16         5.3600   -0.8050    6.6500 ca        1 0VM     -0.124000
     12 C17         5.2530   -0.0920    5.4620 ca        1 0VM     -0.077500
     13 C18         4.2800    0.9180    5.3460 ca        1 0VM     -0.108400
     14 C19         3.4110    1.2150    6.4130 ca        1 0VM     -0.077500
     15 C20         3.5140    0.4970    7.5960 ca        1 0VM     -0.124000
     16 N1          4.1930    1.6960    4.1070 n4        1 0VM     -0.536400
     17 C7         -0.7760   -1.9270    0.0990 cg        1 0VM      0.198800
     18 N2         -1.4750   -2.7560   -0.3220 n1        1 0VM     -0.292800
     19 C1          5.1560   -5.1330    9.5130 ca        1 0VM     -0.250300
     20 C2          5.4730   -4.2480   10.5440 ca        1 0VM     -0.015000
     21 C3          5.3160   -2.8740   10.3370 ca        1 0VM     -0.279600
     22 C4          4.8270   -2.4570    9.0750 ca        1 0VM      0.639600
     23 N5          4.5200   -3.2970    8.0570 nb        1 0VM     -0.725000
     24 C6          4.6880   -4.6120    8.2930 ca        1 0VM      0.454200
     25 F1          6.1490   -2.4190   12.5750 f         1 0VM     -0.223967
     26 F3          6.5920   -0.9370   11.0530 f         1 0VM     -0.223967
     27 F2          4.5750   -1.1150   11.8420 f         1 0VM     -0.223967
     28 H1          0.9170   -2.1990    2.1570 ha        1 0VM      0.169000
     29 H2          0.8390    2.3950   -0.0260 ha        1 0VM      0.177000
     30 H3         -0.6220    0.5380   -0.8510 ha        1 0VM      0.173000
     31 H4          2.8490   -0.8110    3.8690 hn        1 0VM      0.334700
     32 H6          6.1290   -1.5890    6.7530 ha        1 0VM      0.189500
     33 H7          5.9460   -0.3230    4.6350 ha        1 0VM      0.165000
     34 H8          2.6460    2.0060    6.3290 ha        1 0VM      0.165000
     35 H9          2.8510    0.7150    8.4500 ha        1 0VM      0.189500
     36 H10         5.0990    1.6630    3.6140 hn        1 0VM      0.480300
     37 H11         5.2680   -6.2190    9.6470 ha        1 0VM      0.174000
     38 H12         5.8470   -4.6180   11.5150 ha        1 0VM      0.181000
     39 H13         4.4260   -5.2800    7.4490 h4        1 0VM      0.044100
     40 H121        3.9750    2.6800    4.3390 hn        1 0VM      0.480300
     41 O1          4.5910   -1.0850    8.9650 os        1 0VM     -0.346400
     42 C5          5.6480   -1.8630   11.4250 c3        1 0VM      0.707200
@<TRIPOS>BOND
     1    1    2 ar  
     2    1    6 ar  
     3    1   17 1   
     4    2    3 ar  
     5    2   28 1   
     6    3    4 ar  
     7    3    7 1   
     8    4    5 ar  
     9    4    9 1   
    10    5    6 ar  
    11    5   29 1   
    12    6   30 1   
    13    7    8 1   
    14    7   31 1   
    15    8    9 2   
    16    8   16 1   
    17   10   11 ar  
    18   10   15 ar  
    19   10   41 1   
    20   11   12 ar  
    21   11   32 1   
    22   12   13 ar  
    23   12   33 1   
    24   13   14 ar  
    25   13   16 1   
    26   14   15 ar  
    27   14   34 1   
    28   15   35 1   
    29   16   36 1   
    30   16   40 1   
    31   17   18 3   
    32   19   20 ar  
    33   19   24 ar  
    34   19   37 1   
    35   20   21 ar  
    36   20   38 1   
    37   21   22 ar  
    38   21   42 1   
    39   22   23 ar  
    40   22   41 1   
    41   23   24 ar  
    42   24   39 1   
    43   25   42 1   
    44   26   42 1   
    45   27   42 1   
@<TRIPOS>SUBSTRUCTURE
     1 0VM         1 TEMP              0 ****  ****    0 ROOT
