@<TRIPOS>MOLECULE
0VM
   41    31     1     0     0
SMALL
bcc


@<TRIPOS>ATOM
      1 C8         -5.0040    0.4620   -5.2920 c1        1 0VM     -0.014000
      2 C9         -3.6320    0.4700   -5.0950 c2        1 0VM     -0.085000
      3 C10        -3.1080    0.4350   -3.7890 c1        1 0VM     -0.042000
      4 C11        -3.9510    0.3940   -2.7170 c1        1 0VM     -0.026000
      5 C13        -5.3450    0.3860   -2.9180 c1        1 0VM     -0.089000
      6 C14        -5.8600    0.4200   -4.2040 c1        1 0VM     -0.108000
      7 N3         -1.8350    0.4110   -3.3200 n1        1 0VM     -0.214000
      8 C12        -1.8870    0.3550   -1.9630 c1        1 0VM      0.134000
      9 N4         -3.1950    0.3450   -1.5920 n1        1 0VM     -0.214000
     10 C15         1.7850   -0.9320    1.3380 c1        1 0VM      0.052000
     11 C16         2.0630   -0.2080    0.1890 c1        1 0VM     -0.116750
     12 C17         1.0310    0.3730   -0.5320 c1        1 0VM     -0.116750
     13 C18        -0.2800    0.2310   -0.1030 c1        1 0VM      0.011000
     14 C19        -0.5580   -0.4930    1.0460 c1        1 0VM     -0.144000
     15 C20         0.4740   -1.0740    1.7660 c1        1 0VM     -0.099000
     16 N1         -1.3250    0.9120   -0.7830 n2        1 0VM     -0.209000
     17 C7         -5.6570    0.5770   -6.6530 c1        1 0VM     -0.093000
     18 N2         -6.1490    0.6640   -7.6770 n1        1 0VM     -0.044000
     19 C1          4.0090    1.1460    5.0550 c1        1 0VM     -0.116750
     20 C2          4.7300    0.0080    4.8400 c1        1 0VM     -0.018000
     21 C3          4.3440   -0.8700    3.8680 c1        1 0VM     -0.236000
     22 C4          3.2190   -0.6040    3.1020 c1        1 0VM      0.173000
     23 N5          2.5000    0.5320    3.3190 n1        1 0VM     -0.189000
     24 C6          2.8850    1.4100    4.2880 c1        1 0VM     -0.116750
     25 O1          2.8340   -1.4970    2.0850 os        1 0VM     -0.142000
     26 C5          5.1360   -2.1380    3.6360 c3        1 0VM      0.488000
     27 F1          4.9970   -2.5240    2.3610 f         1 0VM     -0.161000
     28 F3          4.6810   -3.1030    4.4460 f         1 0VM     -0.161000
     29 F2          6.4290   -1.9110    3.8960 f         1 0VM     -0.161000
     30 H1         -3.0300    0.4990   -5.8610 ha        1 0VM      0.148000
     31 H2         -5.9470    0.3560   -2.1520 ha        1 0VM      0.156000
     32 H3         -6.8260    0.4150   -4.3430 ha        1 0VM      0.146000
     33 H4         -1.0760    0.4290   -3.8280 DU        1 0VM      0.266000
     34 H6          2.9860   -0.1080   -0.1130 ha        1 0VM      0.160250
     35 H7          1.2280    0.8830   -1.3410 ha        1 0VM      0.160250
     36 H8         -1.4800   -0.5930    1.3480 ha        1 0VM      0.146000
     37 H9          0.2780   -1.5840    2.5750 ha        1 0VM      0.157000
     38 H10        -1.6420    1.7030   -0.4570 hn        1 0VM      0.234000
     39 H11         4.2850    1.7750    5.7500 ha        1 0VM      0.160250
     40 H12         5.5220   -0.1780    5.3790 ha        1 0VM      0.164000
     41 H13         2.3690    2.2240    4.4420 ha        1 0VM      0.160250
@<TRIPOS>BOND
     1    1    2 1   
     2    1    6 1   
     3    2    3 1   
     4    2   30 1   
     5    4    5 1   
     6    5   31 1   
     7    6   32 1   
     8    7    8 1   
     9    8    9 1   
    10   10   15 1   
    11   10   25 1   
    12   11   12 1   
    13   11   34 1   
    14   12   35 1   
    15   13   14 1   
    16   13   16 1   
    17   14   36 1   
    18   15   37 1   
    19   16   38 1   
    20   17   18 1   
    21   19   24 1   
    22   19   39 1   
    23   20   21 1   
    24   20   40 1   
    25   21   26 1   
    26   22   23 1   
    27   22   25 1   
    28   24   41 1   
    29   26   27 1   
    30   26   28 1   
    31   26   29 1   
@<TRIPOS>SUBSTRUCTURE
     1 0VM         1 TEMP              0 ****  ****    0 ROOT
