@<TRIPOS>MOLECULE
0VM
   41    44     1     0     0
SMALL
bcc


@<TRIPOS>ATOM
      1 C8         -7.2130   -0.7560    0.0960 ca        1 0VM     -0.014000
      2 C9         -6.7080    0.5480    0.1310 ca        1 0VM     -0.086000
      3 C10        -5.3250    0.6970    0.0480 ca        1 0VM     -0.089200
      4 C11        -4.4400   -0.4490   -0.0750 ca        1 0VM      0.107400
      5 C13        -4.9860   -1.7380   -0.1150 ca        1 0VM     -0.086000
      6 C14        -6.3640   -1.8760   -0.0270 ca        1 0VM     -0.108000
      7 N3         -4.5080    1.8360    0.0070 na        1 0VM     -0.290300
      8 C12        -3.1610    1.3440   -0.0550 cc        1 0VM      0.603700
      9 N4         -3.1030   -0.0160   -0.1470 nd        1 0VM     -0.590100
     10 C15         1.9160    0.9420   -0.0400 ca        1 0VM      0.087100
     11 C16         1.5040    1.9240   -0.9480 ca        1 0VM     -0.102000
     12 C17         0.1730    2.3240   -0.9530 ca        1 0VM     -0.130000
     13 C18        -0.7530    1.7480   -0.0530 ca        1 0VM      0.120600
     14 C19        -0.3150    0.7510    0.8440 ca        1 0VM     -0.130000
     15 C20         1.0160    0.3480    0.8490 ca        1 0VM     -0.102000
     16 N1         -2.0790    2.2530    0.0080 nh        1 0VM     -0.650600
     17 C7         -8.6180   -0.9580    0.1840 cg        1 0VM      0.234800
     18 N2         -9.7670   -1.1260    0.2570 n1        1 0VM     -0.366800
     19 C1          4.7650   -3.0460   -0.9640 ca        1 0VM     -0.288300
     20 C2          5.6410   -2.0390   -0.5610 ca        1 0VM     -0.019000
     21 C3          5.1310   -0.7810   -0.2250 ca        1 0VM     -0.312600
     22 C4          3.7250   -0.5910   -0.3120 ca        1 0VM      0.674600
     23 N5          2.8590   -1.5630   -0.7010 nb        1 0VM     -0.710000
     24 C6          3.3890   -2.7570   -1.0160 ca        1 0VM      0.459200
     25 F1          7.3840    0.0090    0.2370 f         1 0VM     -0.233300
     26 F3          6.0040    1.4620   -0.5800 f         1 0VM     -0.233300
     27 F2          5.8080    0.8130    1.4840 f         1 0VM     -0.233300
     28 H1         -7.3780    1.4140    0.2200 ha        1 0VM      0.149000
     29 H2         -4.3330   -2.6170   -0.2150 ha        1 0VM      0.157000
     30 H3         -6.8100   -2.8820   -0.0530 ha        1 0VM      0.147000
     31 H4         -4.7700    2.7270    0.3400 hn        1 0VM      0.306700
     32 H6          2.2300    2.3750   -1.6410 ha        1 0VM      0.154500
     33 H7         -0.1460    3.0990   -1.6670 ha        1 0VM      0.147500
     34 H8         -1.0210    0.2810    1.5460 ha        1 0VM      0.147500
     35 H9          1.3570   -0.4340    1.5420 ha        1 0VM      0.154500
     36 H10        -2.2180    3.0510   -0.5860 hn        1 0VM      0.416800
     37 H11         5.1360   -4.0430   -1.2350 ha        1 0VM      0.157000
     38 H12         6.7260   -2.2220   -0.5050 ha        1 0VM      0.162000
     39 H13         2.6570   -3.5250   -1.3300 h4        1 0VM      0.035100
     40 O1          3.2890    0.6770    0.0280 os        1 0VM     -0.357400
     41 C5          6.0490    0.3440    0.2160 c3        1 0VM      0.710200
@<TRIPOS>BOND
     1    1    2 ar  
     2    1    6 ar  
     3    1   17 1   
     4    2    3 ar  
     5    2   28 1   
     6    3    4 ar  
     7    3    7 1   
     8    4    5 ar  
     9    4    9 1   
    10    5    6 ar  
    11    5   29 1   
    12    6   30 1   
    13    7    8 1   
    14    7   31 1   
    15    8    9 2   
    16    8   16 1   
    17   10   11 ar  
    18   10   15 ar  
    19   10   40 1   
    20   11   12 ar  
    21   11   32 1   
    22   12   13 ar  
    23   12   33 1   
    24   13   14 ar  
    25   13   16 1   
    26   14   15 ar  
    27   14   34 1   
    28   15   35 1   
    29   16   36 1   
    30   17   18 3   
    31   19   20 ar  
    32   19   24 ar  
    33   19   37 1   
    34   20   21 ar  
    35   20   38 1   
    36   21   22 ar  
    37   21   41 1   
    38   22   23 ar  
    39   22   40 1   
    40   23   24 ar  
    41   24   39 1   
    42   25   41 1   
    43   26   41 1   
    44   27   41 1   
@<TRIPOS>SUBSTRUCTURE
     1 0VM         1 TEMP              0 ****  ****    0 ROOT
