@<TRIPOS>MOLECULE
0VM
   41    43     1     0     0
SMALL
bcc


@<TRIPOS>ATOM
      1 C8          0.0000    0.0000    0.0000 ca        1 0VM      0.042000
      2 C9          1.3950    0.0000    0.0000 ca        1 0VM     -0.039000
      3 C10         2.0780    0.0000    1.2010 ca        1 0VM     -0.315200
      4 C11         1.3670   -0.0010    2.4160 ca        1 0VM      0.099400
      5 C13        -0.0330   -0.0010    2.4000 ca        1 0VM     -0.049000
      6 C14        -0.7030    0.0000    1.2130 ca        1 0VM     -0.079000
      7 N3          3.4220   -0.0000    1.5410 na        1 0VM      0.213700
      8 C12         3.4920    0.0000    2.9050 cc        1 0VM      0.238300
      9 N4          2.2840   -0.0000    3.4130 nd        1 0VM     -0.559100
     10 C15         4.5180    0.3680    7.7880 c         1 0VM      0.489500
     11 C16         5.5950   -0.2660    7.1830 cc        1 0VM     -0.033200
     12 C17         5.6430   -0.3880    5.8090 cd        1 0VM     -0.267100
     13 C18         4.6130    0.1240    5.0300 cd        1 0VM      0.237900
     14 C19         3.5350    0.7580    5.6350 cd        1 0VM     -0.267100
     15 C20         3.4900    0.8800    7.0100 cc        1 0VM     -0.033200
     16 N1          4.6600   -0.0000    3.6370 nu        1 0VM      0.037800
     17 C7         -0.7160    0.0060   -1.2400 cg        1 0VM      0.228800
     18 N2         -1.3010    0.0100   -2.2140 n1        1 0VM     -0.374800
     19 C1          5.9430   -5.1950    8.8240 ce        1 0VM     -0.139000
     20 C2          6.6840   -4.2840    9.4270 ce        1 0VM     -0.090000
     21 C3          6.5490   -2.9680    9.3420 cf        1 0VM     -0.148900
     22 C4          5.6500   -2.4520    8.6380 ch        1 0VM      0.197500
     23 N5          4.8240   -3.4640    7.9650 n1        1 0VM     -0.867500
     24 C6          5.1580   -4.6290    8.2110 cf        1 0VM      0.442700
     25 F1          8.4330   -1.3120    9.7920 f         1 0VM     -0.191967
     26 F3          8.4520   -2.7740   11.2310 f         1 0VM     -0.191967
     27 F2          6.9890   -1.3880   10.9780 f         1 0VM     -0.191967
     28 H1          2.0560    0.0840   -0.8540 ha        1 0VM      0.110000
     29 H2         -0.5530   -0.2510    3.3160 ha        1 0VM      0.121000
     30 H3         -1.7420    0.3050    1.1910 ha        1 0VM      0.120000
     31 H4          3.8820   -0.3580    0.7280 hn        1 0VM      0.154700
     32 H6          6.5120   -0.6680    7.5960 ha        1 0VM      0.140000
     33 H7          6.5610   -0.7690    5.3770 ha        1 0VM      0.147000
     34 H8          2.5660    1.0390    5.2430 ha        1 0VM      0.147000
     35 H9          2.5690    1.3720    7.3000 ha        1 0VM      0.140000
     36 H10         5.5320    0.4710    3.4990 hn        1 0VM      0.143700
     37 H11         6.0090   -6.2190    9.1690 ha        1 0VM      0.133000
     38 H12         7.3210   -4.7470   10.1700 ha        1 0VM      0.098000
     39 H13         4.7310   -5.2730    7.4520 h4        1 0VM      0.062000
     40 O1          4.4700    0.4830    9.1400 o         1 0VM     -0.497100
     41 C5          7.6030   -2.1750   10.5070 c3        1 0VM      0.592100
@<TRIPOS>BOND
     1    1    2 ar  
     2    1    6 ar  
     3    1   17 1   
     4    2    3 ar  
     5    2   28 1   
     6    3    4 ar  
     7    3    7 1   
     8    4    5 ar  
     9    4    9 1   
    10    5    6 ar  
    11    5   29 1   
    12    6   30 1   
    13    7    8 1   
    14    7   31 1   
    15    8    9 2   
    16    8   16 1   
    17   10   11 1   
    18   10   15 1   
    19   10   40 2   
    20   11   12 2   
    21   11   32 1   
    22   12   13 1   
    23   12   33 1   
    24   13   14 1   
    25   13   16 2   
    26   14   15 2   
    27   14   34 1   
    28   15   35 1   
    29   16   36 1   
    30   17   18 3   
    31   19   20 1   
    32   19   24 2   
    33   19   37 1   
    34   20   21 2   
    35   20   38 1   
    36   21   22 1   
    37   21   41 1   
    38   22   23 3   
    39   23   24 1   
    40   24   39 1   
    41   25   41 1   
    42   26   41 1   
    43   27   41 1   
@<TRIPOS>SUBSTRUCTURE
     1 0VM         1 TEMP              0 ****  ****    0 ROOT
