@<TRIPOS>MOLECULE
0VN
   40    32     1     0     0
SMALL
bcc


@<TRIPOS>ATOM
      1 C4         -6.4510    0.9420   -1.6770 c1        1 0VN     -0.012000
      2 C5         -5.2310    0.9020   -2.3360 c2        1 0VN     -0.087000
      3 C6         -4.0350    0.8020   -1.5980 c1        1 0VN     -0.042000
      4 C8         -4.0780    0.7440   -0.2330 c1        1 0VN     -0.031000
      5 C9         -5.3170    0.7850    0.4340 c1        1 0VN     -0.087000
      6 C10        -6.4950    0.8840   -0.2930 c1        1 0VN     -0.110000
      7 N3         -2.7410    0.6380   -1.9830 n1        1 0VN     -0.209000
      8 C11        -1.9830    0.4790   -0.8590 c1        1 0VN      0.130000
      9 N4         -2.8090    0.5450    0.2190 n1        1 0VN     -0.209000
     10 N1         -1.2350   -0.6220   -0.3330 n2        1 0VN     -0.218000
     11 C7         -7.4550    1.2010   -2.7810 c1        1 0VN     -0.093000
     12 N2         -8.2120    1.3960   -3.6150 n1        1 0VN     -0.044000
     13 C12         2.8490   -0.4240    0.6980 c1        1 0VN     -0.063000
     14 C13         1.8860    0.0160    1.5950 c2        1 0VN     -0.109000
     15 C14         0.5410   -0.0020    1.2360 c1        1 0VN     -0.166000
     16 C15         0.1620   -0.4610   -0.0200 c1        1 0VN      0.009000
     17 C16         1.1280   -0.9010   -0.9180 c1        1 0VN     -0.133000
     18 C17         2.4720   -0.8830   -0.5590 c1        1 0VN     -0.113000
     19 C18         4.3250   -0.4560    1.1140 c2        1 0VN     -0.017000
     20 C1          5.1310    0.3650    0.1550 c3        1 0VN     -0.205000
     21 C2          4.4680    0.1130    2.5100 c3        1 0VN     -0.205000
     22 C3          4.8210   -1.8790    1.0980 c3        1 0VN     -0.205000
     23 H1         -5.2000    0.9430   -3.3120 ha        1 0VN      0.148000
     24 H2         -5.3480    0.7440    1.4100 ha        1 0VN      0.155000
     25 H3         -7.3540    0.9120    0.1710 ha        1 0VN      0.146000
     26 H4         -2.4330    0.6350   -2.8420 DU        1 0VN      0.268000
     27 H6         -1.6440   -1.4240   -0.1900 hn        1 0VN      0.235000
     28 H7          2.1520    0.3390    2.4790 ha        1 0VN      0.141000
     29 H8         -0.1370    0.3080    1.8680 ha        1 0VN      0.144000
     30 H9          0.8630   -1.2240   -1.8020 ha        1 0VN      0.144000
     31 H10         3.1490   -1.1930   -1.1890 ha        1 0VN      0.139000
     32 H11         4.9810    0.0430   -0.7550 hc        1 0VN      0.077667
     33 H12         6.0810    0.2860    0.3760 hc        1 0VN      0.077667
     34 H13         4.8590    1.3000    0.2180 hc        1 0VN      0.077667
     35 H14         4.0400    0.9940    2.5490 hc        1 0VN      0.077667
     36 H15         5.4230    0.2030    2.7310 hc        1 0VN      0.077667
     37 H16         4.0390   -0.4870    3.1530 hc        1 0VN      0.077667
     38 H17         4.0590   -2.4890    1.1020 hc        1 0VN      0.077667
     39 H18         5.3720   -2.0410    1.8890 hc        1 0VN      0.077667
     40 H19         5.3550   -2.0300    0.2900 hc        1 0VN      0.077667
@<TRIPOS>BOND
     1    1    2 1   
     2    1    6 1   
     3    2    3 1   
     4    2   23 1   
     5    4    5 1   
     6    5   24 1   
     7    6   25 1   
     8    7    8 1   
     9    8    9 1   
    10   10   16 1   
    11   10   27 1   
    12   11   12 1   
    13   13   14 1   
    14   13   18 1   
    15   14   15 1   
    16   14   28 1   
    17   15   29 1   
    18   16   17 1   
    19   17   30 1   
    20   18   31 1   
    21   19   20 1   
    22   19   21 1   
    23   19   22 1   
    24   20   32 1   
    25   20   33 1   
    26   20   34 1   
    27   21   35 1   
    28   21   36 1   
    29   21   37 1   
    30   22   38 1   
    31   22   39 1   
    32   22   40 1   
@<TRIPOS>SUBSTRUCTURE
     1 0VN         1 TEMP              0 ****  ****    0 ROOT
