@<TRIPOS>MOLECULE
0VN
   41    43     1     0     0
SMALL
bcc


@<TRIPOS>ATOM
      1 C4         -0.1420    0.7060    0.8250 ca        1 0VN      0.060000
      2 C5          0.6880    0.9640    1.9120 ca        1 0VN     -0.100000
      3 C6          1.6880    0.0180    2.1840 ca        1 0VN     -0.046200
      4 C8          1.8490   -1.1770    1.3690 ca        1 0VN      0.070400
      5 C9          0.9860   -1.3950    0.2770 ca        1 0VN     -0.048000
      6 C10         0.0070   -0.4550    0.0220 ca        1 0VN     -0.105000
      7 N3          2.6830   -0.0280    3.1630 na        1 0VN     -0.232300
      8 C11         3.3760   -1.2400    2.9310 cc        1 0VN      0.396700
      9 N4          2.9120   -1.9440    1.8590 nd        1 0VN     -0.487100
     10 N1          4.5250   -1.6770    3.7370 n4        1 0VN     -0.539400
     11 C7         -1.1740    1.6320    0.5050 cg        1 0VN      0.198800
     12 N2         -2.0180    2.3870    0.2410 n1        1 0VN     -0.291800
     13 C12         4.5510   -0.2020    7.7470 ca        1 0VN      0.014700
     14 C13         3.8040   -1.3430    7.4040 ca        1 0VN     -0.113500
     15 C14         3.7740   -1.8250    6.1010 ca        1 0VN     -0.096000
     16 C15         4.5100   -1.1550    5.1070 ca        1 0VN     -0.094400
     17 C16         5.2580   -0.0090    5.4250 ca        1 0VN     -0.096000
     18 C17         5.2730    0.4530    6.7380 ca        1 0VN     -0.113500
     19 C1          5.1050   -0.8360   10.0700 c3        1 0VN     -0.093767
     20 C2          5.4110    1.5180    9.3720 c3        1 0VN     -0.093767
     21 C3          3.1240    0.6030    9.5980 c3        1 0VN     -0.093767
     22 H1          0.5670    1.8680    2.5270 ha        1 0VN      0.169000
     23 H2          1.0990   -2.2930   -0.3510 ha        1 0VN      0.177000
     24 H3         -0.6820   -0.6010   -0.8280 ha        1 0VN      0.173000
     25 H4          2.7820    0.5710    3.9440 hn        1 0VN      0.333700
     26 H6          5.3830   -1.3650    3.2580 hn        1 0VN      0.479800
     27 H7          3.2290   -1.8750    8.1830 ha        1 0VN      0.175000
     28 H8          3.1770   -2.7230    5.8680 ha        1 0VN      0.160000
     29 H9          5.8450    0.5260    4.6590 ha        1 0VN      0.160000
     30 H10         5.8730    1.3500    6.9680 ha        1 0VN      0.175000
     31 H11         6.1480   -1.0950    9.7730 hc        1 0VN      0.049700
     32 H12         5.1140   -0.4880   11.1320 hc        1 0VN      0.049700
     33 H13         4.4710   -1.7520   10.0050 hc        1 0VN      0.049700
     34 H14         5.0280    2.3660    8.7540 hc        1 0VN      0.049700
     35 H15         5.3770    1.8270   10.4460 hc        1 0VN      0.049700
     36 H16         6.4750    1.3140    9.1030 hc        1 0VN      0.049700
     37 H17         2.4690   -0.2980    9.5240 hc        1 0VN      0.049700
     38 H18         3.1190    0.9550   10.6580 hc        1 0VN      0.049700
     39 H19         2.7020    1.4110    8.9540 hc        1 0VN      0.049700
     40 H121        4.5160   -2.7110    3.7690 hn        1 0VN      0.479800
     41 C18         4.5540    0.2740    9.1760 c3        1 0VN     -0.026700
@<TRIPOS>BOND
     1    1    2 ar  
     2    1    6 ar  
     3    1   11 1   
     4    2    3 ar  
     5    2   22 1   
     6    3    4 ar  
     7    3    7 1   
     8    4    5 ar  
     9    4    9 1   
    10    5    6 ar  
    11    5   23 1   
    12    6   24 1   
    13    7    8 1   
    14    7   25 1   
    15    8    9 2   
    16    8   10 1   
    17   10   16 1   
    18   10   26 1   
    19   10   40 1   
    20   11   12 3   
    21   13   14 ar  
    22   13   18 ar  
    23   13   41 1   
    24   14   15 ar  
    25   14   27 1   
    26   15   16 ar  
    27   15   28 1   
    28   16   17 ar  
    29   17   18 ar  
    30   17   29 1   
    31   18   30 1   
    32   19   31 1   
    33   19   32 1   
    34   19   33 1   
    35   19   41 1   
    36   20   34 1   
    37   20   35 1   
    38   20   36 1   
    39   20   41 1   
    40   21   37 1   
    41   21   38 1   
    42   21   39 1   
    43   21   41 1   
@<TRIPOS>SUBSTRUCTURE
     1 0VN         1 TEMP              0 ****  ****    0 ROOT
