@<TRIPOS>MOLECULE
0VN
   40    42     1     0     0
SMALL
bcc


@<TRIPOS>ATOM
      1 C4         -5.3280    0.3440   -0.2540 ca        1 0VN     -0.018000
      2 C5         -4.6290   -0.8300    0.0510 ca        1 0VN     -0.085000
      3 C6         -3.2390   -0.7510    0.0870 ca        1 0VN     -0.094200
      4 C8         -2.5370    0.4920   -0.1810 ca        1 0VN      0.112400
      5 C9         -3.2720    1.6430   -0.4900 ca        1 0VN     -0.090000
      6 C10        -4.6570    1.5560   -0.5200 ca        1 0VN     -0.106000
      7 N3         -2.2530   -1.7290    0.3000 na        1 0VN     -0.291300
      8 C11        -0.9990   -1.0240    0.2500 cc        1 0VN      0.607700
      9 N4         -1.1480    0.2910   -0.0820 nd        1 0VN     -0.594100
     10 N1          0.2020   -1.7020    0.5590 nh        1 0VN     -0.647600
     11 C7         -6.7480    0.3140   -0.2960 cg        1 0VN      0.236800
     12 N2         -7.9110    0.2900   -0.3300 n1        1 0VN     -0.368800
     13 C12         3.9830    0.1820    0.1170 ca        1 0VN     -0.068300
     14 C13         2.9680    0.7860    0.8630 ca        1 0VN     -0.114000
     15 C14         1.7120    0.1960    0.9910 ca        1 0VN     -0.132500
     16 C15         1.4390   -1.0310    0.3590 ca        1 0VN      0.105600
     17 C16         2.4590   -1.6420   -0.4020 ca        1 0VN     -0.132500
     18 C17         3.7070   -1.0420   -0.5100 ca        1 0VN     -0.114000
     19 C1          6.4020   -0.1640    0.5120 c3        1 0VN     -0.086100
     20 C2          5.6250    1.0510   -1.5180 c3        1 0VN     -0.086100
     21 C3          5.4780    2.1200    0.7050 c3        1 0VN     -0.086100
     22 H1         -5.1600   -1.7710    0.2490 ha        1 0VN      0.148000
     23 H2         -2.7590    2.5910   -0.7050 ha        1 0VN      0.156000
     24 H3         -5.2510    2.4520   -0.7580 ha        1 0VN      0.146000
     25 H4         -2.4040   -2.5590    0.8140 hn        1 0VN      0.301700
     26 H6          0.2130   -2.6420    0.2050 hn        1 0VN      0.413800
     27 H7          3.1390    1.7490    1.3700 ha        1 0VN      0.137500
     28 H8          0.9380    0.7040    1.5870 ha        1 0VN      0.141500
     29 H9          2.2790   -2.6000   -0.9140 ha        1 0VN      0.141500
     30 H10         4.4870   -1.5400   -1.1070 ha        1 0VN      0.137500
     31 H11         6.3810   -1.1320   -0.0420 hc        1 0VN      0.037811
     32 H12         7.4180    0.2850    0.4050 hc        1 0VN      0.037811
     33 H13         6.2120   -0.3670    1.5930 hc        1 0VN      0.037811
     34 H14         4.8600    1.7450   -1.9390 hc        1 0VN      0.037811
     35 H15         6.6350    1.5120   -1.6420 hc        1 0VN      0.037811
     36 H16         5.5980    0.0960   -2.0940 hc        1 0VN      0.037811
     37 H17         5.3090    1.9760    1.7990 hc        1 0VN      0.037811
     38 H18         6.5060    2.5330    0.5610 hc        1 0VN      0.037811
     39 H19         4.7430    2.8640    0.3150 hc        1 0VN      0.037811
     40 C18         5.3490    0.7960   -0.0380 c3        1 0VN     -0.008700
@<TRIPOS>BOND
     1    1    2 ar  
     2    1    6 ar  
     3    1   11 1   
     4    2    3 ar  
     5    2   22 1   
     6    3    4 ar  
     7    3    7 1   
     8    4    5 ar  
     9    4    9 1   
    10    5    6 ar  
    11    5   23 1   
    12    6   24 1   
    13    7    8 1   
    14    7   25 1   
    15    8    9 2   
    16    8   10 1   
    17   10   16 1   
    18   10   26 1   
    19   11   12 3   
    20   13   14 ar  
    21   13   18 ar  
    22   13   40 1   
    23   14   15 ar  
    24   14   27 1   
    25   15   16 ar  
    26   15   28 1   
    27   16   17 ar  
    28   17   18 ar  
    29   17   29 1   
    30   18   30 1   
    31   19   31 1   
    32   19   32 1   
    33   19   33 1   
    34   19   40 1   
    35   20   34 1   
    36   20   35 1   
    37   20   36 1   
    38   20   40 1   
    39   21   37 1   
    40   21   38 1   
    41   21   39 1   
    42   21   40 1   
@<TRIPOS>SUBSTRUCTURE
     1 0VN         1 TEMP              0 ****  ****    0 ROOT
