@<TRIPOS>MOLECULE
0VN
   40    42     1     0     0
SMALL
bcc


@<TRIPOS>ATOM
      1 C4         -0.0330   -0.0930   -0.1000 ca        1 0VN     -0.022000
      2 C5          1.3640   -0.1690   -0.0560 ca        1 0VN     -0.081000
      3 C6          1.9680   -0.0610    1.1940 ca        1 0VN     -0.104200
      4 C8          1.1890    0.1230    2.4050 ca        1 0VN      0.118400
      5 C9         -0.2070    0.1870    2.3210 ca        1 0VN     -0.094000
      6 C10        -0.8000    0.0810    1.0700 ca        1 0VN     -0.102000
      7 N3          3.3160   -0.1590    1.5900 na        1 0VN     -0.289300
      8 C11         3.3050    0.0880    3.0150 cc        1 0VN      0.614700
      9 N4          2.0420    0.2040    3.5210 nd        1 0VN     -0.595100
     10 N1          4.5100    0.2300    3.7230 nu        1 0VN     -0.660600
     11 C7         -0.6930   -0.1930   -1.3550 cg        1 0VN      0.237800
     12 N2         -1.2340   -0.2750   -2.3820 n1        1 0VN     -0.370800
     13 C12         4.6430   -0.2520    7.9440 ca        1 0VN     -0.059300
     14 C13         3.8300   -1.0900    7.1680 ca        1 0VN     -0.122500
     15 C14         3.7660   -0.9590    5.7850 ca        1 0VN     -0.120500
     16 C15         4.5190    0.0380    5.1350 ca        1 0VN      0.095600
     17 C16         5.3340    0.8860    5.9100 ca        1 0VN     -0.120500
     18 C17         5.3920    0.7330    7.2920 ca        1 0VN     -0.122500
     19 C1          5.1590   -1.8490    9.7630 c3        1 0VN     -0.086433
     20 C2          5.6100    0.5530   10.1250 c3        1 0VN     -0.086433
     21 C3          3.2730   -0.2410   10.0040 c3        1 0VN     -0.086433
     22 H1          1.9530   -0.3130   -0.9720 ha        1 0VN      0.148000
     23 H2         -0.8150    0.3190    3.2270 ha        1 0VN      0.156000
     24 H3         -1.8970    0.1340    0.9850 ha        1 0VN      0.145000
     25 H4          4.0610    0.1200    1.0030 hn        1 0VN      0.292700
     26 H6          5.3040   -0.1830    3.2730 hn        1 0VN      0.419800
     27 H7          3.2260   -1.8710    7.6550 ha        1 0VN      0.138000
     28 H8          3.1100   -1.6310    5.2110 ha        1 0VN      0.144500
     29 H9          5.9280    1.6790    5.4300 ha        1 0VN      0.144500
     30 H10         6.0410    1.4160    7.8620 ha        1 0VN      0.138000
     31 H11         4.4720   -2.6110    9.3220 hc        1 0VN      0.037811
     32 H12         5.1880   -1.9950   10.8690 hc        1 0VN      0.037811
     33 H13         6.1840   -2.0120    9.3530 hc        1 0VN      0.037811
     34 H14         6.6570    0.4290    9.7580 hc        1 0VN      0.037811
     35 H15         5.6020    0.3730   11.2280 hc        1 0VN      0.037811
     36 H16         5.2780    1.6020    9.9380 hc        1 0VN      0.037811
     37 H17         2.9020    0.7840    9.7680 hc        1 0VN      0.037811
     38 H18         3.2890   -0.3710   11.1130 hc        1 0VN      0.037811
     39 H19         2.5660   -0.9870    9.5690 hc        1 0VN      0.037811
     40 C18         4.6780   -0.4370    9.4380 c3        1 0VN     -0.010700
@<TRIPOS>BOND
     1    1    2 ar  
     2    1    6 ar  
     3    1   11 1   
     4    2    3 ar  
     5    2   22 1   
     6    3    4 ar  
     7    3    7 1   
     8    4    5 ar  
     9    4    9 1   
    10    5    6 ar  
    11    5   23 1   
    12    6   24 1   
    13    7    8 1   
    14    7   25 1   
    15    8    9 2   
    16    8   10 1   
    17   10   16 1   
    18   10   26 1   
    19   11   12 3   
    20   13   14 ar  
    21   13   18 ar  
    22   13   40 1   
    23   14   15 ar  
    24   14   27 1   
    25   15   16 ar  
    26   15   28 1   
    27   16   17 ar  
    28   17   18 ar  
    29   17   29 1   
    30   18   30 1   
    31   19   31 1   
    32   19   32 1   
    33   19   33 1   
    34   19   40 1   
    35   20   34 1   
    36   20   35 1   
    37   20   36 1   
    38   20   40 1   
    39   21   37 1   
    40   21   38 1   
    41   21   39 1   
    42   21   40 1   
@<TRIPOS>SUBSTRUCTURE
     1 0VN         1 TEMP              0 ****  ****    0 ROOT
