@<TRIPOS>MOLECULE
0VO
   64    65     1     0     0
SMALL
bcc


@<TRIPOS>ATOM
      1 C1          4.4290    0.1960    1.3910 ca        1 0VO     -0.105000
      2 C5          3.2240    0.7290   -0.6360 ca        1 0VO     -0.095300
      3 C6          3.3080    0.7320    0.7580 ca        1 0VO     -0.102000
      4 C9         -4.3560    3.4150    0.7480 c3        1 0VO     -0.042200
      5 C10         2.0580    1.3220   -1.3540 c3        1 0VO      0.175700
      6 C11        -4.2780    0.9470    0.8220 ce        1 0VO     -0.124000
      7 C12        -3.7870   -0.3750    0.5000 ce        1 0VO     -0.129000
      8 C16        -4.3790   -1.4930    0.9390 c2        1 0VO     -0.188200
      9 C18        -2.5980    2.1700   -0.5350 ca        1 0VO     -0.021800
     10 C19        -2.7360    2.7400   -1.8110 ca        1 0VO     -0.156000
     11 C24        -3.9230   -2.8880    0.6180 c3        1 0VO      0.183000
     12 C25        -3.5540   -3.6370    1.9070 c3        1 0VO     -0.082400
     13 C2          5.4760   -0.3440    0.6410 ca        1 0VO     -0.085300
     14 C3          5.3930   -0.3490   -0.7640 ca        1 0VO     -0.090300
     15 C4          4.2670    0.1840   -1.3930 ca        1 0VO     -0.099000
     16 C48         6.5140   -0.9340   -1.5580 c3        1 0VO      0.176700
     17 O49         6.2430   -0.7950   -2.9450 oh        1 0VO     -0.597800
     18 C52         6.6850   -0.9200    1.3010 c3        1 0VO      0.175700
     19 O53         6.5560   -0.8140    2.7120 oh        1 0VO     -0.595800
     20 O1          0.9290    1.2910   -0.4700 os        1 0VO     -0.326900
     21 C14        -0.2520    1.7840   -0.9920 ca        1 0VO      0.128100
     22 C17        -1.3550    1.6870   -0.1230 ca        1 0VO     -0.147000
     23 C20        -1.6390    2.8210   -2.6630 ca        1 0VO     -0.097000
     24 C21        -0.3880    2.3490   -2.2650 ca        1 0VO     -0.205000
     25 C26        -5.0760   -3.6040   -0.1110 c3        1 0VO     -0.082400
     26 O2         -2.7490   -2.9020   -0.1910 oh        1 0VO     -0.589800
     27 C28        -4.7120   -4.9950   -0.5580 c3        1 0VO     -0.092600
     28 C29        -2.5010   -2.9230    2.7120 c3        1 0VO     -0.092600
     29 C8         -3.5810    4.0850    1.8570 c3        1 0VO     -0.090100
     30 H1          4.4940    0.1950    2.4910 ha        1 0VO      0.156000
     31 H2          2.4830    1.1510    1.3540 ha        1 0VO      0.151000
     32 H4         -4.3780    4.0880   -0.1510 hc        1 0VO      0.046200
     33 H5         -5.4200    3.2660    1.0770 hc        1 0VO      0.046200
     34 H6          2.2800    2.3900   -1.6300 h1        1 0VO      0.049700
     35 H7          1.8190    0.7350   -2.2820 h1        1 0VO      0.049700
     36 H8         -5.1570    0.9830    1.4920 ha        1 0VO      0.123000
     37 H10        -2.8780   -0.4220   -0.1280 ha        1 0VO      0.141000
     38 H12        -5.2720   -1.4570    1.5850 ha        1 0VO      0.125000
     39 H14        -3.7160    3.1160   -2.1380 ha        1 0VO      0.135000
     40 H15        -4.4870   -3.7650    2.5140 hc        1 0VO      0.045200
     41 H16        -3.1790   -4.6550    1.6220 hc        1 0VO      0.045200
     42 H17         4.2060    0.1710   -2.4930 ha        1 0VO      0.153000
     43 H18         7.4760   -0.4020   -1.3100 h1        1 0VO      0.030200
     44 H19         6.6300   -2.0250   -1.3030 h1        1 0VO      0.030200
     45 H20         6.9770   -1.2180   -3.4060 ho        1 0VO      0.403000
     46 H21         6.7970   -2.0020    1.0110 h1        1 0VO      0.029700
     47 H22         7.6050   -0.3610    0.9670 h1        1 0VO      0.029700
     48 H23         7.3460   -1.2220    3.0840 ho        1 0VO      0.403000
     49 H24        -1.2240    1.2320    0.8700 ha        1 0VO      0.157000
     50 H25        -1.7550    3.2630   -3.6640 ha        1 0VO      0.132000
     51 H26         0.4660    2.4270   -2.9510 ha        1 0VO      0.137000
     52 H27        -5.9630   -3.6400    0.5730 hc        1 0VO      0.045200
     53 H28        -5.3620   -2.9880   -1.0040 hc        1 0VO      0.045200
     54 H29        -2.9830   -2.4840   -1.0290 ho        1 0VO      0.400000
     55 H30        -5.4870   -5.3890   -1.2590 hc        1 0VO      0.039033
     56 H31        -3.7240   -4.9900   -1.0810 hc        1 0VO      0.039033
     57 H32        -4.6430   -5.6880    0.3140 hc        1 0VO      0.039033
     58 H33        -2.2340   -3.5240    3.6150 hc        1 0VO      0.039033
     59 H34        -1.5810   -2.7730    2.0950 hc        1 0VO      0.039033
     60 H35        -2.8680   -1.9220    3.0450 hc        1 0VO      0.039033
     61 H36        -4.0370    5.0750    2.0980 hc        1 0VO      0.037700
     62 H37        -3.5910    3.4560    2.7800 hc        1 0VO      0.037700
     63 H38        -2.5180    4.2460    1.5530 hc        1 0VO      0.037700
     64 C7         -3.7560    2.1010    0.3630 cf        1 0VO     -0.056400
@<TRIPOS>BOND
     1    1    3 ar  
     2    1   13 ar  
     3    1   30 1   
     4    2    3 ar  
     5    2    5 1   
     6    2   15 ar  
     7    3   31 1   
     8    4   29 1   
     9    4   32 1   
    10    4   33 1   
    11    4   64 1   
    12    5   20 1   
    13    5   34 1   
    14    5   35 1   
    15    6    7 1   
    16    6   36 1   
    17    6   64 2   
    18    7    8 2   
    19    7   37 1   
    20    8   11 1   
    21    8   38 1   
    22    9   10 ar  
    23    9   22 ar  
    24    9   64 1   
    25   10   23 ar  
    26   10   39 1   
    27   11   12 1   
    28   11   25 1   
    29   11   26 1   
    30   12   28 1   
    31   12   40 1   
    32   12   41 1   
    33   13   14 ar  
    34   13   18 1   
    35   14   15 ar  
    36   14   16 1   
    37   15   42 1   
    38   16   17 1   
    39   16   43 1   
    40   16   44 1   
    41   17   45 1   
    42   18   19 1   
    43   18   46 1   
    44   18   47 1   
    45   19   48 1   
    46   20   21 1   
    47   21   22 ar  
    48   21   24 ar  
    49   22   49 1   
    50   23   24 ar  
    51   23   50 1   
    52   24   51 1   
    53   25   27 1   
    54   25   52 1   
    55   25   53 1   
    56   26   54 1   
    57   27   55 1   
    58   27   56 1   
    59   27   57 1   
    60   28   58 1   
    61   28   59 1   
    62   28   60 1   
    63   29   61 1   
    64   29   62 1   
    65   29   63 1   
@<TRIPOS>SUBSTRUCTURE
     1 0VO         1 TEMP              0 ****  ****    0 ROOT
