@<TRIPOS>MOLECULE
0VO
   64    64     1     0     0
SMALL
bcc


@<TRIPOS>ATOM
      1 C1         -0.0100    0.5170    1.2830 ca        1 0VO     -0.121000
      2 C5          2.3080   -0.1590    1.1840 ca        1 0VO     -0.076000
      3 C6          1.2420    0.5960    0.6820 ca        1 0VO     -0.125000
      4 C9          9.3230   -4.4780    1.6140 c3        1 0VO     -0.110000
      5 C10         3.6360   -0.0680    0.5040 c3        1 0VO      0.023000
      6 C11         6.9190   -4.5650    2.1140 c1        1 0VO     -0.196000
      7 C12         5.9330   -5.2840    2.5760 c2        1 0VO     -0.121000
      8 C16         5.5750   -5.4880    3.9360 c1        1 0VO      0.042000
      9 C18         7.8010   -2.4620    1.2230 c3        1 0VO     -0.116000
     10 C19         8.1230   -2.3270   -0.2030 c1        1 0VO     -0.045000
     11 C24         4.7760   -4.5560    4.7590 c3        1 0VO      0.036000
     12 C25         3.4930   -5.3000    5.1830 c3        1 0VO     -0.164500
     13 C2         -0.2220   -0.3170    2.3850 ca        1 0VO     -0.117000
     14 C3          0.8480   -1.0730    2.8940 ca        1 0VO     -0.115000
     15 C4          2.1050   -0.9850    2.2920 ca        1 0VO     -0.104000
     16 C48         0.6290   -1.9470    4.0860 c3        1 0VO      0.018000
     17 O49         1.7640   -2.6950    4.4760 oh        1 0VO     -0.342000
     18 C52        -1.5640   -0.3830    3.0400 c3        1 0VO      0.013000
     19 O53        -2.5930    0.2470    2.3030 oh        1 0VO     -0.320000
     20 O1          4.6440   -0.5050    1.4270 os        1 0VO     -0.218000
     21 C14         5.7430   -1.1270    0.8460 c2        1 0VO     -0.060000
     22 C17         6.5120   -1.8730    1.6860 c2        1 0VO     -0.087000
     23 C20         7.2250   -1.5790   -1.0730 c3        1 0VO     -0.283000
     24 C21         6.0020   -0.9790   -0.5490 c1        1 0VO     -0.098000
     25 C26         5.6230   -4.1800    5.9910 c3        1 0VO     -0.164500
     26 O2          4.4350   -3.3870    4.0090 oh        1 0VO     -0.359000
     27 C28         4.8440   -3.4380    7.0440 c3        1 0VO     -0.219500
     28 C29         2.8440   -6.0090    4.0230 c3        1 0VO     -0.219500
     29 C8          9.6160   -5.1000    0.2700 c3        1 0VO     -0.214000
     30 H1          1.3970    1.2580   -0.1830 ha        1 0VO      0.136000
     31 H2         -0.8410    1.1300    0.8990 ha        1 0VO      0.142000
     32 H4         10.0770   -3.6710    1.8210 hc        1 0VO      0.086000
     33 H5          9.4290   -5.2520    2.4220 hc        1 0VO      0.086000
     34 H6          3.8750    0.9950    0.2300 h1        1 0VO      0.106000
     35 H7          3.6390   -0.6950   -0.4280 h1        1 0VO      0.106000
     36 H8          5.3310   -5.9190    1.8860 ha        1 0VO      0.179000
     37 H10         8.0040   -5.2300    4.3990 ha        1 0VO      0.004000
     38 H12         7.8030   -5.4970    4.9900 ha        1 0VO      0.004000
     39 H14         8.6330   -1.8690    1.7380 hc        1 0VO      0.169000
     40 H15         3.5060   -6.8230    3.6360 hc        1 0VO      0.079833
     41 H16         3.7560   -6.0360    5.9840 hc        1 0VO      0.102250
     42 H17         2.9580   -1.5560    2.7010 ha        1 0VO      0.160000
     43 H18         2.0290   -3.2460    3.7250 ho        1 0VO      0.214000
     44 H19         0.3880   -1.3160    4.9870 h1        1 0VO      0.092500
     45 H20        -0.2290   -2.6510    3.8910 h1        1 0VO      0.092500
     46 H21        -1.8470   -1.4560    3.2350 h1        1 0VO      0.093000
     47 H22        -1.5410    0.1730    4.0190 h1        1 0VO      0.093000
     48 H23        -2.6410   -0.1900    1.4440 ho        1 0VO      0.200000
     49 H24         6.2100   -2.0620    2.7310 ha        1 0VO      0.169000
     50 H25         7.8290   -0.7580   -1.5750 hc        1 0VO      0.190000
     51 H26         6.9360   -2.2670   -1.9310 hc        1 0VO      0.190000
     52 H27         6.4780   -3.5440    5.6380 hc        1 0VO      0.102250
     53 H28         6.0480   -5.1220    6.4280 hc        1 0VO      0.102250
     54 H29         4.0020   -2.7640    4.6090 ho        1 0VO      0.219000
     55 H30         4.3620   -2.5210    6.6250 hc        1 0VO      0.079833
     56 H31         4.0450   -4.0850    7.4810 hc        1 0VO      0.079833
     57 H32         5.5310   -3.1240    7.8670 hc        1 0VO      0.079833
     58 H33         2.7830   -4.5430    5.6120 hc        1 0VO      0.102250
     59 H34         2.6420   -5.2920    3.1900 hc        1 0VO      0.079833
     60 H35         1.8760   -6.4640    4.3430 hc        1 0VO      0.079833
     61 H36         9.4850   -4.3400   -0.5420 hc        1 0VO      0.083000
     62 H37        10.6660   -5.4760    0.2460 hc        1 0VO      0.083000
     63 H38         8.9270   -5.9560    0.0730 hc        1 0VO      0.083000
     64 C7          7.9500   -3.8940    1.6730 c2        1 0VO     -0.008000
@<TRIPOS>BOND
     1    1    3 1   
     2    1   13 1   
     3    1   31 1   
     4    2    3 1   
     5    2    5 1   
     6    2   15 1   
     7    3   30 1   
     8    4   29 1   
     9    4   32 1   
    10    4   33 1   
    11    4   64 1   
    12    5   20 1   
    13    5   34 1   
    14    5   35 1   
    15    6    7 1   
    16    6   64 1   
    17    7    8 1   
    18    7   36 1   
    19    8   11 1   
    20    9   10 1   
    21    9   22 1   
    22    9   39 1   
    23    9   64 1   
    24   10   23 1   
    25   11   12 1   
    26   11   25 1   
    27   11   26 1   
    28   12   28 1   
    29   12   41 1   
    30   12   58 1   
    31   13   14 1   
    32   13   18 1   
    33   14   15 1   
    34   14   16 1   
    35   15   42 1   
    36   16   17 1   
    37   16   44 1   
    38   16   45 1   
    39   17   43 1   
    40   18   19 1   
    41   18   46 1   
    42   18   47 1   
    43   19   48 1   
    44   20   21 1   
    45   21   22 1   
    46   21   24 1   
    47   22   49 1   
    48   23   24 1   
    49   23   50 1   
    50   23   51 1   
    51   25   27 1   
    52   25   52 1   
    53   25   53 1   
    54   26   54 1   
    55   27   55 1   
    56   27   56 1   
    57   27   57 1   
    58   28   40 1   
    59   28   59 1   
    60   28   60 1   
    61   29   61 1   
    62   29   62 1   
    63   29   63 1   
    64   37   38 1   
@<TRIPOS>SUBSTRUCTURE
     1 0VO         1 TEMP              0 ****  ****    0 ROOT
