@<TRIPOS>MOLECULE
0VO
   64    57     1     0     0
SMALL
bcc


@<TRIPOS>ATOM
      1 C1         -4.6790    1.7190   -0.2920 c1        1 0VO     -0.116750
      2 C5         -2.7340    3.0040   -0.9010 c1        1 0VO     -0.116000
      3 C6         -3.3910    2.2460    0.0130 c1        1 0VO     -0.116750
      4 C7          2.5560   -0.0390    2.0710 c1        1 0VO     -0.071000
      5 C9          2.0140   -0.6100    3.4050 c3        1 0VO     -0.126000
      6 C10        -1.3000    3.5330   -0.5890 c3        1 0VO      0.021000
      7 C11         3.4070   -0.8210    1.2620 c1        1 0VO     -0.118000
      8 C12         3.7910   -2.2150    1.6950 c1        1 0VO     -0.116750
      9 C16         3.5380   -3.3070    0.8470 c1        1 0VO     -0.116750
     10 C18         2.1530    1.3670    1.6210 c1        1 0VO     -0.020000
     11 C19         3.1240    2.3820    1.5120 c1        1 0VO     -0.134000
     12 C24         2.8790   -3.0860   -0.5120 c2        1 0VO      0.114000
     13 C25         3.4020   -4.1460   -1.5090 c3        1 0VO     -0.181500
     14 C2         -5.2610    1.9820   -1.5220 c1        1 0VO     -0.064500
     15 C3         -4.5780    2.7660   -2.4640 c1        1 0VO     -0.064500
     16 C4         -3.3270    3.2740   -2.1630 c1        1 0VO     -0.116000
     17 C48        -5.2400    3.1070   -3.8130 c3        1 0VO      0.018500
     18 O49        -4.9890    2.0910   -4.7220 oh        1 0VO     -0.331000
     19 C52        -6.6260    1.4740   -1.8230 c3        1 0VO      0.018500
     20 O53        -6.9290    0.4120   -0.9620 oh        1 0VO     -0.331000
     21 O1         -0.9550    3.2180    0.7950 os        1 0VO     -0.223000
     22 C14         0.4220    2.9150    1.0040 c2        1 0VO      0.056000
     23 C17         0.7930    1.6570    1.3600 c1        1 0VO     -0.129000
     24 C20         2.7570    3.6370    1.1580 c1        1 0VO     -0.114000
     25 C21         1.3940    3.9280    0.8960 c2        1 0VO     -0.166000
     26 C26         1.2600   -3.2320   -0.3700 c3        1 0VO     -0.181500
     27 O2          3.2230   -1.7090   -1.0140 oh        1 0VO     -0.327000
     28 C28         0.9340   -4.4980    0.4340 c3        1 0VO     -0.209000
     29 C29         3.3810   -5.5020   -0.8560 c3        1 0VO     -0.209000
     30 C8          2.7750    0.0420    4.6100 c3        1 0VO     -0.207000
     31 H1         -5.1420    1.1870    0.3520 ha        1 0VO      0.136000
     32 H2         -2.9650    2.0560    0.9070 ha        1 0VO      0.136000
     33 H4          1.1260   -0.4260    3.4750 hc        1 0VO      0.086000
     34 H5          2.1460   -1.5580    3.4180 hc        1 0VO      0.086000
     35 H6         -1.2740    4.5630   -0.7280 h1        1 0VO      0.098500
     36 H7         -0.6850    3.1240   -1.1690 h1        1 0VO      0.098500
     37 H8          3.7210   -0.4870    0.4890 ha        1 0VO      0.148000
     38 H10         4.2140   -2.3590    2.5650 ha        1 0VO      0.136000
     39 H12         3.7890   -4.2260    1.1310 ha        1 0VO      0.136000
     40 H14         4.0070    2.1940    1.6800 ha        1 0VO      0.143000
     41 H15         4.3060   -3.9240   -1.7670 hc        1 0VO      0.085750
     42 H16         2.8460   -4.1570   -2.2810 hc        1 0VO      0.085750
     43 H17        -2.8590    3.8130   -2.8090 ha        1 0VO      0.127000
     44 H18        -4.8560    3.9810   -4.1680 h1        1 0VO      0.076750
     45 H19        -6.1870    3.2000   -3.6920 h1        1 0VO      0.076750
     46 H20        -5.2480    2.3470   -5.5240 ho        1 0VO      0.200500
     47 H21        -6.6630    1.1360   -2.8300 h1        1 0VO      0.076750
     48 H22        -7.2650    2.1780   -1.6980 h1        1 0VO      0.076750
     49 H23        -7.6970    0.0140   -1.2320 ho        1 0VO      0.200500
     50 H24         0.1150    0.9720    1.4970 ha        1 0VO      0.147000
     51 H25         3.4590    4.3700    1.0800 ha        1 0VO      0.132000
     52 H26         1.1180    4.8760    0.6310 ha        1 0VO      0.135000
     53 H27         0.8710   -3.2940   -1.2330 hc        1 0VO      0.085750
     54 H28         0.8980   -2.4450    0.0960 hc        1 0VO      0.085750
     55 H29         2.7510   -1.5250   -1.6990 ho        1 0VO      0.195000
     56 H30         1.4910   -5.2890    0.0740 hc        1 0VO      0.076500
     57 H31         0.0720   -4.6840    0.3550 hc        1 0VO      0.076500
     58 H32         1.1550   -4.3450    1.3960 hc        1 0VO      0.076500
     59 H33         3.8970   -5.4570    0.0650 hc        1 0VO      0.076500
     60 H34         2.4290   -5.7790   -0.6920 hc        1 0VO      0.076500
     61 H35         3.8380   -6.1850   -1.4720 hc        1 0VO      0.076500
     62 H36         3.6630    0.3690    4.3070 hc        1 0VO      0.075333
     63 H37         2.9020   -0.6440    5.3340 hc        1 0VO      0.075333
     64 H38         2.2360    0.8140    4.9680 hc        1 0VO      0.075333
@<TRIPOS>BOND
     1    1    3 1   
     2    1   31 1   
     3    2    6 1   
     4    2   16 1   
     5    3   32 1   
     6    4    5 1   
     7    4    7 1   
     8    5   30 1   
     9    5   33 1   
    10    5   34 1   
    11    6   21 1   
    12    6   35 1   
    13    6   36 1   
    14    7   37 1   
    15    8    9 1   
    16    8   38 1   
    17    9   39 1   
    18   10   11 1   
    19   11   40 1   
    20   12   13 1   
    21   12   26 1   
    22   12   27 1   
    23   13   29 1   
    24   13   41 1   
    25   13   42 1   
    26   14   15 1   
    27   14   19 1   
    28   15   17 1   
    29   16   43 1   
    30   17   18 1   
    31   17   44 1   
    32   17   45 1   
    33   18   46 1   
    34   19   20 1   
    35   19   47 1   
    36   19   48 1   
    37   20   49 1   
    38   21   22 1   
    39   22   23 1   
    40   22   25 1   
    41   23   50 1   
    42   24   25 1   
    43   24   51 1   
    44   25   52 1   
    45   26   28 1   
    46   26   53 1   
    47   26   54 1   
    48   27   55 1   
    49   28   56 1   
    50   28   57 1   
    51   28   58 1   
    52   29   59 1   
    53   29   60 1   
    54   29   61 1   
    55   30   62 1   
    56   30   63 1   
    57   30   64 1   
@<TRIPOS>SUBSTRUCTURE
     1 0VO         1 TEMP              0 ****  ****    0 ROOT
