@<TRIPOS>MOLECULE
0VO
   64    65     1     0     0
SMALL
bcc


@<TRIPOS>ATOM
      1 C1          0.4830    0.1670    0.6880 ca        1 0VO     -0.123000
      2 C5          2.8340    0.5750    1.0780 ca        1 0VO     -0.097000
      3 C6          1.6800    0.7660    0.3090 ca        1 0VO     -0.116000
      4 C9          8.1180   -4.7800    1.0190 c3        1 0VO     -0.106000
      5 C10         4.1000    1.2600    0.6780 c3        1 0VO      0.013000
      6 C11         6.2730   -3.8250    2.3190 c1        1 0VO     -0.190000
      7 C12         5.3920   -4.0180    3.2590 c2        1 0VO     -0.089000
      8 C16         5.6080   -3.6740    4.6860 c3        1 0VO     -0.157000
      9 C18         7.2910   -2.4050    0.5850 c3        1 0VO     -0.114000
     10 C19         6.9840   -2.6390   -0.8320 c1        1 0VO     -0.043000
     11 C24         4.8160   -4.5680    5.6590 c3        1 0VO      0.088000
     12 C25         5.3850   -5.9880    5.7390 c3        1 0VO     -0.167500
     13 C2          0.4170   -0.6470    1.8230 ca        1 0VO     -0.111000
     14 C3          1.5740   -0.8450    2.5950 ca        1 0VO     -0.116000
     15 C4          2.7680   -0.2220    2.2220 ca        1 0VO     -0.107000
     16 C48         1.5220   -1.6930    3.8250 c3        1 0VO      0.015000
     17 O49         2.7960   -2.0120    4.3520 oh        1 0VO     -0.340000
     18 C52        -0.8720   -1.2850    2.2300 c3        1 0VO      0.013000
     19 O53        -1.9190   -1.1100    1.2960 oh        1 0VO     -0.319000
     20 O1          5.2590    0.6470    1.2500 os        1 0VO     -0.216000
     21 C14         5.7830   -0.4300    0.5440 c2        1 0VO     -0.056000
     22 C17         6.5850   -1.2740    1.2500 c2        1 0VO     -0.102000
     23 C20         6.1030   -1.7180   -1.5380 c3        1 0VO     -0.286000
     24 C21         5.5190   -0.5700   -0.8540 c1        1 0VO     -0.084000
     25 C26         4.8780   -3.8990    7.0450 c3        1 0VO     -0.167500
     26 O2          3.4660   -4.6860    5.2180 oh        1 0VO     -0.338000
     27 C28         4.0480   -4.6030    8.0860 c3        1 0VO     -0.211000
     28 C29         5.2740   -6.7720    4.4590 c3        1 0VO     -0.211000
     29 C8          7.5920   -5.6540   -0.0930 c3        1 0VO     -0.216000
     30 H1          1.7200    1.3940   -0.5940 ha        1 0VO      0.137000
     31 H2         -0.4280    0.3460    0.0940 ha        1 0VO      0.142000
     32 H4          9.0970   -4.3280    0.7060 hc        1 0VO      0.085000
     33 H5          8.3140   -5.4070    1.9300 hc        1 0VO      0.085000
     34 H6          4.1260    2.2970    1.1190 h1        1 0VO      0.121000
     35 H7          4.1890    1.3120   -0.4410 h1        1 0VO      0.121000
     36 H8          4.4020   -4.4580    3.0250 ha        1 0VO      0.156000
     37 H10         5.2760   -2.6080    4.8350 hc        1 0VO      0.099000
     38 H12         6.6950   -3.7340    4.9530 hc        1 0VO      0.099000
     39 H14         8.4040   -2.1370    0.5730 hc        1 0VO      0.168000
     40 H15         5.9590   -6.3630    3.6770 hc        1 0VO      0.078333
     41 H16         6.4590   -5.9130    6.0530 hc        1 0VO      0.086250
     42 H17         3.6730   -0.3500    2.8400 ha        1 0VO      0.153000
     43 H18         3.2940   -2.4680    3.6580 ho        1 0VO      0.211000
     44 H19         1.0070   -1.1350    4.6560 h1        1 0VO      0.095500
     45 H20         0.9600   -2.6470    3.6180 h1        1 0VO      0.095500
     46 H21        -0.7170   -2.3850    2.4160 h1        1 0VO      0.094500
     47 H22        -1.2570   -0.8030    3.1720 h1        1 0VO      0.094500
     48 H23        -1.6410   -1.5270    0.4710 ho        1 0VO      0.200000
     49 H24         6.7580   -1.1410    2.3300 ha        1 0VO      0.153000
     50 H25         6.6560   -1.3390   -2.4540 hc        1 0VO      0.192000
     51 H26         5.2480   -2.3310   -1.9720 hc        1 0VO      0.192000
     52 H27         4.5150   -2.8410    6.9410 hc        1 0VO      0.086250
     53 H28         5.9490   -3.8590    7.3700 hc        1 0VO      0.086250
     54 H29         3.0220   -3.8550    5.4360 ho        1 0VO      0.215000
     55 H30         3.0440   -4.8690    7.6720 hc        1 0VO      0.078333
     56 H31         4.5450   -5.5420    8.4300 hc        1 0VO      0.078333
     57 H32         3.9050   -3.9400    8.9740 hc        1 0VO      0.078333
     58 H33         4.8270   -6.5370    6.5440 hc        1 0VO      0.086250
     59 H34         4.2270   -6.7310    4.0690 hc        1 0VO      0.078333
     60 H35         5.5470   -7.8390    4.6410 hc        1 0VO      0.078333
     61 H36         7.3700   -5.0350   -0.9990 hc        1 0VO      0.083333
     62 H37         8.3520   -6.4270   -0.3600 hc        1 0VO      0.083333
     63 H38         6.6550   -6.1730    0.2230 hc        1 0VO      0.083333
     64 C7          7.1620   -3.6850    1.3710 c2        1 0VO     -0.019000
@<TRIPOS>BOND
     1    1    3 1   
     2    1   13 1   
     3    1   31 1   
     4    2    3 1   
     5    2    5 1   
     6    2   15 1   
     7    3   30 1   
     8    4   29 1   
     9    4   32 1   
    10    4   33 1   
    11    4   64 1   
    12    5   20 1   
    13    5   34 1   
    14    5   35 1   
    15    6    7 1   
    16    6   64 1   
    17    7    8 1   
    18    7   36 1   
    19    8   11 1   
    20    8   37 1   
    21    8   38 1   
    22    9   10 1   
    23    9   22 1   
    24    9   39 1   
    25    9   64 1   
    26   10   23 1   
    27   11   12 1   
    28   11   25 1   
    29   11   26 1   
    30   12   28 1   
    31   12   41 1   
    32   12   58 1   
    33   13   14 1   
    34   13   18 1   
    35   14   15 1   
    36   14   16 1   
    37   15   42 1   
    38   16   17 1   
    39   16   44 1   
    40   16   45 1   
    41   17   43 1   
    42   18   19 1   
    43   18   46 1   
    44   18   47 1   
    45   19   48 1   
    46   20   21 1   
    47   21   22 1   
    48   21   24 1   
    49   22   49 1   
    50   23   24 1   
    51   23   50 1   
    52   23   51 1   
    53   25   27 1   
    54   25   52 1   
    55   25   53 1   
    56   26   54 1   
    57   27   55 1   
    58   27   56 1   
    59   27   57 1   
    60   28   40 1   
    61   28   59 1   
    62   28   60 1   
    63   29   61 1   
    64   29   62 1   
    65   29   63 1   
@<TRIPOS>SUBSTRUCTURE
     1 0VO         1 TEMP              0 ****  ****    0 ROOT
