@<TRIPOS>MOLECULE
0VO
   64    64     1     0     0
SMALL
bcc


@<TRIPOS>ATOM
      1 C1          0.0960   -0.4390    0.9380 c3        1 0VO     -0.200000
      2 C5          2.5270    0.0170    0.9030 c2        1 0VO     -0.200000
      3 C6          1.2610    0.1060    0.2570 c1        1 0VO     -0.077000
      4 C9          8.9510   -4.2530    1.3760 c3        1 0VO     -0.106000
      5 C10         3.6760    0.6150    0.1570 c3        1 0VO      0.027000
      6 C11         6.8920   -3.5460    2.5090 c1        1 0VO     -0.183000
      7 C12         6.0310   -3.7530    3.4630 c2        1 0VO     -0.097000
      8 C16         6.1040   -3.1290    4.8080 c3        1 0VO     -0.165000
      9 C18         7.6070   -2.2440    0.5520 c3        1 0VO     -0.114000
     10 C19         7.3570   -2.7850   -0.7900 c1        1 0VO     -0.044000
     11 C24         5.5690   -4.0770    5.8840 c3        1 0VO      0.031000
     12 C25         1.6870   -6.1260    2.6340 c2        1 0VO     -0.227000
     13 C2          0.2850   -1.0530    2.2760 c2        1 0VO     -0.102000
     14 C3          1.5250   -1.1050    2.8360 c2        1 0VO     -0.169000
     15 C4          2.6610   -0.5590    2.1350 c2        1 0VO     -0.005000
     16 C48         1.7440   -1.6710    4.2030 c3        1 0VO      0.016000
     17 O49         3.0770   -2.0830    4.4340 oh        1 0VO     -0.340000
     18 C52        -0.9190   -1.5780    2.9840 c3        1 0VO     -0.003000
     19 O53        -2.1370   -1.2780    2.3330 oh        1 0VO     -0.315000
     20 O1          4.9300    0.3360    0.7900 os        1 0VO     -0.228000
     21 C14         5.6730   -0.7080    0.2550 c2        1 0VO     -0.049000
     22 C17         6.6680   -1.1970    1.0460 c2        1 0VO     -0.114000
     23 C20         6.2670   -2.2430   -1.5890 c3        1 0VO     -0.287000
     24 C21         5.4150   -1.1790   -1.0710 c1        1 0VO     -0.081000
     25 C26         5.9270   -3.5560    7.2730 c3        1 0VO     -0.191000
     26 O2          4.1680   -4.2540    5.7350 oh        1 0VO     -0.344000
     27 C28         5.4790   -4.5060    8.3520 c3        1 0VO     -0.211000
     28 C29         2.6350   -5.2410    2.9140 c2        1 0VO     -0.227000
     29 C8          8.6760   -5.3960    0.4290 c3        1 0VO     -0.216000
     30 H1         -0.3640   -1.1940    0.2320 hc        1 0VO      0.166500
     31 H2         -0.6630    0.3990    1.0240 hc        1 0VO      0.166500
     32 H4          9.8100   -3.6440    0.9850 hc        1 0VO      0.085000
     33 H5          9.2580   -4.6600    2.3780 hc        1 0VO      0.085000
     34 H6          3.6610    0.2750   -0.9140 h1        1 0VO      0.131000
     35 H7          3.6070    1.7390    0.2000 h1        1 0VO      0.131000
     36 H8          5.1600   -4.4200    3.3030 ha        1 0VO      0.149000
     37 H10         5.4790   -2.1930    4.8040 hc        1 0VO      0.104000
     38 H12         7.1570   -2.8400    5.0590 hc        1 0VO      0.104000
     39 H14         8.6330   -1.7460    0.4540 hc        1 0VO      0.167000
     40 H15         5.9890   -5.1130    5.7380 h1        1 0VO      0.117000
     41 H16         1.2930   -6.2750    1.6200 ha        1 0VO      0.114000
     42 H17         3.6430   -0.6190    2.6380 ha        1 0VO      0.158000
     43 H18         3.2670   -2.8220    3.8380 ho        1 0VO      0.216000
     44 H19         1.5600   -0.8740    4.9780 h1        1 0VO      0.094500
     45 H20         1.0450   -2.5330    4.3890 h1        1 0VO      0.094500
     46 H21        -0.8210   -2.6910    3.1270 h1        1 0VO      0.103000
     47 H22        -1.0200   -1.0870    3.9940 h1        1 0VO      0.103000
     48 H23        -2.1340   -1.7350    1.4820 ho        1 0VO      0.200000
     49 H24         6.8280   -0.8250    2.0700 ha        1 0VO      0.152000
     50 H25         5.5960   -3.1110   -1.8850 hc        1 0VO      0.193000
     51 H26         6.7010   -1.8900   -2.5780 hc        1 0VO      0.193000
     52 H27         5.4470   -2.5530    7.4240 hc        1 0VO      0.086000
     53 H28         7.0370   -3.4090    7.3300 hc        1 0VO      0.086000
     54 H29         3.7410   -3.4280    6.0010 ho        1 0VO      0.213000
     55 H30         4.3860   -4.7160    8.2520 hc        1 0VO      0.078000
     56 H31         6.0290   -5.4750    8.2770 hc        1 0VO      0.078000
     57 H32         5.6700   -4.0670    9.3600 hc        1 0VO      0.078000
     58 H33         1.2370   -6.7730    3.4000 ha        1 0VO      0.114000
     59 H34         3.0370   -5.0980    3.9300 ha        1 0VO      0.114000
     60 H35         3.0890   -4.6010    2.1450 ha        1 0VO      0.114000
     61 H36         7.8800   -6.0640    0.8370 hc        1 0VO      0.083667
     62 H37         9.6040   -5.9990    0.2830 hc        1 0VO      0.083667
     63 H38         8.3400   -5.0020   -0.5630 hc        1 0VO      0.083667
     64 C7          7.7590   -3.3680    1.5460 c2        1 0VO     -0.017000
@<TRIPOS>BOND
     1    1    3 1   
     2    1   13 1   
     3    1   30 1   
     4    1   31 1   
     5    2    3 1   
     6    2    5 1   
     7    2   15 1   
     8    4   29 1   
     9    4   32 1   
    10    4   33 1   
    11    4   64 1   
    12    5   20 1   
    13    5   34 1   
    14    5   35 1   
    15    6    7 1   
    16    6   64 1   
    17    7    8 1   
    18    7   36 1   
    19    8   11 1   
    20    8   37 1   
    21    8   38 1   
    22    9   10 1   
    23    9   22 1   
    24    9   39 1   
    25    9   64 1   
    26   10   23 1   
    27   11   25 1   
    28   11   26 1   
    29   11   40 1   
    30   12   28 1   
    31   12   41 1   
    32   12   58 1   
    33   13   14 1   
    34   13   18 1   
    35   14   15 1   
    36   14   16 1   
    37   15   42 1   
    38   16   17 1   
    39   16   44 1   
    40   16   45 1   
    41   17   43 1   
    42   18   19 1   
    43   18   46 1   
    44   18   47 1   
    45   19   48 1   
    46   20   21 1   
    47   21   22 1   
    48   21   24 1   
    49   22   49 1   
    50   23   24 1   
    51   23   50 1   
    52   23   51 1   
    53   25   27 1   
    54   25   52 1   
    55   25   53 1   
    56   26   54 1   
    57   27   55 1   
    58   27   56 1   
    59   27   57 1   
    60   28   59 1   
    61   28   60 1   
    62   29   61 1   
    63   29   62 1   
    64   29   63 1   
@<TRIPOS>SUBSTRUCTURE
     1 0VO         1 TEMP              0 ****  ****    0 ROOT
