@<TRIPOS>MOLECULE
0VP
   75    74     1     0     0
SMALL
bcc


@<TRIPOS>ATOM
      1 O1          0.2930   -0.0970    0.5090 os        1 0VP     -0.224000
      2 O2         -8.8220    2.0910    2.8600 oh        1 0VP     -0.262000
      3 C9         -4.8720   -0.6880    2.8480 c2        1 0VP     -0.031000
      4 C10         1.6340   -0.5960    0.4100 c3        1 0VP      0.065000
      5 C11        -4.3270    1.6980    2.6990 c2        1 0VP     -0.105000
      6 C12        -7.4330   -0.4450    2.9140 c1        1 0VP     -0.130000
      7 C13        -6.1790   -0.5510    2.8810 c1        1 0VP     -0.115000
      8 C14        -0.3440   -0.3370    1.7140 c2        1 0VP      0.076000
      9 C15        -3.4390    2.8800    2.6500 c3        1 0VP     -0.144000
     10 C16        -8.7430   -0.3620    2.9500 c2        1 0VP     -0.078000
     11 C17        -1.7080    0.1720    1.7060 c2        1 0VP     -0.122000
     12 C18        -2.5100    0.0100    2.7830 c2        1 0VP     -0.020000
     13 C19        -2.0150   -0.6270    4.0120 cx        1 0VP     -0.137000
     14 C20        -0.5870   -1.1610    3.9990 cx        1 0VP     -0.106000
     15 C21         0.1860   -1.0000    2.7700 c2        1 0VP     -0.232000
     16 C22        -3.9860    3.9550    1.7300 c3        1 0VP     -0.156000
     17 C23        -3.0770    5.1570    1.6960 c3        1 0VP     -0.212000
     18 C24        -9.4960    0.8830    2.9240 c2        1 0VP      0.044000
     19 C25       -11.0720   -3.3420    2.8080 c3        1 0VP     -0.215500
     20 C26       -10.8480    0.9100    2.9600 c2        1 0VP     -0.189000
     21 C27        -0.9740   -0.0540    6.3070 c3        1 0VP     -0.186000
     22 C28       -11.6600    2.1360    2.9360 c3        1 0VP     -0.175000
     23 C29       -10.4990   -3.8040    4.1150 c3        1 0VP     -0.215500
     24 C1          5.1870   -0.7150   -3.9190 c2        1 0VP     -0.411000
     25 C2          4.5580    0.3110   -4.7380 c2        1 0VP     -0.160000
     26 C3          3.3650    0.9450   -4.1120 c3        1 0VP     -0.159000
     27 C4          1.5760    0.5100   -1.8570 c1        1 0VP      0.182000
     28 C5          2.1560   -0.2070   -0.9230 c2        1 0VP     -0.490000
     29 C6          4.9520   -0.8870   -2.6330 c1        1 0VP      0.167000
     30 O49         1.8340    2.8270   -4.0990 oh        1 0VP     -0.333000
     31 C52         5.0020    0.6600   -5.9630 c2        1 0VP      0.012000
     32 O53         6.0880    0.1540   -6.6160 oh        1 0VP     -0.249000
     33 C8         -0.9380    0.0560    4.8240 cx        1 0VP     -0.138000
     34 C7         -3.9230    0.4130    2.7690 c2        1 0VP     -0.065000
     35 H1         -7.8730    1.9050    2.8250 ho        1 0VP      0.218000
     36 H2         -4.4370   -1.7050    2.8740 ha        1 0VP      0.151000
     37 H3          1.6220   -1.7150    0.5140 h1        1 0VP      0.092000
     38 H4          2.2650   -0.1430    1.2230 h1        1 0VP      0.092000
     39 H5         -5.4090    1.9250    2.6960 ha        1 0VP      0.125000
     40 H6         -9.3520   -1.2860    3.0040 ha        1 0VP      0.158000
     41 H7         -3.3440    3.2960    3.6920 hc        1 0VP      0.099000
     42 H8         -2.4060    2.5900    2.3170 hc        1 0VP      0.099000
     43 H9         -2.0560    0.6500    0.7770 ha        1 0VP      0.156000
     44 H10         1.1850   -1.4530    2.7520 ha        1 0VP      0.138000
     45 H11        -0.3710   -2.1040    4.5410 hc        1 0VP      0.126000
     46 H12        -4.0990    3.5380    0.6950 hc        1 0VP      0.082000
     47 H13        -5.0070    4.2630    2.0780 hc        1 0VP      0.082000
     48 H14        -2.0620    4.8740    1.3250 hc        1 0VP      0.074667
     49 H15        -2.9670    5.5980    2.7160 hc        1 0VP      0.074667
     50 H16        -3.4960    5.9380    1.0160 hc        1 0VP      0.074667
     51 H17       -10.2800   -3.2980    2.0210 hc        1 0VP      0.072000
     52 H18       -11.8710   -4.0390    2.4580 hc        1 0VP      0.072000
     53 H19       -11.5200   -2.3220    2.9100 hc        1 0VP      0.072000
     54 H20       -11.4000   -0.0420    3.0130 ha        1 0VP      0.127000
     55 H21        -1.6560    0.7220    6.7340 hc        1 0VP      0.079000
     56 H22         0.0500    0.1040    6.7280 hc        1 0VP      0.079000
     57 H23        -1.3370   -1.0600    6.6330 hc        1 0VP      0.079000
     58 H24       -12.2810    2.2020    3.8650 hc        1 0VP      0.084667
     59 H25       -11.0240    3.0530    2.8690 hc        1 0VP      0.084667
     60 H26       -12.3520    2.1200    2.0560 hc        1 0VP      0.084667
     61 H27       -11.2910   -3.8490    4.9000 hc        1 0VP      0.072000
     62 H28        -9.7000   -3.1060    4.4650 hc        1 0VP      0.072000
     63 H29       -10.0510   -4.8220    4.0110 hc        1 0VP      0.072000
     64 H30         5.8880   -1.4120   -4.4200 ha        1 0VP      0.180000
     65 H31         3.6440    1.3080   -3.0810 hc        1 0VP      0.098500
     66 H32         3.1860   -0.5960   -1.1180 ha        1 0VP      0.222000
     67 H33         2.5680    0.1590   -3.9800 hc        1 0VP      0.098500
     68 H34         3.5530    2.8690   -5.1510 h1        1 0VP      0.081000
     69 H35         1.3100    2.1840   -3.5970 ho        1 0VP      0.222000
     70 H36         2.2680    1.7440   -5.8180 h1        1 0VP      0.081000
     71 H37         4.5180    1.4180   -6.6060 h4        1 0VP      0.178000
     72 H38         6.5540   -0.4730   -6.0450 ho        1 0VP      0.213000
     73 H39        -2.7920   -1.1940    4.5650 hc        1 0VP      0.131000
     74 H40        -0.5730    1.0400    4.4670 hc        1 0VP      0.128000
     75 C48         2.7680    2.1110   -4.8810 c3        1 0VP     -0.013000
@<TRIPOS>BOND
     1    1    4 1   
     2    1    8 1   
     3    2   18 1   
     4    2   35 1   
     5    3    7 1   
     6    3   34 1   
     7    3   36 1   
     8    4   28 1   
     9    4   37 1   
    10    4   38 1   
    11    5    9 1   
    12    5   34 1   
    13    5   39 1   
    14    6    7 1   
    15    6   10 1   
    16    8   11 1   
    17    8   15 1   
    18    9   16 1   
    19    9   41 1   
    20    9   42 1   
    21   10   18 1   
    22   10   40 1   
    23   11   12 1   
    24   11   43 1   
    25   12   13 1   
    26   12   34 1   
    27   13   14 1   
    28   13   33 1   
    29   13   73 1   
    30   14   15 1   
    31   14   33 1   
    32   14   45 1   
    33   15   44 1   
    34   16   17 1   
    35   16   46 1   
    36   16   47 1   
    37   17   48 1   
    38   17   49 1   
    39   17   50 1   
    40   18   20 1   
    41   19   23 1   
    42   19   51 1   
    43   19   52 1   
    44   19   53 1   
    45   20   22 1   
    46   20   54 1   
    47   21   33 1   
    48   21   55 1   
    49   21   56 1   
    50   21   57 1   
    51   22   58 1   
    52   22   59 1   
    53   22   60 1   
    54   23   61 1   
    55   23   62 1   
    56   23   63 1   
    57   24   25 1   
    58   24   29 1   
    59   24   64 1   
    60   25   26 1   
    61   25   31 1   
    62   26   65 1   
    63   26   67 1   
    64   26   75 1   
    65   27   28 1   
    66   28   66 1   
    67   30   69 1   
    68   30   75 1   
    69   31   32 1   
    70   31   71 1   
    71   32   72 1   
    72   33   74 1   
    73   68   75 1   
    74   70   75 1   
@<TRIPOS>SUBSTRUCTURE
     1 0VP         1 TEMP              0 ****  ****    0 ROOT
