@<TRIPOS>MOLECULE
0VP
   75    67     1     0     0
SMALL
bcc


@<TRIPOS>ATOM
      1 O1          2.9650    0.4810   -1.2480 os        1 0VP     -0.210000
      2 O2         -6.0840   -0.2900    2.2250 oh        1 0VP     -0.317000
      3 C9         -1.4010   -1.0380    1.3180 c1        1 0VP     -0.122000
      4 C10         4.3410    0.0550   -1.2520 c3        1 0VP      0.019000
      5 C11        -2.3840    1.1750    1.4790 c1        1 0VP     -0.051000
      6 C12        -3.6610    0.6070    1.5080 c1        1 0VP     -0.123000
      7 C13        -2.6830   -1.6060    1.3460 c1        1 0VP     -0.122000
      8 C14         2.3830    0.5430    0.0520 c2        1 0VP      0.076000
      9 C15        -2.2130    2.6690    1.7240 c3        1 0VP     -0.128000
     10 C16        -3.8110   -0.7840    1.4410 c1        1 0VP     -0.070000
     11 C17         0.9840    0.4450    0.0990 c1        1 0VP     -0.146000
     12 C18         0.3260    0.4180    1.3320 c1        1 0VP     -0.003000
     13 C19         1.0600    0.4880    2.5150 c1        1 0VP     -0.088000
     14 C20         2.4590    0.5860    2.4680 c2        1 0VP     -0.098000
     15 C21         3.1160    0.6130    1.2330 c2        1 0VP     -0.200000
     16 C22        -3.1550    3.4570    0.7880 c3        1 0VP     -0.156000
     17 C23        -3.4430    4.8340    1.3950 c3        1 0VP     -0.210000
     18 C24        -5.2860   -1.3090    1.6190 c2        1 0VP      0.121000
     19 C25        -5.2830   -2.5590    2.5210 c3        1 0VP     -0.162000
     20 C26        -5.8810   -1.6730    0.2200 c3        1 0VP     -0.162000
     21 C27         1.2230   -0.1420    4.9520 c3        1 0VP     -0.205000
     22 C28        -7.3080   -2.1410    0.3830 c3        1 0VP     -0.207000
     23 C29        -6.1310   -2.2860    3.7710 c3        1 0VP     -0.207000
     24 C1          4.4790   -1.0300   -4.9150 c1        1 0VP     -0.104500
     25 C2          5.7280   -0.5660   -5.2990 c1        1 0VP     -0.063500
     26 C3          6.5280    0.1200   -4.3840 c1        1 0VP     -0.063500
     27 C4          6.0750    0.3370   -3.0930 c1        1 0VP     -0.117000
     28 C5          4.8200   -0.1290   -2.7080 c1        1 0VP     -0.090000
     29 C6          4.0240   -0.8110   -3.6170 c1        1 0VP     -0.104500
     30 C48         7.9050    0.6180   -4.7990 c3        1 0VP      0.018000
     31 O49         8.8580   -0.3810   -4.5520 oh        1 0VP     -0.330500
     32 C52         6.2700   -0.9020   -6.6840 c3        1 0VP      0.018000
     33 O53         5.3660   -1.7660   -7.3490 oh        1 0VP     -0.330500
     34 C8          0.3250    0.4950    3.8900 c2        1 0VP     -0.125000
     35 C7         -1.2490    0.3470    1.3840 c1        1 0VP     -0.070000
     36 H1         -6.6720    0.0210    1.6300 ho        1 0VP      0.199000
     37 H2         -0.5960   -1.6250    1.2500 ha        1 0VP      0.135500
     38 H3          4.8990    0.7370   -0.8060 h1        1 0VP      0.086500
     39 H4          4.4210   -0.8060   -0.7680 h1        1 0VP      0.086500
     40 H5         -4.4590    1.1880    1.5750 ha        1 0VP      0.142000
     41 H6         -2.7900   -2.5800    1.3000 ha        1 0VP      0.135500
     42 H7         -2.4340    2.8750    2.6580 hc        1 0VP      0.091500
     43 H8         -1.2870    2.9230    1.5440 hc        1 0VP      0.091500
     44 H9          0.4620    0.3950   -0.7410 ha        1 0VP      0.154000
     45 H10         2.9720    0.6350    3.2960 ha        1 0VP      0.133000
     46 H11         4.1010    0.6820    1.2000 ha        1 0VP      0.136000
     47 H12        -3.9990    2.9640    0.6810 hc        1 0VP      0.084500
     48 H13        -2.7290    3.5690   -0.0860 hc        1 0VP      0.084500
     49 H14        -4.0980    5.3120    0.8320 hc        1 0VP      0.072667
     50 H15        -3.8080    4.7240    2.2960 hc        1 0VP      0.072667
     51 H16        -2.6110    5.3520    1.4410 hc        1 0VP      0.072667
     52 H17        -5.6630   -3.3220    2.0270 hc        1 0VP      0.085250
     53 H18        -4.3620   -2.7670    2.7890 hc        1 0VP      0.085250
     54 H19        -5.3540   -2.3790   -0.1800 hc        1 0VP      0.085250
     55 H20        -5.8610   -0.8880   -0.3540 hc        1 0VP      0.085250
     56 H21         0.6650   -0.5290    5.6660 hc        1 0VP      0.074000
     57 H22         1.8170    0.5460    5.3360 hc        1 0VP      0.074000
     58 H23         1.7610   -0.8440    4.5440 hc        1 0VP      0.074000
     59 H24        -7.8740   -1.7060   -0.2960 hc        1 0VP      0.078167
     60 H25        -7.3480   -3.1170    0.2670 hc        1 0VP      0.078167
     61 H26        -7.6270   -1.9060    1.2690 hc        1 0VP      0.078167
     62 H27        -5.8380   -2.8840    4.5070 hc        1 0VP      0.078167
     63 H28        -6.0160   -1.3430    4.0460 hc        1 0VP      0.078167
     64 H29        -7.0830   -2.4560    3.5670 hc        1 0VP      0.078167
     65 H30         3.9240   -1.5060   -5.5490 ha        1 0VP      0.153000
     66 H31         6.6310    0.8140   -2.4570 ha        1 0VP      0.128000
     67 H32         3.1410   -1.1390   -3.3460 ha        1 0VP      0.153000
     68 H33         8.1330    1.4250   -4.2800 h1        1 0VP      0.077000
     69 H34         7.9000    0.8310   -5.7390 h1        1 0VP      0.077000
     70 H35         9.6480   -0.1240   -4.8740 ho        1 0VP      0.201000
     71 H36         7.1370   -1.3420   -6.5970 h1        1 0VP      0.077000
     72 H37         6.3730   -0.0810   -7.2000 h1        1 0VP      0.077000
     73 H38         5.6550   -1.9200   -8.1710 ho        1 0VP      0.201000
     74 H39        -0.5120   -0.0200    3.8170 ha        1 0VP      0.090500
     75 H40         0.1200    1.4130    4.1440 ha        1 0VP      0.090500
@<TRIPOS>BOND
     1    1    4 1   
     2    1    8 1   
     3    2   18 1   
     4    2   36 1   
     5    3   35 1   
     6    3   37 1   
     7    4   28 1   
     8    4   38 1   
     9    4   39 1   
    10    5    6 1   
    11    5    9 1   
    12    6   40 1   
    13    7   10 1   
    14    7   41 1   
    15    8   11 1   
    16    8   15 1   
    17    9   16 1   
    18    9   42 1   
    19    9   43 1   
    20   11   44 1   
    21   12   13 1   
    22   13   14 1   
    23   14   15 1   
    24   14   45 1   
    25   15   46 1   
    26   16   17 1   
    27   16   47 1   
    28   16   48 1   
    29   17   49 1   
    30   17   50 1   
    31   17   51 1   
    32   18   19 1   
    33   18   20 1   
    34   19   23 1   
    35   19   52 1   
    36   19   53 1   
    37   20   22 1   
    38   20   54 1   
    39   20   55 1   
    40   21   34 1   
    41   21   56 1   
    42   21   57 1   
    43   21   58 1   
    44   22   59 1   
    45   22   60 1   
    46   22   61 1   
    47   23   62 1   
    48   23   63 1   
    49   23   64 1   
    50   24   29 1   
    51   24   65 1   
    52   25   26 1   
    53   25   32 1   
    54   26   30 1   
    55   27   28 1   
    56   27   66 1   
    57   29   67 1   
    58   30   31 1   
    59   30   68 1   
    60   30   69 1   
    61   31   70 1   
    62   32   33 1   
    63   32   71 1   
    64   32   72 1   
    65   33   73 1   
    66   34   74 1   
    67   34   75 1   
@<TRIPOS>SUBSTRUCTURE
     1 0VP         1 TEMP              0 ****  ****    0 ROOT
