@<TRIPOS>MOLECULE
0VP
   75    77     1     0     0
SMALL
bcc


@<TRIPOS>ATOM
      1 O1          2.3400    0.5740    0.2830 os        1 0VP     -0.327900
      2 O2         -6.5510   -2.0360   -1.0000 oh        1 0VP     -0.591800
      3 C9         -2.9590   -0.0540    1.5730 ca        1 0VP     -0.115000
      4 C10         3.5830    1.2900    0.3050 c3        1 0VP      0.175700
      5 C11        -3.1580    0.3410   -0.8090 ca        1 0VP     -0.058300
      6 C12        -4.3270   -0.4310   -0.8170 ca        1 0VP     -0.123000
      7 C13        -4.1200   -0.8200    1.5520 ca        1 0VP     -0.129000
      8 C14         1.2040    1.3500    0.4140 ca        1 0VP      0.122100
      9 C15        -2.6850    0.9540   -2.0820 c3        1 0VP     -0.042100
     10 C16        -4.8120   -1.0230    0.3510 ca        1 0VP     -0.104300
     11 C17        -0.0030    0.6330    0.3360 ca        1 0VP     -0.145000
     12 C18        -1.2200    1.3080    0.4620 cp        1 0VP     -0.005000
     13 C19        -1.2360    2.7010    0.6620 ca        1 0VP     -0.096300
     14 C20        -0.0240    3.3930    0.7360 ca        1 0VP     -0.097000
     15 C21         1.1980    2.7350    0.6160 ca        1 0VP     -0.200000
     16 C22        -1.7480    0.0270   -2.8350 c3        1 0VP     -0.076400
     17 C23        -1.2910    0.6450   -4.1300 c3        1 0VP     -0.093100
     18 C24        -6.0680   -1.8660    0.3330 c3        1 0VP      0.198100
     19 C25        -7.1990   -1.1700    1.1040 c3        1 0VP     -0.083400
     20 C26        -5.7570   -3.2420    0.9510 c3        1 0VP     -0.083400
     21 C27        -2.9630    3.5610    2.2310 c3        1 0VP     -0.088100
     22 C28        -6.8840   -4.2290    0.7960 c3        1 0VP     -0.092600
     23 C29        -7.5880    0.1540    0.5020 c3        1 0VP     -0.092600
     24 C1          5.6120   -1.9200    0.3530 ca        1 0VP     -0.105000
     25 C2          6.8240   -1.4840   -0.1870 ca        1 0VP     -0.085300
     26 C3          6.9660   -0.1410   -0.5800 ca        1 0VP     -0.090300
     27 C4          5.8960    0.7420   -0.4260 ca        1 0VP     -0.098000
     28 C5          4.6870    0.3010    0.1220 ca        1 0VP     -0.095300
     29 C6          4.5480   -1.0330    0.5100 ca        1 0VP     -0.103000
     30 O49         8.1990    1.7060   -1.4440 oh        1 0VP     -0.597800
     31 C52         7.9760   -2.4190   -0.3580 c3        1 0VP      0.175700
     32 O53         7.6070   -3.7180    0.0820 oh        1 0VP     -0.595800
     33 C8         -2.5160    3.4530    0.7920 c3        1 0VP     -0.036100
     34 C7         -2.4640    0.5280    0.3980 cp        1 0VP     -0.039000
     35 H1         -5.9010   -2.5760   -1.4650 ho        1 0VP      0.400000
     36 H2         -2.4220    0.0990    2.5210 ha        1 0VP      0.138000
     37 H3          3.5870    2.0520   -0.5200 h1        1 0VP      0.049200
     38 H4          3.6920    1.8080    1.2980 h1        1 0VP      0.049200
     39 H5         -4.8780   -0.5590   -1.7630 ha        1 0VP      0.144000
     40 H6         -4.4950   -1.2620    2.4870 ha        1 0VP      0.132000
     41 H7         -3.5660    1.1990   -2.7330 hc        1 0VP      0.052200
     42 H8         -2.1540    1.9190   -1.8600 hc        1 0VP      0.052200
     43 H9          0.0240   -0.4540    0.1740 ha        1 0VP      0.153000
     44 H10        -0.0340    4.4830    0.8940 ha        1 0VP      0.133000
     45 H11         2.1320    3.3080    0.6800 ha        1 0VP      0.137000
     46 H12        -0.8580   -0.2020   -2.1880 hc        1 0VP      0.044700
     47 H13        -2.2690   -0.9450   -3.0410 hc        1 0VP      0.044700
     48 H14        -0.7500    1.6040   -3.9410 hc        1 0VP      0.033033
     49 H15        -0.6010   -0.0490   -4.6680 hc        1 0VP      0.033033
     50 H16        -2.1630    0.8610   -4.7950 hc        1 0VP      0.033033
     51 H17        -8.0900   -1.8520    1.1080 hc        1 0VP      0.046950
     52 H18        -6.8590   -1.0300    2.1630 hc        1 0VP      0.046950
     53 H19        -4.8350   -3.6490    0.4560 hc        1 0VP      0.046950
     54 H20        -5.5220   -3.1040    2.0380 hc        1 0VP      0.046950
     55 H21        -3.9220    4.1300    2.2920 hc        1 0VP      0.035700
     56 H22        -3.1250    2.5430    2.6650 hc        1 0VP      0.035700
     57 H23        -2.1950    4.0880    2.8450 hc        1 0VP      0.035700
     58 H24        -7.7430   -3.9620    1.4580 hc        1 0VP      0.039367
     59 H25        -7.2500   -4.2480   -0.2600 hc        1 0VP      0.039367
     60 H26        -6.5350   -5.2540    1.0720 hc        1 0VP      0.039367
     61 H27        -6.7200    0.8570    0.4990 hc        1 0VP      0.039367
     62 H28        -7.9280    0.0140   -0.5530 hc        1 0VP      0.039367
     63 H29        -8.4190    0.6140    1.0890 hc        1 0VP      0.039367
     64 H30         5.5010   -2.9730    0.6560 ha        1 0VP      0.156000
     65 H31         6.0120    1.7920   -0.7410 ha        1 0VP      0.153000
     66 H32         3.5920   -1.3820    0.9320 ha        1 0VP      0.150000
     67 H33         9.0990    0.1200   -0.4320 h1        1 0VP      0.030200
     68 H34         8.4740   -0.2540   -2.1110 h1        1 0VP      0.030200
     69 H35         9.0490    1.9390   -1.8360 ho        1 0VP      0.403000
     70 H36         8.2760   -2.4590   -1.4430 h1        1 0VP      0.029700
     71 H37         8.8550   -2.0530    0.2450 h1        1 0VP      0.029700
     72 H38         8.3790   -4.2780   -0.0590 ho        1 0VP      0.403000
     73 H39        -2.3890    4.4840    0.3640 hc        1 0VP      0.049700
     74 H40        -3.3140    2.9390    0.1900 hc        1 0VP      0.049700
     75 C48         8.2640    0.3160   -1.1620 c3        1 0VP      0.176700
@<TRIPOS>BOND
     1    1    4 1   
     2    1    8 1   
     3    2   18 1   
     4    2   35 1   
     5    3    7 ar  
     6    3   34 ar  
     7    3   36 1   
     8    4   28 1   
     9    4   37 1   
    10    4   38 1   
    11    5    6 ar  
    12    5    9 1   
    13    5   34 ar  
    14    6   10 ar  
    15    6   39 1   
    16    7   10 ar  
    17    7   40 1   
    18    8   11 ar  
    19    8   15 ar  
    20    9   16 1   
    21    9   41 1   
    22    9   42 1   
    23   10   18 1   
    24   11   12 ar  
    25   11   43 1   
    26   12   13 ar  
    27   12   34 1   
    28   13   14 ar  
    29   13   33 1   
    30   14   15 ar  
    31   14   44 1   
    32   15   45 1   
    33   16   17 1   
    34   16   46 1   
    35   16   47 1   
    36   17   48 1   
    37   17   49 1   
    38   17   50 1   
    39   18   19 1   
    40   18   20 1   
    41   19   23 1   
    42   19   51 1   
    43   19   52 1   
    44   20   22 1   
    45   20   53 1   
    46   20   54 1   
    47   21   33 1   
    48   21   55 1   
    49   21   56 1   
    50   21   57 1   
    51   22   58 1   
    52   22   59 1   
    53   22   60 1   
    54   23   61 1   
    55   23   62 1   
    56   23   63 1   
    57   24   25 ar  
    58   24   29 ar  
    59   24   64 1   
    60   25   26 ar  
    61   25   31 1   
    62   26   27 ar  
    63   26   75 1   
    64   27   28 ar  
    65   27   65 1   
    66   28   29 ar  
    67   29   66 1   
    68   30   69 1   
    69   30   75 1   
    70   31   32 1   
    71   31   70 1   
    72   31   71 1   
    73   32   72 1   
    74   33   73 1   
    75   33   74 1   
    76   67   75 1   
    77   68   75 1   
@<TRIPOS>SUBSTRUCTURE
     1 0VP         1 TEMP              0 ****  ****    0 ROOT
