@<TRIPOS>MOLECULE
0VP
   75    74     1     0     0
SMALL
bcc


@<TRIPOS>ATOM
      1 O1          0.3790   -0.1200    0.5460 os        1 0VP     -0.223000
      2 O2         -8.7430    1.9540    2.9710 oh        1 0VP     -0.262000
      3 C9         -4.7730   -0.8010    2.8890 c2        1 0VP     -0.031000
      4 C10         1.7140   -0.6290    0.4200 c3        1 0VP      0.065000
      5 C11        -4.2430    1.5920    2.8020 c2        1 0VP     -0.106000
      6 C12        -7.3350   -0.5750    2.9740 c1        1 0VP     -0.130000
      7 C13        -6.0800   -0.6720    2.9320 c1        1 0VP     -0.114000
      8 C14        -0.2520   -0.3950    1.7460 c2        1 0VP      0.077000
      9 C15        -3.3610    2.7790    2.7810 c3        1 0VP     -0.144000
     10 C16        -8.6450   -0.5000    3.0180 c2        1 0VP     -0.077000
     11 C17        -1.6190    0.1060    1.7580 c2        1 0VP     -0.122000
     12 C18        -2.4160   -0.0870    2.8330 c2        1 0VP     -0.020000
     13 C19        -1.9120   -0.7530    4.0440 cx        1 0VP     -0.136000
     14 C20        -0.4800   -1.2790    4.0110 cx        1 0VP     -0.105000
     15 C21         0.2860   -1.0820    2.7830 c2        1 0VP     -0.233000
     16 C22        -3.9180    3.8750    1.8920 c3        1 0VP     -0.156000
     17 C23        -3.0170    5.0830    1.8870 c3        1 0VP     -0.212000
     18 C24        -9.4060    0.7410    3.0300 c2        1 0VP      0.043000
     19 C25       -11.2650   -3.1610    2.5230 c3        1 0VP     -0.217500
     20 C26       -10.7570    0.7550    3.0990 c2        1 0VP     -0.191000
     21 C27        -0.8630   -0.2330    6.3480 c3        1 0VP     -0.186000
     22 C28       -11.5800    1.9740    3.1120 c3        1 0VP     -0.175000
     23 C29       -11.7650   -2.8110    3.8940 c3        1 0VP     -0.217500
     24 C1          5.5140    0.0970   -3.7410 c2        1 0VP     -0.404000
     25 C2          4.8480    0.8670   -4.7760 c2        1 0VP     -0.163000
     26 C3          3.5600    1.5270   -4.4180 c3        1 0VP     -0.153000
     27 C4          1.6360    0.4740   -1.8570 c1        1 0VP      0.177000
     28 C5          2.2200   -0.2190   -0.9120 c2        1 0VP     -0.489000
     29 C6          4.9420   -0.4380   -2.6830 c1        1 0VP      0.159000
     30 O49         1.1730    1.5710   -4.8310 oh        1 0VP     -0.336000
     31 C52         5.3520    1.0190   -6.0210 c2        1 0VP      0.011000
     32 O53         6.4980    0.4700   -6.5160 oh        1 0VP     -0.249000
     33 C8         -0.8350   -0.0850    4.8680 cx        1 0VP     -0.138000
     34 C7         -3.8310    0.3070    2.8360 c2        1 0VP     -0.064000
     35 H1         -7.7940    1.7740    2.8980 ho        1 0VP      0.218000
     36 H2         -4.3320   -1.8160    2.8860 ha        1 0VP      0.151000
     37 H3          1.6950   -1.7490    0.5040 h1        1 0VP      0.091000
     38 H4          2.3570   -0.1950    1.2330 h1        1 0VP      0.091000
     39 H5         -5.3260    1.8120    2.8100 ha        1 0VP      0.126000
     40 H6         -9.2510   -1.4280    3.0500 ha        1 0VP      0.158000
     41 H7         -3.2650    3.1680    3.8330 hc        1 0VP      0.098000
     42 H8         -2.3280    2.5040    2.4360 hc        1 0VP      0.098000
     43 H9         -1.9740    0.6050    0.8430 ha        1 0VP      0.156000
     44 H10         1.2880   -1.5290    2.7490 ha        1 0VP      0.137000
     45 H11        -0.2570   -2.2330    4.5280 hc        1 0VP      0.126000
     46 H12        -4.0320    3.4850    0.8460 hc        1 0VP      0.082500
     47 H13        -4.9400    4.1670    2.2500 hc        1 0VP      0.082500
     48 H14        -2.0010    4.8170    1.5070 hc        1 0VP      0.074333
     49 H15        -2.9080    5.4980    2.9180 hc        1 0VP      0.074333
     50 H16        -3.4430    5.8790    1.2300 hc        1 0VP      0.074333
     51 H17       -10.2810   -3.6860    2.5830 hc        1 0VP      0.072833
     52 H18       -11.9880   -3.8320    1.9990 hc        1 0VP      0.072833
     53 H19       -11.1340   -2.2390    1.9040 hc        1 0VP      0.072833
     54 H20       -11.2990   -0.2050    3.1530 ha        1 0VP      0.130000
     55 H21        -1.5480    0.5280    6.7970 hc        1 0VP      0.078667
     56 H22         0.1620   -0.0800    6.7680 hc        1 0VP      0.078667
     57 H23        -1.2190   -1.2480    6.6500 hc        1 0VP      0.078667
     58 H24       -12.1670    2.0290    4.0640 hc        1 0VP      0.084667
     59 H25       -10.9540    2.8970    3.0290 hc        1 0VP      0.084667
     60 H26       -12.3040    1.9570    2.2580 hc        1 0VP      0.084667
     61 H27       -12.7300   -2.2520    3.8330 hc        1 0VP      0.072833
     62 H28       -11.0250   -2.1700    4.4340 hc        1 0VP      0.072833
     63 H29       -11.9340   -3.7340    4.5010 hc        1 0VP      0.072833
     64 H30         6.6140   -0.0240   -3.8390 ha        1 0VP      0.181000
     65 H31         3.6170    2.6250   -4.6480 hc        1 0VP      0.096500
     66 H32         3.2640   -0.5700   -1.1180 ha        1 0VP      0.232000
     67 H33         3.3630    1.4370   -3.3150 hc        1 0VP      0.096500
     68 H34         2.4910    1.0960   -6.2820 h1        1 0VP      0.080500
     69 H35         1.0170    1.4040   -3.8880 ho        1 0VP      0.224000
     70 H36         2.3090   -0.1740   -4.9760 h1        1 0VP      0.080500
     71 H37         4.8690    1.6320   -6.8040 h4        1 0VP      0.177000
     72 H38         6.8950   -0.1130   -5.8530 ho        1 0VP      0.213000
     73 H39        -2.6830   -1.3380    4.5850 hc        1 0VP      0.132000
     74 H40        -0.4760    0.9100    4.5350 hc        1 0VP      0.128000
     75 C48         2.3800    0.9280   -5.1770 c3        1 0VP     -0.013000
@<TRIPOS>BOND
     1    1    4 1   
     2    1    8 1   
     3    2   18 1   
     4    2   35 1   
     5    3    7 1   
     6    3   34 1   
     7    3   36 1   
     8    4   28 1   
     9    4   37 1   
    10    4   38 1   
    11    5    9 1   
    12    5   34 1   
    13    5   39 1   
    14    6    7 1   
    15    6   10 1   
    16    8   11 1   
    17    8   15 1   
    18    9   16 1   
    19    9   41 1   
    20    9   42 1   
    21   10   18 1   
    22   10   40 1   
    23   11   12 1   
    24   11   43 1   
    25   12   13 1   
    26   12   34 1   
    27   13   14 1   
    28   13   33 1   
    29   13   73 1   
    30   14   15 1   
    31   14   33 1   
    32   14   45 1   
    33   15   44 1   
    34   16   17 1   
    35   16   46 1   
    36   16   47 1   
    37   17   48 1   
    38   17   49 1   
    39   17   50 1   
    40   18   20 1   
    41   19   23 1   
    42   19   51 1   
    43   19   52 1   
    44   19   53 1   
    45   20   22 1   
    46   20   54 1   
    47   21   33 1   
    48   21   55 1   
    49   21   56 1   
    50   21   57 1   
    51   22   58 1   
    52   22   59 1   
    53   22   60 1   
    54   23   61 1   
    55   23   62 1   
    56   23   63 1   
    57   24   25 1   
    58   24   29 1   
    59   24   64 1   
    60   25   26 1   
    61   25   31 1   
    62   26   65 1   
    63   26   67 1   
    64   26   75 1   
    65   27   28 1   
    66   28   66 1   
    67   30   69 1   
    68   30   75 1   
    69   31   32 1   
    70   31   71 1   
    71   32   72 1   
    72   33   74 1   
    73   68   75 1   
    74   70   75 1   
@<TRIPOS>SUBSTRUCTURE
     1 0VP         1 TEMP              0 ****  ****    0 ROOT
