@<TRIPOS>MOLECULE
0VQ
   60    53     1     0     0
SMALL
bcc


@<TRIPOS>ATOM
      1 C10         2.2480    2.0110   -1.1660 c3        1 0VQ     -0.120500
      2 C1          5.8500    2.1660    0.0280 c1        1 0VQ     -0.133000
      3 C2          6.1400    0.8250    0.2350 c1        1 0VQ     -0.065500
      4 C3          5.1550   -0.1350    0.0440 c1        1 0VQ     -0.065500
      5 C4          3.8790    0.2480   -0.3550 c1        1 0VQ     -0.118500
      6 C6          4.5750    2.5490   -0.3710 c1        1 0VQ     -0.133000
      7 C5          3.5900    1.5890   -0.5620 c1        1 0VQ     -0.074000
      8 C26        -3.5490    0.7520    0.3980 c1        1 0VQ     -0.002000
      9 C27        -4.0030    1.2050    1.7750 c3        1 0VQ     -0.139000
     10 C28        -3.2510    0.4290    2.8340 c3        1 0VQ     -0.208000
     11 C34        -4.1010   -0.3570   -0.1700 c1        1 0VQ     -0.196000
     12 C35        -5.1740   -1.1430    0.5780 c1        1 0VQ     -0.133000
     13 C37        -5.3660   -2.4650    0.3040 c1        1 0VQ     -0.133000
     14 C38        -4.5140   -3.1540   -0.7430 c2        1 0VQ      0.068000
     15 O39        -4.3670   -2.3090   -1.8570 oh        1 0VQ     -0.284000
     16 C40        -3.1550   -3.4620   -0.1630 c3        1 0VQ      0.412500
     17 F41        -2.2450   -2.6430   -0.7000 f         1 0VQ     -0.150000
     18 F42        -3.1860   -3.2860    1.1630 f         1 0VQ     -0.150000
     19 F43        -2.8300   -4.7310   -0.4370 f         1 0VQ     -0.150000
     20 C44        -5.1860   -4.4460   -1.1730 c3        1 0VQ      0.412500
     21 F45        -4.4890   -5.4900   -0.7010 f         1 0VQ     -0.150000
     22 F46        -6.4310   -4.4840   -0.6860 f         1 0VQ     -0.150000
     23 F47        -5.2270   -4.5040   -2.5110 f         1 0VQ     -0.150000
     24 C14        -0.1760    2.2060   -0.6030 c1        1 0VQ     -0.074000
     25 C17        -1.1620    1.5260    0.1040 c1        1 0VQ     -0.108000
     26 C18        -2.4750    1.5390   -0.3500 c1        1 0VQ     -0.062000
     27 C19        -2.8030    2.2310   -1.5080 c2        1 0VQ     -0.116000
     28 C20        -1.8170    2.9100   -2.2130 c1        1 0VQ     -0.129000
     29 C21        -0.5050    2.8970   -1.7600 c1        1 0VQ     -0.118500
     30 C11         1.2490    2.2830   -0.0460 c3        1 0VQ     -0.120500
     31 C48         5.4670   -1.5990    0.2840 c3        1 0VQ      0.017500
     32 O49         5.1880   -1.9250    1.6270 oh        1 0VQ     -0.332500
     33 C52         7.5140    0.4130    0.7400 c3        1 0VQ      0.017500
     34 O53         8.1770    1.5400    1.2700 oh        1 0VQ     -0.332500
     35 H1          2.3700    2.8230   -1.6980 hc        1 0VQ      0.093250
     36 H2          1.9080    1.2950   -1.7380 hc        1 0VQ      0.093250
     37 H3          6.5440    2.8420    0.1630 ha        1 0VQ      0.146500
     38 H4          3.1870   -0.4270   -0.4890 ha        1 0VQ      0.133500
     39 H5          4.3720    3.4930   -0.5170 ha        1 0VQ      0.146500
     40 H6         -4.9620    1.0440    1.8720 hc        1 0VQ      0.092000
     41 H7         -3.8200    2.1630    1.8800 hc        1 0VQ      0.092000
     42 H8         -3.8490   -0.2310    3.2410 hc        1 0VQ      0.080000
     43 H9         -2.4890   -0.0300    2.4240 hc        1 0VQ      0.080000
     44 H10        -2.9280    1.0470    3.5250 hc        1 0VQ      0.080000
     45 H11        -3.8100   -0.6480   -1.0540 ha        1 0VQ      0.154000
     46 H12        -5.7240   -0.6990    1.2530 ha        1 0VQ      0.146500
     47 H13        -6.0530   -2.9680    0.7830 ha        1 0VQ      0.146500
     48 H14        -5.1650   -2.1280   -2.1990 ho        1 0VQ      0.242000
     49 H15        -0.9330    1.0410    0.9160 ha        1 0VQ      0.141000
     50 H16        -3.7260    2.2400   -1.8270 ha        1 0VQ      0.133000
     51 H17        -2.0480    3.3970   -3.0280 ha        1 0VQ      0.135000
     52 H18         0.1870    3.3750   -2.2560 ha        1 0VQ      0.133500
     53 H19         1.4070    3.1750    0.3220 hc        1 0VQ      0.093250
     54 H20         1.3600    1.6150    0.6600 hc        1 0VQ      0.093250
     55 H21         6.4140   -1.7660    0.0980 h1        1 0VQ      0.078000
     56 H22         4.9160   -2.1520   -0.3080 h1        1 0VQ      0.078000
     57 H23         5.3510   -2.7880    1.7630 ho        1 0VQ      0.201000
     58 H24         7.4150   -0.2670    1.4390 h1        1 0VQ      0.078000
     59 H25         8.0370    0.0450   -0.0020 h1        1 0VQ      0.078000
     60 H26         9.0170    1.3210    1.4740 ho        1 0VQ      0.201000
@<TRIPOS>BOND
     1    1    7 1   
     2    1   30 1   
     3    1   35 1   
     4    1   36 1   
     5    2    6 1   
     6    2   37 1   
     7    3    4 1   
     8    3   33 1   
     9    4   31 1   
    10    5    7 1   
    11    5   38 1   
    12    6   39 1   
    13    8    9 1   
    14    8   11 1   
    15    9   10 1   
    16    9   40 1   
    17    9   41 1   
    18   10   42 1   
    19   10   43 1   
    20   10   44 1   
    21   11   45 1   
    22   12   13 1   
    23   12   46 1   
    24   13   47 1   
    25   14   15 1   
    26   14   16 1   
    27   14   20 1   
    28   15   48 1   
    29   16   17 1   
    30   16   18 1   
    31   16   19 1   
    32   20   21 1   
    33   20   22 1   
    34   20   23 1   
    35   24   29 1   
    36   24   30 1   
    37   25   26 1   
    38   25   49 1   
    39   26   27 1   
    40   27   28 1   
    41   27   50 1   
    42   28   51 1   
    43   29   52 1   
    44   30   53 1   
    45   30   54 1   
    46   31   32 1   
    47   31   55 1   
    48   31   56 1   
    49   32   57 1   
    50   33   34 1   
    51   33   58 1   
    52   33   59 1   
    53   34   60 1   
@<TRIPOS>SUBSTRUCTURE
     1 0VQ         1 TEMP              0 ****  ****    0 ROOT
