@<TRIPOS>MOLECULE
0VQ
   60    61     1     0     0
SMALL
bcc


@<TRIPOS>ATOM
      1 C10        -0.1880   -0.2670   -0.1300 c3        1 0VQ     -0.033100
      2 C1          3.5310   -0.3790    0.5790 ca        1 0VQ     -0.101000
      3 C2          3.5570   -0.3150    1.9740 ca        1 0VQ     -0.091300
      4 C3          2.3460   -0.2370    2.6850 ca        1 0VQ     -0.087300
      5 C4          1.1350   -0.2250    1.9910 ca        1 0VQ     -0.102000
      6 C6          2.3190   -0.3680   -0.1080 ca        1 0VQ     -0.128000
      7 C5          1.1120   -0.2910    0.5930 ca        1 0VQ     -0.082300
      8 C26        -5.8940   -1.3030    0.3040 ce        1 0VQ     -0.011400
      9 C27        -7.0070   -2.2450   -0.0170 c3        1 0VQ     -0.053200
     10 C28        -7.1390   -3.3390    1.0170 c3        1 0VQ     -0.091100
     11 C34        -5.9520   -0.3890    1.2970 cf        1 0VQ     -0.162000
     12 C35        -7.0930   -0.1930    2.1590 cf        1 0VQ     -0.016000
     13 C37        -7.1230    0.4380    3.3410 c2        1 0VQ     -0.235200
     14 C38        -6.0140    1.0710    4.1010 c3        1 0VQ      0.162000
     15 O39        -4.7530    0.8000    3.5530 oh        1 0VQ     -0.546800
     16 C40        -6.2220    2.6510    4.1300 c3        1 0VQ      0.596900
     17 F41        -5.2020    3.2980    4.7790 f         1 0VQ     -0.222133
     18 F42        -6.2550    3.2150    2.8850 f         1 0VQ     -0.222133
     19 F43        -7.3710    3.0590    4.7470 f         1 0VQ     -0.222133
     20 C44        -6.0340    0.5250    5.5980 c3        1 0VQ      0.596900
     21 F45        -7.1460    0.8730    6.3140 f         1 0VQ     -0.222133
     22 F46        -5.9610   -0.8380    5.6780 f         1 0VQ     -0.222133
     23 F47        -4.9650    0.9770    6.3300 f         1 0VQ     -0.222133
     24 C14        -2.2570   -1.5420   -0.6580 ca        1 0VQ     -0.079300
     25 C17        -3.4250   -1.4450    0.1050 ca        1 0VQ     -0.111000
     26 C18        -4.6820   -1.4090   -0.5150 ca        1 0VQ     -0.064800
     27 C19        -4.7600   -1.4630   -1.9130 ca        1 0VQ     -0.118000
     28 C20        -3.5970   -1.5560   -2.6740 ca        1 0VQ     -0.130000
     29 C21        -2.3500   -1.5990   -2.0540 ca        1 0VQ     -0.122000
     30 C11        -0.9260   -1.5900    0.0070 c3        1 0VQ     -0.036100
     31 C48         2.3800   -0.1670    4.1770 c3        1 0VQ      0.176700
     32 O49         1.0560   -0.0810    4.6840 oh        1 0VQ     -0.597800
     33 C52         4.8460   -0.3240    2.7270 c3        1 0VQ      0.176700
     34 O53         5.9310   -0.4250    1.8160 oh        1 0VQ     -0.596800
     35 H1         -0.8270    0.5590    0.2830 hc        1 0VQ      0.052700
     36 H2         -0.0240   -0.0480   -1.2190 hc        1 0VQ      0.052700
     37 H3          4.4810   -0.4400    0.0230 ha        1 0VQ      0.154000
     38 H4          0.1890   -0.1620    2.5530 ha        1 0VQ      0.153000
     39 H5          2.3150   -0.4170   -1.2070 ha        1 0VQ      0.132000
     40 H6         -6.8350   -2.7150   -1.0220 hc        1 0VQ      0.050700
     41 H7         -7.9730   -1.6730   -0.0840 hc        1 0VQ      0.050700
     42 H8         -7.3320   -2.9040    2.0280 hc        1 0VQ      0.039700
     43 H9         -7.9880   -4.0140    0.7510 hc        1 0VQ      0.039700
     44 H10        -6.2050   -3.9470    1.0700 hc        1 0VQ      0.039700
     45 H11        -5.0820    0.2700    1.4760 ha        1 0VQ      0.156000
     46 H12        -8.0520   -0.6070    1.7840 ha        1 0VQ      0.134000
     47 H13        -8.0820    0.5350    3.8850 ha        1 0VQ      0.152000
     48 H14        -4.0880    1.2420    4.1080 ho        1 0VQ      0.436000
     49 H15        -3.3600   -1.3990    1.2030 ha        1 0VQ      0.142000
     50 H16        -5.7400   -1.4210   -2.4120 ha        1 0VQ      0.133000
     51 H17        -3.6650   -1.5950   -3.7720 ha        1 0VQ      0.133000
     52 H18        -1.4350   -1.6760   -2.6580 ha        1 0VQ      0.133000
     53 H19        -0.3090   -2.4090   -0.4500 hc        1 0VQ      0.055200
     54 H20        -1.0470   -1.8330    1.0970 hc        1 0VQ      0.055200
     55 H21         2.9670    0.7370    4.5020 h1        1 0VQ      0.029700
     56 H22         2.8810   -1.0880    4.5880 h1        1 0VQ      0.029700
     57 H23         1.1390   -0.0460    5.6440 ho        1 0VQ      0.403000
     58 H24         4.8680   -1.2000    3.4350 h1        1 0VQ      0.029200
     59 H25         4.9440    0.6250    3.3260 h1        1 0VQ      0.029200
     60 H26         6.7330   -0.4190    2.3520 ho        1 0VQ      0.403000
@<TRIPOS>BOND
     1    1    7 1   
     2    1   30 1   
     3    1   35 1   
     4    1   36 1   
     5    2    3 ar  
     6    2    6 ar  
     7    2   37 1   
     8    3    4 ar  
     9    3   33 1   
    10    4    5 ar  
    11    4   31 1   
    12    5    7 ar  
    13    5   38 1   
    14    6    7 ar  
    15    6   39 1   
    16    8    9 1   
    17    8   11 2   
    18    8   26 1   
    19    9   10 1   
    20    9   40 1   
    21    9   41 1   
    22   10   42 1   
    23   10   43 1   
    24   10   44 1   
    25   11   12 1   
    26   11   45 1   
    27   12   13 2   
    28   12   46 1   
    29   13   14 1   
    30   13   47 1   
    31   14   15 1   
    32   14   16 1   
    33   14   20 1   
    34   15   48 1   
    35   16   17 1   
    36   16   18 1   
    37   16   19 1   
    38   20   21 1   
    39   20   22 1   
    40   20   23 1   
    41   24   25 ar  
    42   24   29 ar  
    43   24   30 1   
    44   25   26 ar  
    45   25   49 1   
    46   26   27 ar  
    47   27   28 ar  
    48   27   50 1   
    49   28   29 ar  
    50   28   51 1   
    51   29   52 1   
    52   30   53 1   
    53   30   54 1   
    54   31   32 1   
    55   31   55 1   
    56   31   56 1   
    57   32   57 1   
    58   33   34 1   
    59   33   58 1   
    60   33   59 1   
    61   34   60 1   
@<TRIPOS>SUBSTRUCTURE
     1 0VQ         1 TEMP              0 ****  ****    0 ROOT
