@<TRIPOS>MOLECULE
0VQ
   60    61     1     0     0
SMALL
bcc


@<TRIPOS>ATOM
      1 C10        -0.1840   -0.3080   -0.1390 c3        1 0VQ     -0.033100
      2 C1          3.5330   -0.4100    0.5860 ca        1 0VQ     -0.101000
      3 C2          3.5540   -0.3050    1.9790 ca        1 0VQ     -0.091300
      4 C3          2.3410   -0.2030    2.6830 ca        1 0VQ     -0.087300
      5 C4          1.1330   -0.2080    1.9850 ca        1 0VQ     -0.102000
      6 C6          2.3230   -0.4150   -0.1050 ca        1 0VQ     -0.128000
      7 C5          1.1140   -0.3150    0.5890 ca        1 0VQ     -0.082300
      8 C26        -5.8920   -1.3340    0.3150 ce        1 0VQ     -0.011400
      9 C27        -7.0050   -2.2820    0.0140 c3        1 0VQ     -0.053200
     10 C28        -7.1390   -3.3530    1.0720 c3        1 0VQ     -0.091100
     11 C34        -5.9510   -0.3990    1.2890 cf        1 0VQ     -0.161000
     12 C35        -7.0930   -0.1830    2.1450 cf        1 0VQ     -0.016000
     13 C37        -7.1230    0.4690    3.3150 c2        1 0VQ     -0.235200
     14 C38        -6.0130    1.1150    4.0640 c3        1 0VQ      0.162000
     15 O39        -4.7520    0.8320    3.5220 oh        1 0VQ     -0.546800
     16 C40        -6.2200    2.6950    4.0640 c3        1 0VQ      0.596900
     17 F41        -5.1980    3.3520    4.7020 f         1 0VQ     -0.222133
     18 F42        -6.2500    3.2370    2.8090 f         1 0VQ     -0.222133
     19 F43        -7.3680    3.1170    4.6730 f         1 0VQ     -0.222133
     20 C44        -6.0350    0.5960    5.5710 c3        1 0VQ      0.596900
     21 F45        -7.1470    0.9580    6.2800 f         1 0VQ     -0.222133
     22 F46        -5.9640   -0.7650    5.6760 f         1 0VQ     -0.222133
     23 F47        -4.9660    1.0600    6.2950 f         1 0VQ     -0.222133
     24 C14        -2.2540   -1.5930   -0.6370 ca        1 0VQ     -0.079300
     25 C17        -3.4220   -1.4790    0.1220 ca        1 0VQ     -0.111000
     26 C18        -4.6790   -1.4580   -0.4990 ca        1 0VQ     -0.064800
     27 C19        -4.7560   -1.5430   -1.8960 ca        1 0VQ     -0.118000
     28 C20        -3.5920   -1.6520   -2.6540 ca        1 0VQ     -0.130000
     29 C21        -2.3460   -1.6810   -2.0310 ca        1 0VQ     -0.122000
     30 C11        -0.9240   -1.6260    0.0310 c3        1 0VQ     -0.036100
     31 C48         2.3700   -0.0900    4.1720 c3        1 0VQ      0.176700
     32 O49         1.0450    0.0140    4.6720 oh        1 0VQ     -0.597800
     33 C52         4.8410   -0.2960    2.7360 c3        1 0VQ      0.176700
     34 O53         5.9290   -0.4260    1.8320 oh        1 0VQ     -0.596800
     35 H1         -0.0160   -0.1170   -1.2320 hc        1 0VQ      0.052700
     36 H2         -0.8240    0.5290    0.2510 hc        1 0VQ      0.052700
     37 H3          4.4840   -0.4890    0.0360 ha        1 0VQ      0.154000
     38 H4          0.1850   -0.1270    2.5410 ha        1 0VQ      0.153000
     39 H5          2.3220   -0.4960   -1.2020 ha        1 0VQ      0.132000
     40 H6         -7.9700   -1.7120   -0.0670 hc        1 0VQ      0.050700
     41 H7         -6.8320   -2.7740   -0.9810 hc        1 0VQ      0.050700
     42 H8         -6.2050   -3.9610    1.1390 hc        1 0VQ      0.039700
     43 H9         -7.9870   -4.0330    0.8190 hc        1 0VQ      0.039700
     44 H10        -7.3330   -2.8950    2.0730 hc        1 0VQ      0.039700
     45 H11        -5.0810    0.2640    1.4540 ha        1 0VQ      0.156000
     46 H12        -8.0520   -0.6030    1.7760 ha        1 0VQ      0.134000
     47 H13        -8.0820    0.5790    3.8560 ha        1 0VQ      0.152000
     48 H14        -4.0870    1.2830    4.0700 ho        1 0VQ      0.436000
     49 H15        -3.3590   -1.4100    1.2190 ha        1 0VQ      0.142000
     50 H16        -5.7350   -1.5110   -2.3970 ha        1 0VQ      0.133000
     51 H17        -3.6580   -1.7160   -3.7500 ha        1 0VQ      0.133000
     52 H18        -1.4290   -1.7720   -2.6330 ha        1 0VQ      0.133000
     53 H19        -1.0460   -1.8410    1.1270 hc        1 0VQ      0.055200
     54 H20        -0.3070   -2.4570   -0.4050 hc        1 0VQ      0.055200
     55 H21         2.9580    0.8220    4.4730 h1        1 0VQ      0.029700
     56 H22         2.8680   -1.0000    4.6120 h1        1 0VQ      0.029700
     57 H23         1.1240    0.0770    5.6310 ho        1 0VQ      0.403000
     58 H24         4.8570   -1.1510    3.4690 h1        1 0VQ      0.029200
     59 H25         4.9390    0.6690    3.3080 h1        1 0VQ      0.029200
     60 H26         6.7280   -0.4070    2.3700 ho        1 0VQ      0.403000
@<TRIPOS>BOND
     1    1    7 1   
     2    1   30 1   
     3    1   35 1   
     4    1   36 1   
     5    2    3 ar  
     6    2    6 ar  
     7    2   37 1   
     8    3    4 ar  
     9    3   33 1   
    10    4    5 ar  
    11    4   31 1   
    12    5    7 ar  
    13    5   38 1   
    14    6    7 ar  
    15    6   39 1   
    16    8    9 1   
    17    8   11 2   
    18    8   26 1   
    19    9   10 1   
    20    9   40 1   
    21    9   41 1   
    22   10   42 1   
    23   10   43 1   
    24   10   44 1   
    25   11   12 1   
    26   11   45 1   
    27   12   13 2   
    28   12   46 1   
    29   13   14 1   
    30   13   47 1   
    31   14   15 1   
    32   14   16 1   
    33   14   20 1   
    34   15   48 1   
    35   16   17 1   
    36   16   18 1   
    37   16   19 1   
    38   20   21 1   
    39   20   22 1   
    40   20   23 1   
    41   24   25 ar  
    42   24   29 ar  
    43   24   30 1   
    44   25   26 ar  
    45   25   49 1   
    46   26   27 ar  
    47   27   28 ar  
    48   27   50 1   
    49   28   29 ar  
    50   28   51 1   
    51   29   52 1   
    52   30   53 1   
    53   30   54 1   
    54   31   32 1   
    55   31   55 1   
    56   31   56 1   
    57   32   57 1   
    58   33   34 1   
    59   33   58 1   
    60   33   59 1   
    61   34   60 1   
@<TRIPOS>SUBSTRUCTURE
     1 0VQ         1 TEMP              0 ****  ****    0 ROOT
