@<TRIPOS>MOLECULE
0VQ
   60    61     1     0     0
SMALL
bcc


@<TRIPOS>ATOM
      1 C10        -0.1890   -0.2950   -0.1410 c3        1 0VQ     -0.033100
      2 C1          3.5310   -0.3970    0.5700 ca        1 0VQ     -0.101000
      3 C2          3.5570   -0.3020    1.9640 ca        1 0VQ     -0.091300
      4 C3          2.3460   -0.2060    2.6730 ca        1 0VQ     -0.087300
      5 C4          1.1350   -0.2080    1.9790 ca        1 0VQ     -0.102000
      6 C6          2.3180   -0.3990   -0.1160 ca        1 0VQ     -0.128000
      7 C5          1.1120   -0.3050    0.5830 ca        1 0VQ     -0.082300
      8 C26        -5.8950   -1.3300    0.3200 ce        1 0VQ     -0.011400
      9 C27        -7.0070   -2.2780    0.0160 c3        1 0VQ     -0.053200
     10 C28        -7.1370   -3.3550    1.0670 c3        1 0VQ     -0.091100
     11 C34        -5.9530   -0.4010    1.2990 cf        1 0VQ     -0.162000
     12 C35        -7.0930   -0.1920    2.1590 cf        1 0VQ     -0.016000
     13 C37        -7.1220    0.4550    3.3320 c2        1 0VQ     -0.235200
     14 C38        -6.0120    1.1000    4.0810 c3        1 0VQ      0.162000
     15 O39        -4.7510    0.8230    3.5350 oh        1 0VQ     -0.546800
     16 C40        -6.2220    2.6800    4.0880 c3        1 0VQ      0.596900
     17 F41        -5.2010    3.3370    4.7270 f         1 0VQ     -0.222133
     18 F42        -6.2570    3.2270    2.8360 f         1 0VQ     -0.222133
     19 F43        -7.3700    3.0960    4.7020 f         1 0VQ     -0.222133
     20 C44        -6.0300    0.5750    5.5860 c3        1 0VQ      0.596900
     21 F45        -7.1410    0.9310    6.2990 f         1 0VQ     -0.222133
     22 F46        -5.9560   -0.7870    5.6850 f         1 0VQ     -0.222133
     23 F47        -4.9600    1.0380    6.3100 f         1 0VQ     -0.222133
     24 C14        -2.2590   -1.5790   -0.6410 ca        1 0VQ     -0.079300
     25 C17        -3.4260   -1.4710    0.1210 ca        1 0VQ     -0.111000
     26 C18        -4.6830   -1.4480   -0.4980 ca        1 0VQ     -0.064800
     27 C19        -4.7630   -1.5250   -1.8950 ca        1 0VQ     -0.118000
     28 C20        -3.6010   -1.6280   -2.6560 ca        1 0VQ     -0.130000
     29 C21        -2.3530   -1.6590   -2.0360 ca        1 0VQ     -0.122000
     30 C11        -0.9270   -1.6150    0.0240 c3        1 0VQ     -0.036100
     31 C48         2.3800   -0.1040    4.1630 c3        1 0VQ      0.176700
     32 O49         1.0570   -0.0050    4.6680 oh        1 0VQ     -0.597800
     33 C52         4.8460   -0.2960    2.7160 c3        1 0VQ      0.176700
     34 O53         5.9310   -0.4180    1.8070 oh        1 0VQ     -0.596800
     35 H1         -0.8280    0.5400    0.2560 hc        1 0VQ      0.052700
     36 H2         -0.0250   -0.0970   -1.2340 hc        1 0VQ      0.052700
     37 H3          4.4800   -0.4700    0.0160 ha        1 0VQ      0.154000
     38 H4          0.1890   -0.1320    2.5390 ha        1 0VQ      0.153000
     39 H5          2.3140   -0.4720   -1.2140 ha        1 0VQ      0.132000
     40 H6         -6.8360   -2.7640   -0.9830 hc        1 0VQ      0.050700
     41 H7         -7.9730   -1.7090   -0.0600 hc        1 0VQ      0.050700
     42 H8         -7.3300   -2.9040    2.0710 hc        1 0VQ      0.039700
     43 H9         -7.9850   -4.0350    0.8120 hc        1 0VQ      0.039700
     44 H10        -6.2020   -3.9620    1.1280 hc        1 0VQ      0.039700
     45 H11        -5.0840    0.2620    1.4660 ha        1 0VQ      0.156000
     46 H12        -8.0530   -0.6120    1.7910 ha        1 0VQ      0.134000
     47 H13        -8.0810    0.5610    3.8750 ha        1 0VQ      0.152000
     48 H14        -4.0870    1.2730    4.0840 ho        1 0VQ      0.436000
     49 H15        -3.3600   -1.4080    1.2190 ha        1 0VQ      0.142000
     50 H16        -5.7430   -1.4910   -2.3940 ha        1 0VQ      0.133000
     51 H17        -3.6690   -1.6850   -3.7520 ha        1 0VQ      0.133000
     52 H18        -1.4380   -1.7450   -2.6400 ha        1 0VQ      0.133000
     53 H19        -0.3110   -2.4430   -0.4180 hc        1 0VQ      0.055200
     54 H20        -1.0460   -1.8360    1.1180 hc        1 0VQ      0.055200
     55 H21         2.9680    0.8070    4.4680 h1        1 0VQ      0.029700
     56 H22         2.8810   -1.0160    4.5950 h1        1 0VQ      0.029700
     57 H23         1.1390    0.0510    5.6270 ho        1 0VQ      0.403000
     58 H24         4.8670   -1.1570    3.4430 h1        1 0VQ      0.029200
     59 H25         4.9450    0.6650    3.2950 h1        1 0VQ      0.029200
     60 H26         6.7320   -0.4020    2.3430 ho        1 0VQ      0.403000
@<TRIPOS>BOND
     1    1    7 1   
     2    1   30 1   
     3    1   35 1   
     4    1   36 1   
     5    2    3 ar  
     6    2    6 ar  
     7    2   37 1   
     8    3    4 ar  
     9    3   33 1   
    10    4    5 ar  
    11    4   31 1   
    12    5    7 ar  
    13    5   38 1   
    14    6    7 ar  
    15    6   39 1   
    16    8    9 1   
    17    8   11 2   
    18    8   26 1   
    19    9   10 1   
    20    9   40 1   
    21    9   41 1   
    22   10   42 1   
    23   10   43 1   
    24   10   44 1   
    25   11   12 1   
    26   11   45 1   
    27   12   13 2   
    28   12   46 1   
    29   13   14 1   
    30   13   47 1   
    31   14   15 1   
    32   14   16 1   
    33   14   20 1   
    34   15   48 1   
    35   16   17 1   
    36   16   18 1   
    37   16   19 1   
    38   20   21 1   
    39   20   22 1   
    40   20   23 1   
    41   24   25 ar  
    42   24   29 ar  
    43   24   30 1   
    44   25   26 ar  
    45   25   49 1   
    46   26   27 ar  
    47   27   28 ar  
    48   27   50 1   
    49   28   29 ar  
    50   28   51 1   
    51   29   52 1   
    52   30   53 1   
    53   30   54 1   
    54   31   32 1   
    55   31   55 1   
    56   31   56 1   
    57   32   57 1   
    58   33   34 1   
    59   33   58 1   
    60   33   59 1   
    61   34   60 1   
@<TRIPOS>SUBSTRUCTURE
     1 0VQ         1 TEMP              0 ****  ****    0 ROOT
