@<TRIPOS>MOLECULE
0VQ
   60    61     1     0     0
SMALL
bcc


@<TRIPOS>ATOM
      1 C10        -4.0340    1.2310   -0.9090 c3        1 0VQ     -0.032100
      2 C1         -7.5300   -0.2250   -0.8190 ca        1 0VQ     -0.101000
      3 C2         -7.2870   -1.5180   -0.3520 ca        1 0VQ     -0.091300
      4 C3         -5.9690   -1.9140   -0.0640 ca        1 0VQ     -0.086300
      5 C4         -4.9200   -1.0120   -0.2460 ca        1 0VQ     -0.101000
      6 C6         -6.4780    0.6720   -0.9980 ca        1 0VQ     -0.128000
      7 C5         -5.1650    0.2850   -0.7120 ca        1 0VQ     -0.083300
      8 C26         1.4150    2.6490    0.6210 ce        1 0VQ     -0.000400
      9 C27         2.2470    3.5270    1.4950 c3        1 0VQ     -0.054200
     10 C28         2.3100    3.0120    2.9140 c3        1 0VQ     -0.092100
     11 C34         1.8510    1.4790    0.1060 cf        1 0VQ     -0.168000
     12 C35         3.1660    0.9210    0.3230 cf        1 0VQ     -0.042000
     13 C37         3.5340   -0.2700   -0.1750 c2        1 0VQ     -0.263200
     14 C38         4.8810   -0.8700    0.0340 c3        1 0VQ      0.139000
     15 O39         5.8420    0.0070    0.5760 oh        1 0VQ     -0.555800
     16 C40         4.7960   -2.0570    1.0830 c3        1 0VQ      0.628400
     17 F41         5.9880   -2.6910    1.2970 f         1 0VQ     -0.220133
     18 F42         4.3780   -1.6510    2.3200 f         1 0VQ     -0.220133
     19 F43         3.9220   -3.0420    0.7080 f         1 0VQ     -0.220133
     20 C44         5.4420   -1.4050   -1.3550 c3        1 0VQ      0.628400
     21 F45         4.5410   -2.1170   -2.0980 f         1 0VQ     -0.220133
     22 F46         5.8470   -0.3720   -2.1620 f         1 0VQ     -0.220133
     23 F47         6.5370   -2.2140   -1.2430 f         1 0VQ     -0.220133
     24 C14        -2.3340    2.6510    0.2250 ca        1 0VQ     -0.076300
     25 C17        -1.0290    2.2310    0.4970 ca        1 0VQ     -0.111000
     26 C18         0.0520    3.1070    0.3300 ca        1 0VQ     -0.070800
     27 C19        -0.1830    4.4120   -0.1240 ca        1 0VQ     -0.117000
     28 C20        -1.4840    4.8300   -0.4010 ca        1 0VQ     -0.129000
     29 C21        -2.5560    3.9580   -0.2250 ca        1 0VQ     -0.120000
     30 C11        -3.4810    1.7210    0.4210 c3        1 0VQ     -0.037100
     31 C48        -5.7150   -3.3010    0.4290 c3        1 0VQ      0.175700
     32 O49        -4.3320   -3.4660    0.7060 oh        1 0VQ     -0.597800
     33 C52        -8.4020   -2.4910   -0.1520 c3        1 0VQ      0.176700
     34 O53        -9.6320   -1.8950   -0.5380 oh        1 0VQ     -0.596800
     35 H1         -3.2170    0.7180   -1.4840 hc        1 0VQ      0.052200
     36 H2         -4.3670    2.1130   -1.5180 hc        1 0VQ      0.052200
     37 H3         -8.5630    0.0830   -1.0460 ha        1 0VQ      0.154000
     38 H4         -3.8880   -1.3280   -0.0200 ha        1 0VQ      0.153000
     39 H5         -6.6840    1.6870   -1.3670 ha        1 0VQ      0.132000
     40 H6          3.2870    3.6010    1.0750 hc        1 0VQ      0.051200
     41 H7          1.8250    4.5680    1.5030 hc        1 0VQ      0.051200
     42 H8          2.9420    3.6910    3.5360 hc        1 0VQ      0.042033
     43 H9          1.2890    2.9690    3.3640 hc        1 0VQ      0.042033
     44 H10         2.7520    1.9870    2.9440 hc        1 0VQ      0.042033
     45 H11         1.1750    0.8840   -0.5350 ha        1 0VQ      0.139000
     46 H12         3.8700    1.5150    0.9340 ha        1 0VQ      0.136000
     47 H13         2.8470   -0.9010   -0.7650 ha        1 0VQ      0.164000
     48 H14         5.8770    0.7870    0.0010 ho        1 0VQ      0.436000
     49 H15        -0.8460    1.2050    0.8530 ha        1 0VQ      0.139000
     50 H16         0.6580    5.1050   -0.2730 ha        1 0VQ      0.134000
     51 H17        -1.6630    5.8540   -0.7610 ha        1 0VQ      0.134000
     52 H18        -3.5820    4.2930   -0.4400 ha        1 0VQ      0.135000
     53 H19        -4.2930    2.2480    0.9890 hc        1 0VQ      0.056200
     54 H20        -3.1640    0.8370    1.0360 hc        1 0VQ      0.056200
     55 H21        -6.3110   -3.4880    1.3670 h1        1 0VQ      0.030200
     56 H22        -6.0350   -4.0460   -0.3540 h1        1 0VQ      0.030200
     57 H23        -4.2230   -4.3790    0.9970 ho        1 0VQ      0.404000
     58 H24        -8.2190   -3.4130   -0.7730 h1        1 0VQ      0.029700
     59 H25        -8.4540   -2.7920    0.9320 h1        1 0VQ      0.029700
     60 H26       -10.3120   -2.5640   -0.3920 ho        1 0VQ      0.403000
@<TRIPOS>BOND
     1    1    7 1   
     2    1   30 1   
     3    1   35 1   
     4    1   36 1   
     5    2    3 ar  
     6    2    6 ar  
     7    2   37 1   
     8    3    4 ar  
     9    3   33 1   
    10    4    5 ar  
    11    4   31 1   
    12    5    7 ar  
    13    5   38 1   
    14    6    7 ar  
    15    6   39 1   
    16    8    9 1   
    17    8   11 2   
    18    8   26 1   
    19    9   10 1   
    20    9   40 1   
    21    9   41 1   
    22   10   42 1   
    23   10   43 1   
    24   10   44 1   
    25   11   12 1   
    26   11   45 1   
    27   12   13 2   
    28   12   46 1   
    29   13   14 1   
    30   13   47 1   
    31   14   15 1   
    32   14   16 1   
    33   14   20 1   
    34   15   48 1   
    35   16   17 1   
    36   16   18 1   
    37   16   19 1   
    38   20   21 1   
    39   20   22 1   
    40   20   23 1   
    41   24   25 ar  
    42   24   29 ar  
    43   24   30 1   
    44   25   26 ar  
    45   25   49 1   
    46   26   27 ar  
    47   27   28 ar  
    48   27   50 1   
    49   28   29 ar  
    50   28   51 1   
    51   29   52 1   
    52   30   53 1   
    53   30   54 1   
    54   31   32 1   
    55   31   55 1   
    56   31   56 1   
    57   32   57 1   
    58   33   34 1   
    59   33   58 1   
    60   33   59 1   
    61   34   60 1   
@<TRIPOS>SUBSTRUCTURE
     1 0VQ         1 TEMP              0 ****  ****    0 ROOT
