@<TRIPOS>MOLECULE
0VR
   38    34     1     0     0
SMALL
bcc


@<TRIPOS>ATOM
      1 P         106.1200  449.8240  285.4250 p3        1 0VR      2.423000
      2 O1P       107.3070  448.9350  285.4990 o         1 0VR     -1.157000
      3 O2P       105.8650  450.8580  286.4440 o         1 0VR     -1.157000
      4 O3P       105.3510  449.7740  284.1560 o         1 0VR     -1.157000
      5 O5'       105.0050  448.1200  285.9850 o         1 0VR     -0.355000
      6 C5'       105.2730  447.3090  285.0870 c2        1 0VR      0.200000
      7 C4'       -31.3820 -126.2670  -78.1990 c1        1 0VR     -0.588000
      8 O4'       -31.9750 -123.8030  -78.9420 oh        1 0VR     -0.571000
      9 C3'       -31.0010 -127.2020  -79.0550 c2        1 0VR     -0.147000
     10 O3'       -30.6270 -128.5270  -78.7270 oh        1 0VR     -0.349000
     11 C2'       -30.9180 -127.0250  -80.5430 c3        1 0VR      0.102000
     12 O2'       -31.9900 -126.2500  -81.0560 oh        1 0VR     -0.368000
     13 C1'       -29.5730 -126.3460  -80.8920 c3        1 0VR     -0.058000
     14 NH        -29.3230 -126.2330  -82.3170 n3        1 0VR     -0.166000
     15 C1        -27.8310 -125.8720  -84.1950 c2        1 0VR     -0.109000
     16 C2        -28.1210 -125.9950  -82.7720 c1        1 0VR     -0.117000
     17 C3        -25.1970 -122.1200  -85.9590 c2        1 0VR     -0.332000
     18 C4        -25.6210 -123.2480  -85.3770 c2        1 0VR     -0.035000
     19 C5        -27.0020 -123.6730  -85.3420 c2        1 0VR     -0.198000
     20 C6        -27.4030 -124.7740  -84.7490 c1        1 0VR     -0.101000
     21 O71       -27.0230 -127.7120  -85.5490 o         1 0VR     -0.551000
     22 O72       -29.2130 -127.5720  -85.1080 o         1 0VR     -0.551000
     23 H3        -31.4350 -126.4470  -77.1230 ha        1 0VR      0.035000
     24 H4        105.9580  447.5620  284.2470 h4        1 0VR      0.101500
     25 H5        104.8230  446.2930  285.1090 h4        1 0VR      0.101500
     26 H6        -31.8110 -124.7710  -78.5770 ho        1 0VR      0.222500
     27 H7        -31.2150 -123.6540  -79.5000 ho        1 0VR      0.222500
     28 H8        -30.5780 -128.5550  -77.7670 ho        1 0VR      0.167000
     29 H9        -31.0000 -128.0180  -81.0680 h1        1 0VR      0.100000
     30 H10       -32.2130 -125.5850  -80.3850 ho        1 0VR      0.235000
     31 H11       -30.1290 -126.3720  -82.9010 hn        1 0VR      0.200000
     32 H12       -29.5810 -125.3100  -80.4460 h1        1 0VR      0.096000
     33 H13       -28.7430 -126.9340  -80.4140 h1        1 0VR      0.096000
     34 H14       -25.8750 -121.4210  -86.4600 ha        1 0VR      0.084000
     35 H15       -24.1400 -121.8310  -85.9690 ha        1 0VR      0.084000
     36 H16       -24.9010 -123.9260  -84.8840 ha        1 0VR      0.117000
     37 H17       -27.7310 -123.0200  -85.8520 ha        1 0VR      0.103000
     38 C7        -28.0230 -127.1620  -85.0230 c2        1 0VR      0.378000
@<TRIPOS>BOND
     1    1    2 1   
     2    1    3 1   
     3    1    4 1   
     4    5    6 1   
     5    6   24 1   
     6    6   25 1   
     7    7    9 1   
     8    7   23 1   
     9    8   26 1   
    10    8   27 1   
    11    9   10 1   
    12    9   11 1   
    13   10   28 1   
    14   11   12 1   
    15   11   13 1   
    16   11   29 1   
    17   12   30 1   
    18   13   14 1   
    19   13   32 1   
    20   13   33 1   
    21   14   16 1   
    22   14   31 1   
    23   15   16 1   
    24   15   20 1   
    25   15   38 1   
    26   17   18 1   
    27   17   34 1   
    28   17   35 1   
    29   18   19 1   
    30   18   36 1   
    31   19   20 1   
    32   19   37 1   
    33   21   38 1   
    34   22   38 1   
@<TRIPOS>SUBSTRUCTURE
     1 0VR         1 TEMP              0 ****  ****    0 ROOT
