@<TRIPOS>MOLECULE
0VR
   38    38     1     0     0
SMALL
bcc


@<TRIPOS>ATOM
      1 P           5.6950    0.2560    0.4490 p5        1 0VR      1.317900
      2 O1P         5.7070    1.7210    0.1080 o         1 0VR     -0.924167
      3 O2P         6.9390   -0.5220    0.1350 o         1 0VR     -0.924167
      4 O3P         4.9680   -0.0970    1.7280 o         1 0VR     -0.924167
      5 O5'         4.5160   -0.3690   -0.6690 os        1 0VR     -0.560200
      6 C5'         3.3540    0.3520   -0.7120 c3        1 0VR      0.197400
      7 C4'         2.1510   -0.4820   -0.2030 c3        1 0VR      0.094100
      8 O4'         2.4380   -1.1630    0.9960 oh        1 0VR     -0.691800
      9 C3'         0.9050    0.4040    0.0460 c3        1 0VR      0.084100
     10 O3'         0.7040    1.3490   -1.0000 oh        1 0VR     -0.634800
     11 C2'        -0.3910   -0.4350    0.1320 c3        1 0VR      0.154100
     12 O2'        -0.4270   -1.1890    1.3320 oh        1 0VR     -0.630800
     13 C1'        -1.6270    0.4890    0.1600 c3        1 0VR      0.202800
     14 NH         -2.8860   -0.1800   -0.0480 nh        1 0VR     -0.745600
     15 C1         -5.3400   -0.1060    0.0140 ca        1 0VR     -0.196600
     16 C2         -4.0640    0.5420    0.0290 ca        1 0VR      0.225600
     17 C3         -4.0480    1.9650    0.0480 ca        1 0VR     -0.254000
     18 C4         -5.2260    2.7010    0.0270 ca        1 0VR     -0.110000
     19 C5         -6.4600    2.0640   -0.0070 ca        1 0VR     -0.249000
     20 C6         -6.4960    0.6680   -0.0140 ca        1 0VR     -0.077000
     21 O71        -6.6480   -2.0660   -0.3680 o         1 0VR     -0.848800
     22 O72        -4.6180   -2.3650    0.4760 o         1 0VR     -0.848800
     23 H3          3.4390    1.2920   -0.0920 h1        1 0VR     -0.006800
     24 H4          3.1220    0.6370   -1.7830 h1        1 0VR     -0.006800
     25 H5          1.8890   -1.2650   -0.9690 h1        1 0VR      0.017700
     26 H6          3.3530   -0.8960    1.2930 ho        1 0VR      0.507000
     27 H7          1.0440    0.9550    1.0180 h1        1 0VR      0.045700
     28 H8          1.5420    1.8120   -1.1180 ho        1 0VR      0.415000
     29 H9         -0.4390   -1.1360   -0.7470 h1        1 0VR      0.041700
     30 H10         0.4650   -1.5350    1.4860 ho        1 0VR      0.441000
     31 H11        -1.6190    1.0370    1.1480 h1        1 0VR      0.038700
     32 H12        -1.4950    1.2500   -0.6640 h1        1 0VR      0.038700
     33 H13        -2.9430   -1.1470    0.2240 hn        1 0VR      0.474800
     34 H14        -3.0930    2.5080    0.0770 ha        1 0VR      0.119000
     35 H15        -5.1730    3.8000    0.0400 ha        1 0VR      0.085000
     36 H16        -7.3900    2.6430   -0.0280 ha        1 0VR      0.085000
     37 H17        -7.4630    0.1390   -0.0490 ha        1 0VR      0.134000
     38 C7         -5.5340   -1.6110    0.0360 c         1 0VR      0.913200
@<TRIPOS>BOND
     1    1    2 1   
     2    1    3 1   
     3    1    4 1   
     4    1    5 1   
     5    5    6 1   
     6    6    7 1   
     7    6   23 1   
     8    6   24 1   
     9    7    8 1   
    10    7    9 1   
    11    7   25 1   
    12    8   26 1   
    13    9   10 1   
    14    9   11 1   
    15    9   27 1   
    16   10   28 1   
    17   11   12 1   
    18   11   13 1   
    19   11   29 1   
    20   12   30 1   
    21   13   14 1   
    22   13   31 1   
    23   13   32 1   
    24   14   16 1   
    25   14   33 1   
    26   15   16 ar  
    27   15   20 ar  
    28   15   38 1   
    29   16   17 ar  
    30   17   18 ar  
    31   17   34 1   
    32   18   19 ar  
    33   18   35 1   
    34   19   20 ar  
    35   19   36 1   
    36   20   37 1   
    37   21   38 1   
    38   22   38 1   
@<TRIPOS>SUBSTRUCTURE
     1 0VR         1 TEMP              0 ****  ****    0 ROOT
