@<TRIPOS>MOLECULE
0VR
   38    33     1     0     0
SMALL
bcc


@<TRIPOS>ATOM
      1 P           0.3780    4.2360    5.1160 p3        1 0VR      2.507000
      2 O1P         0.6000    5.4480    4.2430 o         1 0VR     -1.251000
      3 O2P         1.7060    3.7410    5.6370 o         1 0VR     -1.251000
      4 O3P        -0.5110    4.6100    6.2780 o         1 0VR     -1.251000
      5 O5'        -0.3140    3.0960    4.2680 o         1 0VR     -0.729000
      6 C5'         0.2970    2.6870    3.0670 c3        1 0VR      0.008000
      7 C4'        -0.5040    1.5620    2.4510 c3        1 0VR     -0.017000
      8 O4'        -1.8640    1.9200    2.4140 oh        1 0VR     -0.395000
      9 C3'        -0.0120    1.3040    1.0440 c3        1 0VR     -0.018000
     10 O3'         1.3910    1.1860    1.0520 oh        1 0VR     -0.358000
     11 C2'        -0.6230    0.0230    0.5240 c3        1 0VR      0.037000
     12 O2'        -2.0260    0.1260    0.5560 oh        1 0VR     -0.358000
     13 C1'        -0.1660   -0.2110   -0.8990 c3        1 0VR     -0.032000
     14 NH         -0.2040   -1.6030   -1.1850 n3        1 0VR     -0.303000
     15 C1          0.7750   -3.1240   -2.8090 c1        1 0VR     -0.179000
     16 C2         -0.0640   -2.0570   -2.5230 c2        1 0VR      0.125000
     17 C3         -0.8030   -1.4660   -3.5360 c1        1 0VR     -0.218000
     18 C4         -0.7040   -1.9410   -4.8340 c1        1 0VR     -0.179000
     19 C5          0.1340   -3.0080   -5.1200 c1        1 0VR     -0.179000
     20 C6          0.8730   -3.5990   -4.1080 c1        1 0VR     -0.083000
     21 C7          1.5350   -3.8080   -1.6940 c1        1 0VR      0.362000
     22 O71         2.6220   -3.3230   -1.2840 os        1 0VR     -0.586000
     23 O72         1.0840   -4.8650   -1.1810 o         1 0VR     -0.592000
     24 H3          0.3310    3.4430    2.4440 h1        1 0VR      0.059500
     25 H4          1.2070    2.3770    3.2530 h1        1 0VR      0.059500
     26 H5         -0.3940    0.7520    2.9880 h1        1 0VR      0.064000
     27 H6         -2.2350    1.7590    3.2060 ho        1 0VR      0.259000
     28 H7         -0.2730    2.0490    0.4660 h1        1 0VR      0.084000
     29 H8          1.7440    1.8180    0.5350 ho        1 0VR      0.220000
     30 H9         -0.3370   -0.7250    1.0850 h1        1 0VR      0.082000
     31 H10        -2.3750   -0.6550    0.8000 ho        1 0VR      0.224000
     32 H11         0.7480    0.1200   -1.0070 h1        1 0VR      0.089500
     33 H12        -0.7600    0.2650   -1.5140 h1        1 0VR      0.089500
     34 H13        -0.3050   -2.2060   -0.5080 hn        1 0VR      0.248000
     35 H14        -1.3930   -0.7150   -3.3350 ha        1 0VR      0.153000
     36 H15        -1.2250   -1.5250   -5.5470 ha        1 0VR      0.088000
     37 H16         0.2030   -3.3430   -6.0340 ha        1 0VR      0.088000
     38 H17         1.4640   -4.3500   -4.3090 ha        1 0VR      0.133000
@<TRIPOS>BOND
     1    1    2 1   
     2    1    3 1   
     3    1    4 1   
     4    5    6 1   
     5    6    7 1   
     6    6   24 1   
     7    6   25 1   
     8    7    8 1   
     9    7    9 1   
    10    7   26 1   
    11    8   27 1   
    12    9   10 1   
    13    9   11 1   
    14    9   28 1   
    15   10   29 1   
    16   11   12 1   
    17   11   13 1   
    18   11   30 1   
    19   12   31 1   
    20   13   14 1   
    21   13   32 1   
    22   13   33 1   
    23   14   16 1   
    24   14   34 1   
    25   15   16 1   
    26   15   20 1   
    27   16   17 1   
    28   17   35 1   
    29   18   19 1   
    30   18   36 1   
    31   19   37 1   
    32   20   38 1   
    33   21   23 1   
@<TRIPOS>SUBSTRUCTURE
     1 0VR         1 TEMP              0 ****  ****    0 ROOT
