@<TRIPOS>MOLECULE
0VS
   57    54     1     0     0
SMALL
bcc


@<TRIPOS>ATOM
      1 C13        -0.1800   -1.3000    0.7810 c2        1 0VS     -0.247000
      2 C15        -0.2770   -1.1980    5.3550 c1        1 0VS      0.421000
      3 C20         3.4110   -0.9320   -4.0480 c2        1 0VS      0.301000
      4 C22         3.4940   -2.9470   -5.4330 c3        1 0VS     -0.089000
      5 C02         8.4500    4.4110   -3.4420 ca        1 0VS      0.244000
      6 C03         8.7750    3.5790   -2.2710 ca        1 0VS     -0.112000
      7 C04         7.9140    2.6700   -1.7850 ca        1 0VS     -0.109000
      8 C05         6.5880    2.4710   -2.4050 ca        1 0VS      0.323000
      9 C06         6.3470    3.1220   -3.7110 ca        1 0VS     -0.385000
     10 C08         4.7380    1.0710   -4.6330 c3        1 0VS     -0.345000
     11 C09         3.3860    0.6180   -4.0750 c3        1 0VS     -0.088000
     12 N10         3.1380    1.1760   -2.7090 n4        1 0VS     -0.115000
     13 C11         1.6940    1.5010   -2.4020 c2        1 0VS      0.299000
     14 C12         1.4970    2.3650   -1.2010 c3        1 0VS     -0.247000
     15 C14         0.8320   -1.1310   -0.0260 c1        1 0VS     -0.004000
     16 N18         1.7600   -0.8400   -0.8000 n2        1 0VS     -0.292000
     17 O19         0.8430    1.0580   -3.1570 o         1 0VS     -0.193000
     18 C23         4.8560   -3.1150   -6.0880 c2        1 0VS      0.269000
     19 O24         5.3200   -4.3660   -6.3340 oh        1 0VS     -0.253000
     20 O25         5.6110   -2.2050   -6.4330 o         1 0VS     -0.307000
     21 C27         7.2230    4.0260   -4.2120 ca        1 0VS      0.022000
     22 C30         8.2190    1.8200   -0.5970 c3        1 0VS     -0.161000
     23 C31         9.5450    2.0950   -0.0480 c1        1 0VS     -0.048000
     24 C32        10.0270    1.3470    1.0460 c2        1 0VS     -0.545000
     25 C33        11.2350    1.5940    1.5560 c1        1 0VS      0.431000
     26 H1          0.3960    2.4580   -1.0110 hc        1 0VS      0.148667
     27 H2          1.9240    3.3850   -1.3810 hc        1 0VS      0.148667
     28 H3          2.7170   -3.4260   -6.0980 h1        1 0VS      0.149000
     29 H4          3.5030   -3.4840   -4.4380 h1        1 0VS      0.149000
     30 H8          4.7980    0.7500   -5.7060 h1        1 0VS      0.162000
     31 H9          5.5750    0.5660   -4.0850 h1        1 0VS      0.162000
     32 H10         2.5500    0.9830   -4.7460 hx        1 0VS      0.173000
     33 H11         3.7070    2.0450   -2.6160 hn        1 0VS      0.287500
     34 H12        -1.1800   -1.5590    0.4070 ha        1 0VS      0.175000
     35 H13        -0.0790   -1.1870    1.8720 ha        1 0VS      0.175000
     36 H14         1.9810    1.9150   -0.2970 hc        1 0VS      0.148667
     37 H16         2.3830   -1.5750   -1.0800 hn        1 0VS      0.197000
     38 H17         5.2460   -0.4910   -1.2600 ha        1 0VS      0.004000
     39 H21         7.4260    2.0030    0.1880 hc        1 0VS      0.127000
     40 H22         8.1200    0.7350   -0.8950 hc        1 0VS      0.127000
     41 H23         9.4240    0.5360    1.5130 ha        1 0VS      0.173000
     42 H24         9.7640    3.7440   -1.7960 ha        1 0VS      0.215000
     43 S07         4.8970    2.8300   -4.5700 ss        1 0VS      0.244000
     44 C28         7.0430    4.7120   -5.5060 c3        1 0VS     -0.224000
     45 O17        -0.0330   -1.0230    4.2010 o         1 0VS     -0.210000
     46 O26         3.6560   -1.5310   -2.9840 o         1 0VS     -0.354000
     47 O29         5.7050    1.7870   -1.8520 o         1 0VS     -0.375000
     48 H102        3.4960    0.5020   -2.0030 hn        1 0VS      0.287500
     49 H183        4.7460   -0.7240   -0.8650 ha        1 0VS      0.004000
     50 O16        -0.5180   -1.3700    6.5040 o         1 0VS     -0.210000
     51 N21         3.1220   -1.5720   -5.2340 n         1 0VS     -0.310000
     52 O01         9.1440    5.3690   -3.7880 o         1 0VS     -0.199000
     53 H5          6.3490    4.1470   -6.1810 hc        1 0VS      0.126667
     54 H6          6.6150    5.7340   -5.3300 hc        1 0VS      0.126667
     55 H7          8.0320    4.8450   -6.0170 hc        1 0VS      0.126667
     56 H19         3.0760   -1.0180   -6.0620 hn        1 0VS      0.242000
     57 H212        4.6780   -5.0300   -6.0400 ho        1 0VS      0.236000
@<TRIPOS>BOND
     1    1   15 1   
     2    1   34 1   
     3    1   35 1   
     4    2   45 1   
     5    2   50 1   
     6    3   11 1   
     7    3   46 1   
     8    3   51 1   
     9    4   18 1   
    10    4   28 1   
    11    4   29 1   
    12    4   51 1   
    13    5    6 1   
    14    5   21 1   
    15    5   52 1   
    16    6    7 1   
    17    6   42 1   
    18    7    8 1   
    19    7   22 1   
    20    8    9 1   
    21    8   47 1   
    22    9   21 1   
    23    9   43 1   
    24   10   11 1   
    25   10   30 1   
    26   10   31 1   
    27   10   43 1   
    28   11   12 1   
    29   11   32 1   
    30   12   13 1   
    31   12   33 1   
    32   12   48 1   
    33   13   14 1   
    34   13   17 1   
    35   14   26 1   
    36   14   27 1   
    37   14   36 1   
    38   15   16 1   
    39   16   37 1   
    40   18   19 1   
    41   18   20 1   
    42   19   57 1   
    43   21   44 1   
    44   22   23 1   
    45   22   39 1   
    46   22   40 1   
    47   23   24 1   
    48   24   25 1   
    49   24   41 1   
    50   38   49 1   
    51   44   53 1   
    52   44   54 1   
    53   44   55 1   
    54   51   56 1   
@<TRIPOS>SUBSTRUCTURE
     1 0VS         1 TEMP              0 ****  ****    0 ROOT
