@<TRIPOS>MOLECULE
0VS
   54    48     1     0     0
SMALL
bcc


@<TRIPOS>ATOM
      1 C13        -3.0120    3.2890    2.0420 c3        1 0VS     -0.123000
      2 C15        -4.2570    4.2310    3.9840 c1        1 0VS      0.307000
      3 C20        -1.4860   -1.9530   -0.2370 c1        1 0VS      0.269000
      4 C22        -3.1180   -3.0240   -1.8390 c3        1 0VS     -0.117000
      5 C28         4.3270    1.4800    1.0390 c3        1 0VS     -0.220000
      6 O01         4.5220    1.2790   -1.9370 o         1 0VS     -0.295000
      7 C02         4.1740    0.2720   -1.3840 c1        1 0VS      0.306000
      8 C03         4.2910   -1.1210   -2.1290 c1        1 0VS     -0.100000
      9 C04         4.3050   -2.2170   -1.3480 c1        1 0VS     -0.099000
     10 C05         4.0770   -1.9950    0.1430 c2        1 0VS      0.310000
     11 C06         3.5580   -0.3850    0.5300 c2        1 0VS     -0.316000
     12 S07         1.9060   -0.0170   -0.0850 ss        1 0VS      0.292000
     13 C08         0.7060   -1.1240    0.6850 c3        1 0VS     -0.336000
     14 C09        -0.7460   -0.7190    0.2250 c3        1 0VS      0.025000
     15 N10        -1.4240   -0.1380    1.2840 n         1 0VS     -0.383000
     16 C11        -1.7960    1.2510    1.2270 c2        1 0VS      0.308000
     17 C12        -2.9840    1.7670    2.0780 c3        1 0VS     -0.186000
     18 C14        -4.4020    3.8070    2.5830 c2        1 0VS     -0.127000
     19 O16        -3.5500    5.2420    4.2660 o         1 0VS     -0.583000
     20 O17        -4.9380    3.6750    4.8800 o         1 0VS     -0.583000
     21 N18        -4.8330    4.9060    1.8020 n3        1 0VS     -0.322000
     22 O19        -1.2280    1.9980    0.4630 o         1 0VS     -0.401000
     23 N21        -2.6130   -1.8360   -1.1600 n2        1 0VS     -0.316000
     24 C23        -4.4260   -2.7010   -2.5220 c1        1 0VS      0.327000
     25 O24        -5.4810   -2.7100   -1.8740 os        1 0VS     -0.595000
     26 O25        -4.4380   -2.3800   -3.7510 o         1 0VS     -0.561000
     27 O26        -1.1220   -3.0490    0.1330 o         1 0VS     -0.420000
     28 C27         4.0830    0.2250    0.2290 c2        1 0VS     -0.083000
     29 O29         5.1200   -2.3050    0.7200 o         1 0VS     -0.286000
     30 C30         4.6310   -3.4660   -1.8990 c1        1 0VS     -0.083000
     31 C31         4.9360   -3.5690   -3.2410 c1        1 0VS     -0.127000
     32 C32         4.9210   -2.4480   -4.0380 c1        1 0VS     -0.127000
     33 C33         4.6020   -1.2260   -3.4990 c1        1 0VS     -0.087000
     34 H1         -2.8860    3.5970    1.1210 hc        1 0VS      0.078500
     35 H2         -2.2920    3.6410    2.6040 hc        1 0VS      0.078500
     36 H3         -3.2650   -3.7590   -1.1630 h1        1 0VS      0.081500
     37 H4         -2.4800   -3.3140   -2.4910 h1        1 0VS      0.081500
     38 H5          4.4720    2.2250    0.4450 hc        1 0VS      0.123667
     39 H6          3.5570    1.6590    1.5980 hc        1 0VS      0.123667
     40 H7          5.1080    1.3550    1.5960 hc        1 0VS      0.123667
     41 H8          0.7730   -1.0560    1.6380 h1        1 0VS      0.137500
     42 H9          0.8930   -2.0670    0.4040 h1        1 0VS      0.137500
     43 H10        -0.6870   -0.0940   -0.4980 h1        1 0VS      0.134000
     44 H11        -1.6020   -0.6200    2.0200 hn        1 0VS      0.240000
     45 H12        -3.7930    1.4310    1.7260 hc        1 0VS      0.130500
     46 H13        -2.8800    1.4680    2.9850 hc        1 0VS      0.130500
     47 H14        -5.0880    3.0590    2.5260 h4        1 0VS      0.079000
     48 H16        -5.3180    5.4950    2.3370 hn        1 0VS      0.124500
     49 H17        -5.3560    4.6110    1.1240 hn        1 0VS      0.124500
     50 H19        -2.9660   -0.9940   -1.3660 hn        1 0VS      0.245000
     51 H21         4.6800   -4.2730   -1.3120 ha        1 0VS      0.155000
     52 H22         5.1660   -4.4440   -3.6270 ha        1 0VS      0.126500
     53 H23         5.1310   -2.5190   -4.9640 ha        1 0VS      0.126500
     54 H24         4.5290   -0.4410   -4.0770 ha        1 0VS      0.150000
@<TRIPOS>BOND
     1    1   17 1   
     2    1   18 1   
     3    1   34 1   
     4    1   35 1   
     5    2   19 1   
     6    2   20 1   
     7    3   14 1   
     8    3   27 1   
     9    4   23 1   
    10    4   24 1   
    11    4   36 1   
    12    4   37 1   
    13    5   28 1   
    14    5   38 1   
    15    5   39 1   
    16    5   40 1   
    17    6    7 1   
    18    7   28 1   
    19    8   33 1   
    20    9   10 1   
    21    9   30 1   
    22   10   11 1   
    23   10   29 1   
    24   11   12 1   
    25   11   28 1   
    26   12   13 1   
    27   13   14 1   
    28   13   41 1   
    29   13   42 1   
    30   14   15 1   
    31   14   43 1   
    32   15   16 1   
    33   15   44 1   
    34   16   17 1   
    35   16   22 1   
    36   17   45 1   
    37   17   46 1   
    38   18   21 1   
    39   18   47 1   
    40   21   48 1   
    41   21   49 1   
    42   23   50 1   
    43   24   26 1   
    44   30   51 1   
    45   31   32 1   
    46   31   52 1   
    47   32   53 1   
    48   33   54 1   
@<TRIPOS>SUBSTRUCTURE
     1 0VS         1 TEMP              0 ****  ****    0 ROOT
