@<TRIPOS>MOLECULE
0VS
   57    54     1     0     0
SMALL
bcc


@<TRIPOS>ATOM
      1 C13         3.5500    3.1110    0.6930 c1        1 0VS     -0.198000
      2 C15        -1.6680    1.2780    2.2170 c1        1 0VS      0.430000
      3 C20         4.1600   -1.9710   -3.6860 c2        1 0VS      0.292000
      4 C22         5.2070   -3.3600   -5.3940 c3        1 0VS     -0.091000
      5 C02         6.4400    4.9180   -3.1100 ca        1 0VS      0.248000
      6 C03         7.5680    4.1030   -2.6260 ca        1 0VS     -0.118000
      7 C04         7.4290    2.7950   -2.3530 ca        1 0VS     -0.104000
      8 C05         6.1210    2.1250   -2.5080 ca        1 0VS      0.324000
      9 C06         5.0860    2.8480   -3.2800 ca        1 0VS     -0.379000
     10 C08         4.0770    0.4620   -4.2660 c3        1 0VS     -0.353000
     11 C09         3.4150   -0.6350   -3.4270 c3        1 0VS     -0.090000
     12 N10         3.4140   -0.3090   -1.9650 n4        1 0VS     -0.105000
     13 C11         2.3880   -1.1160   -1.1980 c2        1 0VS      0.300000
     14 C12         2.9390   -1.9640   -0.1030 c3        1 0VS     -0.254000
     15 C14         2.7660    2.2150    0.5480 c1        1 0VS     -0.163000
     16 N18         1.9360    1.1560    0.3440 n3        1 0VS     -0.264000
     17 O19         1.2260   -0.9970   -1.5570 o         1 0VS     -0.203000
     18 C23         6.5270   -2.6910   -5.7490 c2        1 0VS      0.271000
     19 O24         7.5590   -3.4540   -6.1890 oh        1 0VS     -0.252000
     20 O25         6.7690   -1.4850   -5.6730 o         1 0VS     -0.316000
     21 C27         5.2330    4.1640   -3.5740 ca        1 0VS      0.001000
     22 C30         8.5550    1.9430   -1.8730 c3        1 0VS     -0.166000
     23 C31         9.7490    2.7280   -1.5670 c1        1 0VS     -0.046000
     24 C32        10.9120    2.0850   -1.0950 c2        1 0VS     -0.545000
     25 C33        12.0100    2.7880   -0.8120 c1        1 0VS      0.426000
     26 H1          3.4150   -1.3250    0.6840 hc        1 0VS      0.152667
     27 H2          3.7040   -2.6780   -0.5120 hc        1 0VS      0.152667
     28 H3          4.8290   -3.9210   -6.2970 h1        1 0VS      0.151500
     29 H4          5.3930   -4.0960   -4.5570 h1        1 0VS      0.151500
     30 H8          5.1910    0.3240   -4.2780 h1        1 0VS      0.162000
     31 H9          3.7120    0.3580   -5.3210 h1        1 0VS      0.162000
     32 H10         2.3300   -0.7500   -3.7400 hx        1 0VS      0.175000
     33 H11         3.2230    0.7120   -1.8700 hn        1 0VS      0.285500
     34 H12        -0.7290   -0.0030   -0.6070 ha        1 0VS      0.003000
     35 H13         4.2390    3.9060    0.8310 ha        1 0VS      0.245000
     36 H14        -0.6690    0.4840   -1.0750 ha        1 0VS      0.003000
     37 H16         1.0710    1.4540   -0.0860 hn        1 0VS      0.192000
     38 H17         2.0990   -2.5470    0.3560 hc        1 0VS      0.152667
     39 H21         8.2100    1.3640   -0.9650 hc        1 0VS      0.131000
     40 H22         8.7840    1.1730   -2.6690 hc        1 0VS      0.131000
     41 H23        10.9540    0.9820   -0.9480 ha        1 0VS      0.174000
     42 H24         8.5380    4.6210   -2.4800 ha        1 0VS      0.213000
     43 S07         3.6280    2.0890   -3.7480 ss        1 0VS      0.271000
     44 C28         4.2340    4.9440   -4.3290 c3        1 0VS     -0.220000
     45 O17        -2.6250    1.4880    2.8830 o         1 0VS     -0.215500
     46 O26         4.6480   -2.6110   -2.7360 o         1 0VS     -0.347000
     47 O29         5.8880    1.0120   -2.0050 o         1 0VS     -0.366000
     48 H102        4.3570   -0.4930   -1.5830 hn        1 0VS      0.285500
     49 H183        1.7160    0.7090    1.2210 hn        1 0VS      0.192000
     50 O16        -0.7050    1.0630    1.5430 o         1 0VS     -0.215500
     51 N21         4.1870   -2.4270   -4.9900 n         1 0VS     -0.306000
     52 O01         6.4780    6.1500   -3.1490 o         1 0VS     -0.206000
     53 H5          3.5460    5.4660   -3.6130 hc        1 0VS      0.124000
     54 H6          3.6190    4.2860   -4.9960 hc        1 0VS      0.124000
     55 H7          4.7380    5.7310   -4.9480 hc        1 0VS      0.124000
     56 H19         7.3010   -4.3880   -6.2200 ho        1 0VS      0.238000
     57 H212        3.8880   -1.7940   -5.7020 hn        1 0VS      0.236000
@<TRIPOS>BOND
     1    1   15 1   
     2    1   35 1   
     3    2   45 1   
     4    2   50 1   
     5    3   11 1   
     6    3   46 1   
     7    3   51 1   
     8    4   18 1   
     9    4   28 1   
    10    4   29 1   
    11    4   51 1   
    12    5    6 1   
    13    5   21 1   
    14    5   52 1   
    15    6    7 1   
    16    6   42 1   
    17    7    8 1   
    18    7   22 1   
    19    8    9 1   
    20    8   47 1   
    21    9   21 1   
    22    9   43 1   
    23   10   11 1   
    24   10   30 1   
    25   10   31 1   
    26   10   43 1   
    27   11   12 1   
    28   11   32 1   
    29   12   13 1   
    30   12   33 1   
    31   12   48 1   
    32   13   14 1   
    33   13   17 1   
    34   14   26 1   
    35   14   27 1   
    36   14   38 1   
    37   15   16 1   
    38   16   37 1   
    39   16   49 1   
    40   18   19 1   
    41   18   20 1   
    42   19   56 1   
    43   21   44 1   
    44   22   23 1   
    45   22   39 1   
    46   22   40 1   
    47   23   24 1   
    48   24   25 1   
    49   24   41 1   
    50   34   36 1   
    51   44   53 1   
    52   44   54 1   
    53   44   55 1   
    54   51   57 1   
@<TRIPOS>SUBSTRUCTURE
     1 0VS         1 TEMP              0 ****  ****    0 ROOT
