@<TRIPOS>MOLECULE
0VS
   57    54     1     0     0
SMALL
bcc


@<TRIPOS>ATOM
      1 C13         3.5810    2.2660    2.0550 c2        1 0VS     -0.253000
      2 C15        -1.8810    2.3920    1.0160 c1        1 0VS      0.428000
      3 C20         4.0450   -1.7500   -4.1160 c2        1 0VS      0.290000
      4 C22         4.6580   -3.2390   -5.9560 c3        1 0VS     -0.092000
      5 C02         6.6490    5.0740   -2.8230 ca        1 0VS      0.247000
      6 C03         7.6590    4.2290   -2.1630 ca        1 0VS     -0.114000
      7 C04         7.4530    2.9210   -1.9380 ca        1 0VS     -0.109000
      8 C05         6.1820    2.2750   -2.3280 ca        1 0VS      0.324000
      9 C06         5.2830    3.0410   -3.2180 ca        1 0VS     -0.380000
     10 C08         4.3450    0.7140   -4.4070 c3        1 0VS     -0.348000
     11 C09         3.4810   -0.3560   -3.7380 c3        1 0VS     -0.090000
     12 N10         3.4420   -0.1850   -2.2510 ny        1 0VS     -0.102000
     13 C11         2.3010   -0.9450   -1.6070 c2        1 0VS      0.303000
     14 C12         2.7080   -1.9930   -0.6310 c3        1 0VS     -0.258000
     15 C14         2.8320    1.7640    1.1100 c1        1 0VS      0.004000
     16 N18         2.2300    1.2280    0.1650 n2        1 0VS     -0.293000
     17 O19         1.1750   -0.6260   -1.9600 o         1 0VS     -0.201000
     18 C23         5.9500   -2.8000   -6.6270 c2        1 0VS      0.270000
     19 O24         6.7710   -3.7430   -7.1540 oh        1 0VS     -0.253000
     20 O25         6.3440   -1.6400   -6.7510 o         1 0VS     -0.306000
     21 C27         5.5020    4.3570   -3.4630 ca        1 0VS      0.004000
     22 C30         8.4630    2.0430   -1.2800 c3        1 0VS     -0.163000
     23 C31         9.6100    2.8000   -0.7790 c1        1 0VS     -0.047000
     24 C32        10.6760    2.1290   -0.1460 c2        1 0VS     -0.546000
     25 C33        11.7270    2.8090    0.3140 c1        1 0VS      0.428000
     26 H1          1.7910   -2.5430   -0.2890 hc        1 0VS      0.154333
     27 H2          3.2010   -1.5210    0.2580 hc        1 0VS      0.154333
     28 H3          4.0220   -3.7720   -6.7220 h1        1 0VS      0.149500
     29 H4          4.9090   -3.9610   -5.1240 h1        1 0VS      0.149500
     30 H8          4.1790    0.6610   -5.5150 h1        1 0VS      0.161000
     31 H9          5.4320    0.5130   -4.2220 h1        1 0VS      0.161000
     32 H10         2.4100   -0.2680   -4.1040 hx        1 0VS      0.175000
     33 H11         3.3530    0.8370   -2.0620 hn        1 0VS      0.285500
     34 H12         4.0700    3.2440    1.9480 ha        1 0VS      0.167500
     35 H13         3.4210   -2.7190   -1.1050 hc        1 0VS      0.154333
     36 H14         3.7530    1.7340    3.0010 ha        1 0VS      0.167500
     37 H16         0.0590   -3.5620    0.7730 ha        1 0VS      0.001000
     38 H17         0.1240   -3.9880    0.2510 ha        1 0VS      0.001000
     39 H21         7.9610    1.4800   -0.4380 hc        1 0VS      0.128500
     40 H22         8.7980    1.2610   -2.0250 hc        1 0VS      0.128500
     41 H23        10.6780    1.0230   -0.0150 ha        1 0VS      0.173000
     42 H24         8.5990    4.7250   -1.8450 ha        1 0VS      0.213000
     43 S07         3.8780    2.3350   -3.8850 ss        1 0VS      0.266000
     44 C28         4.6370    5.1750   -4.3370 c3        1 0VS     -0.221000
     45 O17        -2.9800    2.7280    1.3060 o         1 0VS     -0.213500
     46 O26         4.5490   -2.4790   -3.2400 o         1 0VS     -0.353000
     47 O29         5.8700    1.1410   -1.9200 o         1 0VS     -0.370000
     48 H102        4.3410   -0.5020   -1.8540 hn        1 0VS      0.285500
     49 H183        1.2410    1.3790    0.0860 hn        1 0VS      0.211000
     50 O16        -0.7740    2.0520    0.7230 o         1 0VS     -0.213500
     51 N21         3.8860   -2.1440   -5.4270 ns        1 0VS     -0.310000
     52 O01         6.7370    6.3030   -2.8620 o         1 0VS     -0.204000
     53 H5          3.8670    5.7020   -3.7130 hc        1 0VS      0.124667
     54 H6          5.2410    5.9590   -4.8620 hc        1 0VS      0.124667
     55 H7          4.1070    4.5430   -5.0960 hc        1 0VS      0.124667
     56 H19         6.4010   -4.6290   -7.0210 ho        1 0VS      0.237000
     57 H212        3.6240   -1.4490   -6.0930 hn        1 0VS      0.241000
@<TRIPOS>BOND
     1    1   15 1   
     2    1   34 1   
     3    1   36 1   
     4    2   45 1   
     5    2   50 1   
     6    3   11 1   
     7    3   46 1   
     8    3   51 1   
     9    4   18 1   
    10    4   28 1   
    11    4   29 1   
    12    4   51 1   
    13    5    6 1   
    14    5   21 1   
    15    5   52 1   
    16    6    7 1   
    17    6   42 1   
    18    7    8 1   
    19    7   22 1   
    20    8    9 1   
    21    8   47 1   
    22    9   21 1   
    23    9   43 1   
    24   10   11 1   
    25   10   30 1   
    26   10   31 1   
    27   10   43 1   
    28   11   12 1   
    29   11   32 1   
    30   12   13 1   
    31   12   33 1   
    32   12   48 1   
    33   13   14 1   
    34   13   17 1   
    35   14   26 1   
    36   14   27 1   
    37   14   35 1   
    38   15   16 1   
    39   16   49 1   
    40   18   19 1   
    41   18   20 1   
    42   19   56 1   
    43   21   44 1   
    44   22   23 1   
    45   22   39 1   
    46   22   40 1   
    47   23   24 1   
    48   24   25 1   
    49   24   41 1   
    50   37   38 1   
    51   44   53 1   
    52   44   54 1   
    53   44   55 1   
    54   51   57 1   
@<TRIPOS>SUBSTRUCTURE
     1 0VS         1 TEMP              0 ****  ****    0 ROOT
