@<TRIPOS>MOLECULE
0VS
   54    55     1     0     0
SMALL
bcc


@<TRIPOS>ATOM
      1 C13        -5.1780    1.4260   -0.4710 c3        1 0VS     -0.061400
      2 C15        -7.0920    3.0370   -0.7530 c         1 0VS      0.889600
      3 C20        -0.7650   -2.1170    1.4140 c         1 0VS      0.619100
      4 C22         0.8740   -3.9110    1.7300 c3        1 0VS     -0.069000
      5 C02         4.4120    2.2480   -1.2890 c         1 0VS      0.591900
      6 C03         5.1600    1.1430   -0.6440 ca        1 0VS     -0.140600
      7 C04         4.5370    0.3950    0.3710 ca        1 0VS     -0.120600
      8 C05         3.2160    0.8500    0.8520 c         1 0VS      0.595900
      9 C06         2.3460    1.4050   -0.2220 cc        1 0VS     -0.065600
     10 C08         0.3150    0.0550    1.0410 c3        1 0VS     -0.086300
     11 C09        -0.9110   -0.7750    0.6330 c3        1 0VS      0.026700
     12 N10        -2.1620   -0.1140    0.8990 n         1 0VS     -0.553900
     13 C11        -3.1780   -0.0410   -0.0540 c         1 0VS      0.658100
     14 C12        -4.5520    0.3810    0.4300 c3        1 0VS     -0.141400
     15 C14        -6.6300    1.7040   -0.0750 c3        1 0VS      0.019500
     16 N18        -7.5200    0.5740   -0.3080 n3        1 0VS     -0.896800
     17 O19        -2.9430   -0.3090   -1.2500 o         1 0VS     -0.622100
     18 C23         2.3560   -3.4700    1.8670 c         1 0VS      0.897600
     19 O24         3.1440   -4.2570    2.4540 o         1 0VS     -0.850800
     20 O25         2.7030   -2.3510    1.3780 o         1 0VS     -0.850800
     21 C27         2.9430    2.1460   -1.1980 cd        1 0VS     -0.208400
     22 C30         5.1520   -0.7390    0.9020 ca        1 0VS     -0.053000
     23 C31         6.4270   -1.0940    0.4480 ca        1 0VS     -0.126000
     24 C32         7.0740   -0.3240   -0.5150 ca        1 0VS     -0.141000
     25 C33         6.4420    0.7920   -1.0680 ca        1 0VS     -0.108000
     26 H1         -4.6160    2.3940   -0.3890 hc        1 0VS      0.062700
     27 H2         -5.1150    1.0880   -1.5380 hc        1 0VS      0.062700
     28 H3          0.4170   -3.9430    2.7560 h1        1 0VS      0.054200
     29 H4          0.8510   -4.9500    1.3000 h1        1 0VS      0.054200
     30 H5          2.7780    3.5230   -2.8400 hc        1 0VS      0.053033
     31 H6          1.6690    2.0790   -2.9150 hc        1 0VS      0.053033
     32 H7          1.3180    3.4250   -1.7570 hc        1 0VS      0.053033
     33 H8          1.1890   -0.6290    1.2430 h1        1 0VS      0.116700
     34 H9          0.1290    0.6250    1.9840 h1        1 0VS      0.116700
     35 H10        -0.8600   -0.9830   -0.4820 h1        1 0VS      0.110700
     36 H11        -2.4300   -0.0990    1.8580 hn        1 0VS      0.311500
     37 H12        -4.5200    0.7720    1.4800 hc        1 0VS      0.061700
     38 H13        -5.1810   -0.5500    0.4340 hc        1 0VS      0.061700
     39 H14        -6.6570    1.9000    1.0380 h1        1 0VS      0.038700
     40 H16        -8.4610    0.9340   -0.3300 hn        1 0VS      0.331300
     41 H17        -7.3380    0.2050   -1.2250 hn        1 0VS      0.331300
     42 H19         0.6570   -2.6940    0.1160 hn        1 0VS      0.291500
     43 H21         4.5960   -1.3730    1.6290 ha        1 0VS      0.227000
     44 H22         6.9090   -1.9960    0.8550 ha        1 0VS      0.136000
     45 H23         8.0810   -0.6010   -0.8560 ha        1 0VS      0.116000
     46 H24         6.9380    1.3950   -1.8430 ha        1 0VS      0.136000
     47 O16        -6.3910    4.0680   -0.5590 o         1 0VS     -0.846800
     48 N21         0.0880   -3.0630    0.8580 n         1 0VS     -0.487900
     49 S07         0.6900    1.1790   -0.2740 ss        1 0VS     -0.070700
     50 C28         2.1430    2.8330   -2.2330 c3        1 0VS     -0.053900
     51 O01         4.9880    3.1560   -1.9090 o         1 0VS     -0.563100
     52 O17        -8.1610    3.0220   -1.4310 o         1 0VS     -0.846800
     53 O26        -1.4260   -2.3220    2.4530 o         1 0VS     -0.622100
     54 O29         2.8920    0.8540    2.0420 o         1 0VS     -0.493100
@<TRIPOS>BOND
     1    1   14 1   
     2    1   15 1   
     3    1   26 1   
     4    1   27 1   
     5    2   15 1   
     6    2   47 1   
     7    2   52 1   
     8    3   11 1   
     9    3   48 1   
    10    3   53 2   
    11    4   18 1   
    12    4   28 1   
    13    4   29 1   
    14    4   48 1   
    15    5    6 1   
    16    5   21 1   
    17    5   51 2   
    18    6    7 ar  
    19    6   25 ar  
    20    7    8 1   
    21    7   22 ar  
    22    8    9 1   
    23    8   54 2   
    24    9   21 2   
    25    9   49 1   
    26   10   11 1   
    27   10   33 1   
    28   10   34 1   
    29   10   49 1   
    30   11   12 1   
    31   11   35 1   
    32   12   13 1   
    33   12   36 1   
    34   13   14 1   
    35   13   17 2   
    36   14   37 1   
    37   14   38 1   
    38   15   16 1   
    39   15   39 1   
    40   16   40 1   
    41   16   41 1   
    42   18   19 1   
    43   18   20 1   
    44   21   50 1   
    45   22   23 ar  
    46   22   43 1   
    47   23   24 ar  
    48   23   44 1   
    49   24   25 ar  
    50   24   45 1   
    51   25   46 1   
    52   30   50 1   
    53   31   50 1   
    54   32   50 1   
    55   42   48 1   
@<TRIPOS>SUBSTRUCTURE
     1 0VS         1 TEMP              0 ****  ****    0 ROOT
