@<TRIPOS>MOLECULE
0VT
   23    22     1     0     0
SMALL
bcc


@<TRIPOS>ATOM
      1 C4          0.0460   -0.0180    0.3970 c3        1 0VT     -0.041200
      2 C5          1.5590    0.0080    0.3880 c3        1 0VT     -0.180400
      3 C6          2.0720   -0.0060    1.8110 c         1 0VT      0.564100
      4 C7         -2.3070    0.0830   -2.6850 c3        1 0VT     -0.059900
      5 C8          3.5560   -0.1320    2.0790 c3        1 0VT     -0.205100
      6 C1         -2.7690    0.0340   -0.1060 c3        1 0VT     -0.059900
      7 C2         -1.7940    0.0450   -1.2620 c2        1 0VT     -0.116400
      8 C3         -0.4670    0.0210   -1.0250 c2        1 0VT     -0.184200
      9 O9          1.2930    0.0820    2.7390 o         1 0VT     -0.531100
     10 H42        -0.2630   -0.8370    0.8340 hc        1 0VT      0.061200
     11 H41        -0.2900    0.7600    0.8860 hc        1 0VT      0.061200
     12 H51         1.8690    0.8190   -0.0630 hc        1 0VT      0.065200
     13 H52         1.8960   -0.7780   -0.0880 hc        1 0VT      0.065200
     14 H73        -3.2850    0.1500   -2.6770 hc        1 0VT      0.041867
     15 H72        -1.9300    0.8610   -3.1470 hc        1 0VT      0.041867
     16 H71        -2.0390   -0.7360   -3.1510 hc        1 0VT      0.041867
     17 H83         3.8590   -1.0280    1.8240 hc        1 0VT      0.063033
     18 H82         3.7290    0.0120    3.0330 hc        1 0VT      0.063033
     19 H81         4.0410    0.5390    1.5540 hc        1 0VT      0.063033
     20 H11        -2.6440    0.8420    0.4350 hc        1 0VT      0.041867
     21 H13        -2.6090   -0.7590    0.4490 hc        1 0VT      0.041867
     22 H12        -3.6860    0.0100   -0.4520 hc        1 0VT      0.041867
     23 H31         0.1620    0.0290   -1.7710 ha        1 0VT      0.119000
@<TRIPOS>BOND
     1    1    2 1   
     2    1    8 1   
     3    1   10 1   
     4    1   11 1   
     5    2    3 1   
     6    2   12 1   
     7    2   13 1   
     8    3    5 1   
     9    3    9 2   
    10    4    7 1   
    11    4   14 1   
    12    4   15 1   
    13    4   16 1   
    14    5   17 1   
    15    5   18 1   
    16    5   19 1   
    17    6    7 1   
    18    6   20 1   
    19    6   21 1   
    20    6   22 1   
    21    7    8 2   
    22    8   23 1   
@<TRIPOS>SUBSTRUCTURE
     1 0VT         1 TEMP              0 ****  ****    0 ROOT
