@<TRIPOS>MOLECULE
0VT
   23    22     1     0     0
SMALL
bcc


@<TRIPOS>ATOM
      1 C4          0.2380   -0.5140   -0.0420 c3        1 0VT     -0.041200
      2 C5          1.6520    0.0030    0.1150 c3        1 0VT     -0.180400
      3 C6          2.1270   -0.0370    1.5400 c         1 0VT      0.564100
      4 C7         -2.3210   -1.6610   -0.9370 c3        1 0VT     -0.059900
      5 C8          3.5850    0.2440    1.7230 c3        1 0VT     -0.205100
      6 C1         -1.8350   -0.8660   -3.2720 c3        1 0VT     -0.059900
      7 C2         -1.3960   -0.9610   -1.8600 c2        1 0VT     -0.116400
      8 C3         -0.2280   -0.4440   -1.4450 c2        1 0VT     -0.184200
      9 O9          1.3810   -0.2800    2.4930 o         1 0VT     -0.531100
     10 H42         0.1870   -1.5760    0.3280 hc        1 0VT      0.061200
     11 H41        -0.4500    0.0820    0.6190 hc        1 0VT      0.061200
     12 H51         1.7120    1.0670   -0.2400 hc        1 0VT      0.065700
     13 H52         2.3550   -0.6020   -0.5160 hc        1 0VT      0.065700
     14 H73        -2.5250   -1.0310   -0.0340 hc        1 0VT      0.041867
     15 H72        -3.2940   -1.8930   -1.4350 hc        1 0VT      0.041867
     16 H71        -1.8640   -2.6220   -0.5880 hc        1 0VT      0.041867
     17 H83         3.8300    0.3810    2.8040 hc        1 0VT      0.063033
     18 H82         3.8720    1.1660    1.1630 hc        1 0VT      0.063033
     19 H81         4.1800   -0.6150    1.3260 hc        1 0VT      0.063033
     20 H11        -2.0180   -1.8890   -3.6860 hc        1 0VT      0.041867
     21 H13        -1.0720   -0.3580   -3.9100 hc        1 0VT      0.041867
     22 H12        -2.7910   -0.2880   -3.3380 hc        1 0VT      0.041867
     23 H31         0.4400    0.0690   -2.1560 ha        1 0VT      0.119000
@<TRIPOS>BOND
     1    1    2 1   
     2    1    8 1   
     3    1   10 1   
     4    1   11 1   
     5    2    3 1   
     6    2   12 1   
     7    2   13 1   
     8    3    5 1   
     9    3    9 2   
    10    4    7 1   
    11    4   14 1   
    12    4   15 1   
    13    4   16 1   
    14    5   17 1   
    15    5   18 1   
    16    5   19 1   
    17    6    7 1   
    18    6   20 1   
    19    6   21 1   
    20    6   22 1   
    21    7    8 2   
    22    8   23 1   
@<TRIPOS>SUBSTRUCTURE
     1 0VT         1 TEMP              0 ****  ****    0 ROOT
