@<TRIPOS>MOLECULE
0VT
   23    22     1     0     0
SMALL
bcc


@<TRIPOS>ATOM
      1 C4          0.2400   -0.5190   -0.0430 c3        1 0VT     -0.041200
      2 C5          1.6480    0.0140    0.1130 c3        1 0VT     -0.180400
      3 C6          2.1230   -0.0190    1.5380 c         1 0VT      0.564100
      4 C7         -2.3150   -1.6790   -0.9320 c3        1 0VT     -0.059900
      5 C8          3.5760    0.2870    1.7220 c3        1 0VT     -0.205100
      6 C1         -1.8320   -0.8940   -3.2720 c3        1 0VT     -0.059900
      7 C2         -1.3930   -0.9800   -1.8590 c2        1 0VT     -0.116400
      8 C3         -0.2270   -0.4570   -1.4460 c2        1 0VT     -0.184200
      9 O9          1.3820   -0.2760    2.4910 o         1 0VT     -0.531100
     10 H42         0.2000   -1.5800    0.3290 hc        1 0VT      0.061200
     11 H41        -0.4550    0.0720    0.6170 hc        1 0VT      0.061200
     12 H51         1.6970    1.0780   -0.2440 hc        1 0VT      0.065700
     13 H52         2.3580   -0.5840   -0.5170 hc        1 0VT      0.065700
     14 H73        -1.8510   -2.6340   -0.5740 hc        1 0VT      0.041867
     15 H72        -3.2850   -1.9230   -1.4300 hc        1 0VT      0.041867
     16 H71        -2.5260   -1.0440   -0.0350 hc        1 0VT      0.041867
     17 H83         3.8460    1.2180    1.1670 hc        1 0VT      0.063033
     18 H82         4.1870   -0.5580    1.3190 hc        1 0VT      0.063033
     19 H81         3.8200    0.4230    2.8030 hc        1 0VT      0.063033
     20 H11        -2.0090   -1.9200   -3.6810 hc        1 0VT      0.041867
     21 H13        -2.7920   -0.3210   -3.3400 hc        1 0VT      0.041867
     22 H12        -1.0720   -0.3840   -3.9120 hc        1 0VT      0.041867
     23 H31         0.4390    0.0560   -2.1590 ha        1 0VT      0.119000
@<TRIPOS>BOND
     1    1    2 1   
     2    1    8 1   
     3    1   10 1   
     4    1   11 1   
     5    2    3 1   
     6    2   12 1   
     7    2   13 1   
     8    3    5 1   
     9    3    9 2   
    10    4    7 1   
    11    4   14 1   
    12    4   15 1   
    13    4   16 1   
    14    5   17 1   
    15    5   18 1   
    16    5   19 1   
    17    6    7 1   
    18    6   20 1   
    19    6   21 1   
    20    6   22 1   
    21    7    8 2   
    22    8   23 1   
@<TRIPOS>SUBSTRUCTURE
     1 0VT         1 TEMP              0 ****  ****    0 ROOT
