@<TRIPOS>MOLECULE
0VT
   23    22     1     0     0
SMALL
bcc


@<TRIPOS>ATOM
      1 C4          0.2440   -0.5300   -0.0440 c3        1 0VT     -0.041200
      2 C5          1.6350    0.0460    0.1140 c3        1 0VT     -0.180400
      3 C6          2.1180    0.0070    1.5360 c         1 0VT      0.564100
      4 C7         -2.2850   -1.7460   -0.9330 c3        1 0VT     -0.059900
      5 C8          3.5590    0.3650    1.7170 c3        1 0VT     -0.205100
      6 C1         -1.8350   -0.9220   -3.2670 c3        1 0VT     -0.059900
      7 C2         -1.3860   -1.0120   -1.8570 c2        1 0VT     -0.116400
      8 C3         -0.2320   -0.4640   -1.4440 c2        1 0VT     -0.184200
      9 O9          1.3910   -0.2930    2.4880 o         1 0VT     -0.531100
     10 H42         0.2390   -1.5970    0.3140 hc        1 0VT      0.061200
     11 H41        -0.4670    0.0290    0.6270 hc        1 0VT      0.061200
     12 H51         1.6470    1.1150   -0.2290 hc        1 0VT      0.065200
     13 H52         2.3600   -0.5200   -0.5290 hc        1 0VT      0.065200
     14 H73        -1.7920   -2.6880   -0.5830 hc        1 0VT      0.041867
     15 H72        -3.2480   -2.0150   -1.4320 hc        1 0VT      0.041867
     16 H71        -2.5130   -1.1220   -0.0320 hc        1 0VT      0.041867
     17 H83         3.7890    1.3170    1.1810 hc        1 0VT      0.063033
     18 H82         4.1990   -0.4470    1.2940 hc        1 0VT      0.063033
     19 H81         3.8040    0.4880    2.8000 hc        1 0VT      0.063033
     20 H11        -1.9860   -1.9480   -3.6870 hc        1 0VT      0.041867
     21 H13        -2.8090   -0.3750   -3.3240 hc        1 0VT      0.041867
     22 H12        -1.0910   -0.3850   -3.9040 hc        1 0VT      0.041867
     23 H31         0.4170    0.0730   -2.1550 ha        1 0VT      0.119000
@<TRIPOS>BOND
     1    1    2 1   
     2    1    8 1   
     3    1   10 1   
     4    1   11 1   
     5    2    3 1   
     6    2   12 1   
     7    2   13 1   
     8    3    5 1   
     9    3    9 2   
    10    4    7 1   
    11    4   14 1   
    12    4   15 1   
    13    4   16 1   
    14    5   17 1   
    15    5   18 1   
    16    5   19 1   
    17    6    7 1   
    18    6   20 1   
    19    6   21 1   
    20    6   22 1   
    21    7    8 2   
    22    8   23 1   
@<TRIPOS>SUBSTRUCTURE
     1 0VT         1 TEMP              0 ****  ****    0 ROOT
