@<TRIPOS>MOLECULE
0VT
   23    22     1     0     0
SMALL
bcc


@<TRIPOS>ATOM
      1 C4         -0.0110    0.1900   -0.0260 c3        1 0VT     -0.041200
      2 C5         -1.2170   -0.7230   -0.0820 c3        1 0VT     -0.180400
      3 C6         -2.5150    0.0330   -0.0710 c         1 0VT      0.564100
      4 C7          2.6250    1.4900   -0.1770 c3        1 0VT     -0.059900
      5 C8         -3.7290   -0.8010   -0.3360 c3        1 0VT     -0.205100
      6 C1          3.7220   -0.7690   -0.0540 c3        1 0VT     -0.059900
      7 C2          2.4670    0.0200   -0.0760 c2        1 0VT     -0.116400
      8 C3          1.2610   -0.5670   -0.0120 c2        1 0VT     -0.184200
      9 O9         -2.5870    1.2470    0.1410 o         1 0VT     -0.531100
     10 H42        -0.0330    0.8900   -0.9070 hc        1 0VT      0.061200
     11 H41        -0.0800    0.8390    0.8920 hc        1 0VT      0.061200
     12 H51        -1.1770   -1.3570   -1.0070 hc        1 0VT      0.065200
     13 H52        -1.2130   -1.4180    0.8010 hc        1 0VT      0.065200
     14 H73         3.6980    1.7920   -0.0930 hc        1 0VT      0.041867
     15 H72         2.2320    1.8540   -1.1600 hc        1 0VT      0.041867
     16 H71         2.0470    2.0030    0.6330 hc        1 0VT      0.041867
     17 H83        -3.7210   -1.7080    0.3160 hc        1 0VT      0.063033
     18 H82        -4.6610   -0.2180   -0.1410 hc        1 0VT      0.063033
     19 H81        -3.7270   -1.1290   -1.4040 hc        1 0VT      0.063033
     20 H11         4.3360   -0.4860    0.8380 hc        1 0VT      0.041867
     21 H13         3.5210   -1.8670   -0.0090 hc        1 0VT      0.041867
     22 H12         4.3240   -0.5570   -0.9730 hc        1 0VT      0.041867
     23 H31         1.1750   -1.6630    0.0600 ha        1 0VT      0.119000
@<TRIPOS>BOND
     1    1    2 1   
     2    1    8 1   
     3    1   10 1   
     4    1   11 1   
     5    2    3 1   
     6    2   12 1   
     7    2   13 1   
     8    3    5 1   
     9    3    9 2   
    10    4    7 1   
    11    4   14 1   
    12    4   15 1   
    13    4   16 1   
    14    5   17 1   
    15    5   18 1   
    16    5   19 1   
    17    6    7 1   
    18    6   20 1   
    19    6   21 1   
    20    6   22 1   
    21    7    8 2   
    22    8   23 1   
@<TRIPOS>SUBSTRUCTURE
     1 0VT         1 TEMP              0 ****  ****    0 ROOT
