@<TRIPOS>MOLECULE
0VU
   54    57     1     0     0
SMALL
bcc


@<TRIPOS>ATOM
      1 C1          4.5800    3.1100   -1.1360 ca        1 0VU     -0.143000
      2 C2          3.2330    3.0940   -0.7790 ca        1 0VU     -0.093000
      3 C3          2.5870    1.8760   -0.5290 cp        1 0VU     -0.166500
      4 C4          3.2950    0.6750   -0.6510 ca        1 0VU     -0.048000
      5 C5          4.6520    0.7010   -0.9890 ca        1 0VU     -0.138600
      6 C6          5.2950    1.9170   -1.2380 ca        1 0VU     -0.086000
      7 C7          5.3730   -0.5960   -1.1560 c         1 0VU      0.661700
      8 N1          6.5650   -0.8000   -0.4580 n         1 0VU     -0.449800
      9 N2         -1.5220    1.9020    0.6180 nb        1 0VU     -0.731000
     10 N3          0.3500    0.9200   -0.6440 nb        1 0VU     -0.737000
     11 N4         -1.8150   -0.0070   -0.8440 nh        1 0VU     -0.724300
     12 C8          7.2400   -2.0800   -0.5760 c3        1 0VU      0.078000
     13 O1          4.9530   -1.4470   -1.9650 o         1 0VU     -0.588100
     14 C9          7.1090   -2.9740    0.6580 c3        1 0VU     -0.103400
     15 C10         7.4890   -2.2260    1.9190 c3        1 0VU     -0.078400
     16 C11         6.7150   -0.9300    2.0350 c3        1 0VU     -0.103400
     17 C12         6.8610   -0.0860    0.7660 c3        1 0VU      0.078000
     18 C13         1.1630    1.8760   -0.1410 cp        1 0VU      0.534800
     19 C14         0.6930    2.8700    0.7500 ca        1 0VU     -0.403600
     20 C15        -0.6680    2.8220    1.0930 ca        1 0VU      0.462200
     21 C16        -0.9850    0.9680   -0.2560 ca        1 0VU      0.877900
     22 C17        -3.1270   -0.2900   -0.4340 ca        1 0VU      0.217600
     23 C18        -4.0960    0.7130   -0.2130 ca        1 0VU     -0.181500
     24 C19        -5.3980    0.3590    0.1160 ca        1 0VU      0.002500
     25 C20        -5.7960   -0.9780    0.2220 ca        1 0VU     -0.413500
     26 C21        -4.8340   -1.9700   -0.0040 ca        1 0VU      0.002500
     27 C22        -3.5250   -1.6480   -0.3260 ca        1 0VU     -0.181500
     28 S1         -7.3750   -1.3830    0.6440 sy        1 0VU      1.532200
     29 O2         -7.3640   -2.6590    1.2480 o         1 0VU     -0.660800
     30 O3         -7.9320   -0.3150    1.3790 o         1 0VU     -0.660800
     31 N5         -8.1220   -1.4850   -0.7720 n3        1 0VU     -1.026700
     32 H1          5.0800    4.0680   -1.3430 ha        1 0VU      0.141000
     33 H2          2.6730    4.0390   -0.7050 ha        1 0VU      0.140000
     34 H3          2.7920   -0.2930   -0.4960 ha        1 0VU      0.163000
     35 H4          6.3590    1.9310   -1.5210 ha        1 0VU      0.147000
     36 H5         -1.3310   -0.7690   -1.2760 hn        1 0VU      0.453800
     37 H6          6.8450   -2.6290   -1.4760 h1        1 0VU      0.059950
     38 H7          8.3320   -1.8560   -0.7480 h1        1 0VU      0.059950
     39 H8          6.0570   -3.3510    0.7430 hc        1 0VU      0.050700
     40 H9          7.7790   -3.8620    0.5230 hc        1 0VU      0.050700
     41 H10         7.2870   -2.8680    2.8150 hc        1 0VU      0.043700
     42 H11         8.5880   -2.0040    1.9040 hc        1 0VU      0.043700
     43 H12         5.6330   -1.1510    2.2240 hc        1 0VU      0.050700
     44 H13         7.0970   -0.3310    2.9020 hc        1 0VU      0.050700
     45 H14         7.9310    0.2650    0.6910 h1        1 0VU      0.059950
     46 H15         6.2040    0.8240    0.8540 h1        1 0VU      0.059950
     47 H16         1.3620    3.6310    1.1620 ha        1 0VU      0.159000
     48 H17        -1.1080    3.5580    1.7920 h4        1 0VU      0.032100
     49 H18        -3.8400    1.7800   -0.3010 ha        1 0VU      0.152500
     50 H19        -6.1380    1.1570    0.3110 ha        1 0VU      0.154000
     51 H20        -5.1220   -3.0320    0.1020 ha        1 0VU      0.154000
     52 H21        -2.7980   -2.4580   -0.4920 ha        1 0VU      0.152500
     53 H22        -8.1940   -2.3220   -1.2930 hn        1 0VU      0.445800
     54 H23        -8.5780   -0.7230   -1.2060 hn        1 0VU      0.445800
@<TRIPOS>BOND
     1    1    2 ar  
     2    1    6 ar  
     3    1   32 1   
     4    2    3 ar  
     5    2   33 1   
     6    3    4 ar  
     7    3   18 1   
     8    4    5 ar  
     9    4   34 1   
    10    5    6 ar  
    11    5    7 1   
    12    6   35 1   
    13    7    8 1   
    14    7   13 2   
    15    8   12 1   
    16    8   17 1   
    17    9   20 ar  
    18    9   21 ar  
    19   10   18 ar  
    20   10   21 ar  
    21   11   21 1   
    22   11   22 1   
    23   11   36 1   
    24   12   14 1   
    25   12   37 1   
    26   12   38 1   
    27   14   15 1   
    28   14   39 1   
    29   14   40 1   
    30   15   16 1   
    31   15   41 1   
    32   15   42 1   
    33   16   17 1   
    34   16   43 1   
    35   16   44 1   
    36   17   45 1   
    37   17   46 1   
    38   18   19 ar  
    39   19   20 ar  
    40   19   47 1   
    41   20   48 1   
    42   22   23 ar  
    43   22   27 ar  
    44   23   24 ar  
    45   23   49 1   
    46   24   25 ar  
    47   24   50 1   
    48   25   26 ar  
    49   25   28 1   
    50   26   27 ar  
    51   26   51 1   
    52   27   52 1   
    53   28   29 2   
    54   28   30 2   
    55   28   31 1   
    56   31   53 1   
    57   31   54 1   
@<TRIPOS>SUBSTRUCTURE
     1 0VU         1 TEMP              0 ****  ****    0 ROOT
