@<TRIPOS>MOLECULE
0VU
   56    59     1     0     0
SMALL
bcc


@<TRIPOS>ATOM
      1 C1          1.5160   -0.7070   -0.3200 ca        1 0VU     -0.121000
      2 C2          2.6920   -1.4620   -0.3220 ca        1 0VU     -0.040000
      3 C3          3.5230   -1.4500    0.8050 cp        1 0VU     -0.190500
      4 C4          3.1360   -0.7180    1.9390 ca        1 0VU     -0.023000
      5 C5          1.9780    0.0660    1.9230 ca        1 0VU     -0.219900
      6 C6          1.1670    0.0770    0.7800 ca        1 0VU     -0.048000
      7 C7          1.7550    0.9590    3.0910 ce        1 0VU      0.730200
      8 N1          0.5540    1.2710    3.5930 nh        1 0VU     -0.216100
      9 N2          7.4460   -3.1620    1.0340 nb        1 0VU     -0.644000
     10 N3          5.7900   -1.4400    1.5600 nb        1 0VU     -0.696000
     11 N4          7.9830   -1.3030    2.5790 n4        1 0VU     -0.626100
     12 C8          0.3440    2.3350    4.5750 c3        1 0VU      0.008800
     13 O1          2.8590    1.4960    3.5640 os        1 0VU     -0.628300
     14 C9         -0.3710    1.8590    5.8370 c3        1 0VU     -0.097400
     15 C10        -1.6610    1.1480    5.4880 c3        1 0VU     -0.091400
     16 C11        -1.4130    0.0310    4.4980 c3        1 0VU     -0.097400
     17 C12        -0.6610    0.5220    3.2600 c3        1 0VU      0.008800
     18 C13         4.8520   -2.0850    0.8100 cp        1 0VU      0.537800
     19 C14         5.1900   -3.2690    0.1190 ca        1 0VU     -0.285600
     20 C15         6.5110   -3.7560    0.2610 ca        1 0VU      0.471200
     21 C16         7.0160   -2.0180    1.6600 ca        1 0VU      0.706900
     22 C17         7.2320   -0.3330    3.4010 ca        1 0VU      0.067600
     23 C18         6.5380   -0.7900    4.5360 ca        1 0VU     -0.113500
     24 C19         5.5440    0.0170    5.0820 ca        1 0VU      0.015500
     25 C20         5.2320    1.2680    4.5220 ca        1 0VU     -0.373500
     26 C21         6.0590    1.7690    3.5080 ca        1 0VU      0.015500
     27 C22         7.0600    0.9810    2.9360 ca        1 0VU     -0.113500
     28 S1          3.8540    2.0740    4.9770 sy        1 0VU      1.733800
     29 O2          3.7800    3.3790    4.6010 o         1 0VU     -0.587300
     30 O3          3.0980    1.4190    5.9050 o         1 0VU     -0.587300
     31 N5          5.1630    2.9230    6.9150 n3        1 0VU     -1.104400
     32 H1          0.8650   -0.7130   -1.2120 ha        1 0VU      0.180000
     33 H2          2.9690   -2.0430   -1.2170 ha        1 0VU      0.165000
     34 H3          3.7510   -0.7260    2.8550 ha        1 0VU      0.147000
     35 H4          0.2670    0.7140    0.7300 ha        1 0VU      0.165000
     36 H5          8.4520   -2.0010    3.1750 hn        1 0VU      0.486800
     37 H6         -0.2830    3.1230    4.0610 h1        1 0VU      0.077950
     38 H7          1.3310    2.8000    4.8490 h1        1 0VU      0.077950
     39 H8         -0.5870    2.7610    6.4690 hc        1 0VU      0.077700
     40 H9          0.3030    1.1830    6.4260 hc        1 0VU      0.077700
     41 H10        -2.1210    0.7260    6.4210 hc        1 0VU      0.074200
     42 H11        -2.3930    1.8810    5.0580 hc        1 0VU      0.074200
     43 H12        -0.8360   -0.7940    4.9920 hc        1 0VU      0.077700
     44 H13        -2.3900   -0.3970    4.1490 hc        1 0VU      0.077700
     45 H14        -0.4010   -0.3690    2.6220 h1        1 0VU      0.077950
     46 H15        -1.3250    1.2170    2.6660 h1        1 0VU      0.077950
     47 H16         4.4550   -3.8060   -0.5000 ha        1 0VU      0.201000
     48 H17         6.8480   -4.6790   -0.2600 h4        1 0VU      0.089100
     49 H18         6.7320   -1.7840    4.9750 ha        1 0VU      0.181000
     50 H19         4.9620   -0.3570    5.9480 ha        1 0VU      0.193500
     51 H20         5.8890    2.7920    3.1120 ha        1 0VU      0.193500
     52 H21         7.6560    1.3880    2.0990 ha        1 0VU      0.181000
     53 H22         4.6780    2.6450    7.7490 hn        1 0VU      0.388467
     54 H23         6.1170    2.6290    6.9840 hn        1 0VU      0.388467
     55 H42         8.6860   -0.8220    1.9990 hn        1 0VU      0.486800
     56 H53         5.1390    3.9250    6.8460 hn        1 0VU      0.388467
@<TRIPOS>BOND
     1    1    2 ar  
     2    1    6 ar  
     3    1   32 1   
     4    2    3 ar  
     5    2   33 1   
     6    3    4 ar  
     7    3   18 1   
     8    4    5 ar  
     9    4   34 1   
    10    5    6 ar  
    11    5    7 1   
    12    6   35 1   
    13    7    8 2   
    14    7   13 1   
    15    8   12 1   
    16    8   17 1   
    17    9   20 ar  
    18    9   21 ar  
    19   10   18 ar  
    20   10   21 ar  
    21   11   21 1   
    22   11   22 1   
    23   11   36 1   
    24   11   55 1   
    25   12   14 1   
    26   12   37 1   
    27   12   38 1   
    28   13   28 1   
    29   14   15 1   
    30   14   39 1   
    31   14   40 1   
    32   15   16 1   
    33   15   41 1   
    34   15   42 1   
    35   16   17 1   
    36   16   43 1   
    37   16   44 1   
    38   17   45 1   
    39   17   46 1   
    40   18   19 ar  
    41   19   20 ar  
    42   19   47 1   
    43   20   48 1   
    44   22   23 ar  
    45   22   27 ar  
    46   23   24 ar  
    47   23   49 1   
    48   24   25 ar  
    49   24   50 1   
    50   25   26 ar  
    51   25   28 1   
    52   26   27 ar  
    53   26   51 1   
    54   27   52 1   
    55   28   29 2   
    56   28   30 2   
    57   31   53 1   
    58   31   54 1   
    59   31   56 1   
@<TRIPOS>SUBSTRUCTURE
     1 0VU         1 TEMP              0 ****  ****    0 ROOT
