@<TRIPOS>MOLECULE
0VU
   55    58     1     0     0
SMALL
bcc


@<TRIPOS>ATOM
      1 C1         -0.1470    0.0160   -0.4240 ca        1 0VU     -0.138000
      2 C2          1.2400    0.1370   -0.4460 ca        1 0VU     -0.086000
      3 C3          1.9420    0.3760    0.7460 cp        1 0VU     -0.192500
      4 C4          1.2450    0.4710    1.9560 ca        1 0VU     -0.040000
      5 C5         -0.1480    0.3380    1.9700 ca        1 0VU     -0.136600
      6 C6         -0.8460    0.1220    0.7790 ca        1 0VU     -0.069000
      7 C7         -0.8530    0.5280    3.2750 c         1 0VU      0.661700
      8 N1         -1.8920   -0.3300    3.6240 n         1 0VU     -0.447800
      9 N2          6.1720    0.9380    0.6390 nb        1 0VU     -0.705000
     10 N3          4.1500    0.0720    1.7370 nb        1 0VU     -0.698000
     11 N4          6.2810   -0.2740    2.7290 nu        1 0VU     -0.686300
     12 C8         -2.6000   -0.1110    4.8730 c3        1 0VU      0.078000
     13 O1         -0.5490    1.5020    3.9960 o         1 0VU     -0.597100
     14 C9         -2.2900   -1.1400    5.9600 c3        1 0VU     -0.102400
     15 C10        -2.4510   -2.5510    5.4360 c3        1 0VU     -0.080400
     16 C11        -1.6400   -2.7560    4.1750 c3        1 0VU     -0.102400
     17 C12        -1.9650   -1.6880    3.1270 c3        1 0VU      0.078000
     18 C13         3.4020    0.5510    0.7090 cp        1 0VU      0.541800
     19 C14         3.9990    1.2280   -0.3840 ca        1 0VU     -0.344600
     20 C15         5.3920    1.3910   -0.3620 ca        1 0VU      0.450200
     21 C16         5.5090    0.2890    1.6590 ca        1 0VU      0.826900
     22 C17         7.3530    0.2970    3.3350 ca        1 0VU      0.338600
     23 C18         7.8150    1.6300    3.0830 ca        1 0VU     -0.222000
     24 C19         8.9120    2.1230    3.7360 ca        1 0VU      0.054000
     25 C20         9.6420    1.3690    4.6980 ca        1 0VU     -0.671500
     26 C21         9.1670    0.0520    4.9530 ca        1 0VU      0.054000
     27 C22         8.0740   -0.4700    4.3190 ca        1 0VU     -0.222000
     28 S1         10.9400    1.9230    5.3660 sy        1 0VU      1.522200
     29 O2         11.7270    1.0070    6.0330 o         1 0VU     -0.583300
     30 O3         11.4860    3.0590    4.8060 o         1 0VU     -0.583300
     31 N5         10.0900    2.7660    6.9400 nz        1 0VU     -0.778500
     32 H1         -0.6950   -0.1610   -1.3620 ha        1 0VU      0.151000
     33 H2          1.7830    0.0400   -1.3990 ha        1 0VU      0.141000
     34 H3          1.7740    0.6720    2.9020 ha        1 0VU      0.163000
     35 H4         -1.9450    0.0410    0.7870 ha        1 0VU      0.157000
     36 H5          5.9550   -1.1590    3.0690 hn        1 0VU      0.481800
     37 H6         -3.7010   -0.1580    4.6320 h1        1 0VU      0.061950
     38 H7         -2.3660    0.9210    5.2610 h1        1 0VU      0.061950
     39 H8         -2.9890   -0.9670    6.8180 hc        1 0VU      0.051200
     40 H9         -1.2450   -0.9910    6.3380 hc        1 0VU      0.051200
     41 H10        -3.5340   -2.7480    5.2200 hc        1 0VU      0.048200
     42 H11        -2.1260   -3.2860    6.2180 hc        1 0VU      0.048200
     43 H12        -1.8660   -3.7610    3.7320 hc        1 0VU      0.051200
     44 H13        -0.5470   -2.7300    4.4190 hc        1 0VU      0.051200
     45 H14        -1.2720   -1.8210    2.2510 h1        1 0VU      0.061950
     46 H15        -3.0220   -1.8490    2.7650 h1        1 0VU      0.061950
     47 H16         3.3910    1.6220   -1.2090 ha        1 0VU      0.179000
     48 H17         5.9270    1.9080   -1.1830 h4        1 0VU      0.050100
     49 H18         7.2950    2.2740    2.3540 ha        1 0VU      0.176500
     50 H19         9.2600    3.1490    3.5010 ha        1 0VU      0.163000
     51 H20         9.7200   -0.5740    5.6810 ha        1 0VU      0.163000
     52 H21         7.7520   -1.4990    4.5520 ha        1 0VU      0.176500
     53 H22        10.2950    3.7600    6.9530 hn        1 0VU      0.443800
     54 H23         9.0850    2.6470    6.9330 hn        1 0VU      0.443800
     55 H53        10.4560    2.3560    7.7930 hn        1 0VU      0.443800
@<TRIPOS>BOND
     1    1    2 ar  
     2    1    6 ar  
     3    1   32 1   
     4    2    3 ar  
     5    2   33 1   
     6    3    4 ar  
     7    3   18 1   
     8    4    5 ar  
     9    4   34 1   
    10    5    6 ar  
    11    5    7 1   
    12    6   35 1   
    13    7    8 1   
    14    7   13 2   
    15    8   12 1   
    16    8   17 1   
    17    9   20 ar  
    18    9   21 ar  
    19   10   18 ar  
    20   10   21 ar  
    21   11   21 1   
    22   11   22 1   
    23   11   36 1   
    24   12   14 1   
    25   12   37 1   
    26   12   38 1   
    27   14   15 1   
    28   14   39 1   
    29   14   40 1   
    30   15   16 1   
    31   15   41 1   
    32   15   42 1   
    33   16   17 1   
    34   16   43 1   
    35   16   44 1   
    36   17   45 1   
    37   17   46 1   
    38   18   19 ar  
    39   19   20 ar  
    40   19   47 1   
    41   20   48 1   
    42   22   23 ar  
    43   22   27 ar  
    44   23   24 ar  
    45   23   49 1   
    46   24   25 ar  
    47   24   50 1   
    48   25   26 ar  
    49   25   28 1   
    50   26   27 ar  
    51   26   51 1   
    52   27   52 1   
    53   28   29 2   
    54   28   30 2   
    55   28   31 1   
    56   31   53 1   
    57   31   54 1   
    58   31   55 1   
@<TRIPOS>SUBSTRUCTURE
     1 0VU         1 TEMP              0 ****  ****    0 ROOT
