@<TRIPOS>MOLECULE
0VU
   55    58     1     0     0
SMALL
bcc


@<TRIPOS>ATOM
      1 C1         -0.1530    0.0040   -0.4180 ca        1 0VU     -0.138000
      2 C2          1.2340    0.1200   -0.4420 ca        1 0VU     -0.086000
      3 C3          1.9380    0.3630    0.7470 cp        1 0VU     -0.192500
      4 C4          1.2440    0.4680    1.9580 ca        1 0VU     -0.040000
      5 C5         -0.1500    0.3400    1.9750 ca        1 0VU     -0.136600
      6 C6         -0.8500    0.1190    0.7860 ca        1 0VU     -0.069000
      7 C7         -0.8520    0.5410    3.2800 c         1 0VU      0.661700
      8 N1         -1.8940   -0.3110    3.6350 n         1 0VU     -0.447800
      9 N2          6.1700    0.9090    0.6300 nb        1 0VU     -0.705000
     10 N3          4.1470    0.0560    1.7360 nb        1 0VU     -0.698000
     11 N4          6.2780   -0.2940    2.7250 nh        1 0VU     -0.686300
     12 C8         -2.5990   -0.0820    4.8840 c3        1 0VU      0.078000
     13 O1         -0.5430    1.5180    3.9940 o         1 0VU     -0.597100
     14 C9         -2.2910   -1.1060    5.9770 c3        1 0VU     -0.102400
     15 C10        -2.4580   -2.5190    5.4620 c3        1 0VU     -0.080400
     16 C11        -1.6500   -2.7360    4.2000 c3        1 0VU     -0.102400
     17 C12        -1.9720   -1.6720    3.1470 c3        1 0VU      0.078000
     18 C13         3.3990    0.5330    0.7070 cp        1 0VU      0.541800
     19 C14         3.9960    1.2030   -0.3900 ca        1 0VU     -0.344600
     20 C15         5.3910    1.3610   -0.3720 ca        1 0VU      0.450200
     21 C16         5.5070    0.2670    1.6540 ca        1 0VU      0.826900
     22 C17         7.3550    0.2740    3.3250 ca        1 0VU      0.338600
     23 C18         7.8240    1.6030    3.0660 ca        1 0VU     -0.222000
     24 C19         8.9250    2.0940    3.7140 ca        1 0VU      0.054000
     25 C20         9.6520    1.3410    4.6790 ca        1 0VU     -0.671500
     26 C21         9.1710    0.0280    4.9410 ca        1 0VU      0.054000
     27 C22         8.0740   -0.4920    4.3120 ca        1 0VU     -0.222000
     28 S1         10.9550    1.8910    5.3410 sy        1 0VU      1.522200
     29 O2         11.7390    0.9740    6.0110 o         1 0VU     -0.583300
     30 O3         11.5060    3.0210    4.7750 o         1 0VU     -0.583300
     31 N5         10.1130    2.7460    6.9120 n4        1 0VU     -0.778500
     32 H1         -0.7040   -0.1760   -1.3540 ha        1 0VU      0.151000
     33 H2          1.7750    0.0160   -1.3950 ha        1 0VU      0.141000
     34 H3          1.7750    0.6730    2.9020 ha        1 0VU      0.163000
     35 H4         -1.9500    0.0430    0.7960 ha        1 0VU      0.157000
     36 H5          5.9480   -1.1760    3.0710 hn        1 0VU      0.481800
     37 H6         -2.3610    0.9510    5.2650 h1        1 0VU      0.061950
     38 H7         -3.7010   -0.1260    4.6440 h1        1 0VU      0.061950
     39 H8         -2.9890   -0.9250    6.8350 hc        1 0VU      0.051200
     40 H9         -1.2460   -0.9590    6.3520 hc        1 0VU      0.051200
     41 H10        -2.1350   -3.2510    6.2470 hc        1 0VU      0.048200
     42 H11        -3.5430   -2.7140    5.2480 hc        1 0VU      0.048200
     43 H12        -1.8810   -3.7420    3.7640 hc        1 0VU      0.051200
     44 H13        -0.5560   -2.7120    4.4430 hc        1 0VU      0.051200
     45 H14        -3.0300   -1.8320    2.7870 h1        1 0VU      0.061950
     46 H15        -1.2820   -1.8130    2.2700 h1        1 0VU      0.061950
     47 H16         3.3880    1.5950   -1.2160 ha        1 0VU      0.179000
     48 H17         5.9260    1.8720   -1.1960 h4        1 0VU      0.050100
     49 H18         7.3060    2.2460    2.3350 ha        1 0VU      0.176500
     50 H19         9.2780    3.1160    3.4730 ha        1 0VU      0.163000
     51 H20         9.7220   -0.5980    5.6710 ha        1 0VU      0.163000
     52 H21         7.7470   -1.5180    4.5510 ha        1 0VU      0.176500
     53 H22         9.1070    2.6320    6.9080 hn        1 0VU      0.443800
     54 H23        10.3230    3.7390    6.9210 hn        1 0VU      0.443800
     55 H53        10.4790    2.3380    7.7670 hn        1 0VU      0.443800
@<TRIPOS>BOND
     1    1    2 ar  
     2    1    6 ar  
     3    1   32 1   
     4    2    3 ar  
     5    2   33 1   
     6    3    4 ar  
     7    3   18 1   
     8    4    5 ar  
     9    4   34 1   
    10    5    6 ar  
    11    5    7 1   
    12    6   35 1   
    13    7    8 1   
    14    7   13 2   
    15    8   12 1   
    16    8   17 1   
    17    9   20 ar  
    18    9   21 ar  
    19   10   18 ar  
    20   10   21 ar  
    21   11   21 1   
    22   11   22 1   
    23   11   36 1   
    24   12   14 1   
    25   12   37 1   
    26   12   38 1   
    27   14   15 1   
    28   14   39 1   
    29   14   40 1   
    30   15   16 1   
    31   15   41 1   
    32   15   42 1   
    33   16   17 1   
    34   16   43 1   
    35   16   44 1   
    36   17   45 1   
    37   17   46 1   
    38   18   19 ar  
    39   19   20 ar  
    40   19   47 1   
    41   20   48 1   
    42   22   23 ar  
    43   22   27 ar  
    44   23   24 ar  
    45   23   49 1   
    46   24   25 ar  
    47   24   50 1   
    48   25   26 ar  
    49   25   28 1   
    50   26   27 ar  
    51   26   51 1   
    52   27   52 1   
    53   28   29 2   
    54   28   30 2   
    55   28   31 1   
    56   31   53 1   
    57   31   54 1   
    58   31   55 1   
@<TRIPOS>SUBSTRUCTURE
     1 0VU         1 TEMP              0 ****  ****    0 ROOT
