@<TRIPOS>MOLECULE
0VU
   54    48     1     0     0
SMALL
bcc


@<TRIPOS>ATOM
      1 C1         -3.0750    0.0250   -0.6900 c1        1 0VU     -0.115500
      2 C2         -1.7030   -0.0780   -0.8830 c1        1 0VU     -0.070000
      3 C3         -0.8580   -0.2200    0.2050 c1        1 0VU     -0.060000
      4 C4         -1.3840   -0.2600    1.4930 c2        1 0VU     -0.068000
      5 C5         -2.7620   -0.1560    1.6870 c1        1 0VU     -0.117000
      6 C6         -3.6030   -0.0150    0.6000 c1        1 0VU     -0.115500
      7 C7         -3.3610   -0.3410    3.1160 c2        1 0VU      0.336000
      8 N1         -4.8160   -0.2320    3.3270 n         1 0VU     -0.307000
      9 N2          3.2170   -0.9770   -0.7080 n1        1 0VU     -0.207000
     10 N3          1.3790    0.5060   -0.6100 n1        1 0VU     -0.216000
     11 N4          3.0480    0.8410   -2.2190 n3        1 0VU     -0.248000
     12 C8         -5.4440   -0.4050    4.6320 c3        1 0VU     -0.038000
     13 O1         -2.6270   -0.5860    4.0550 o         1 0VU     -0.355000
     14 C9         -6.3630    0.7530    4.9870 c3        1 0VU     -0.182000
     15 C10        -7.3380    1.0470    3.9070 c3        1 0VU     -0.158000
     16 C11        -6.6750    1.2180    2.5890 c3        1 0VU     -0.182000
     17 C12        -5.7550    0.0570    2.2530 c3        1 0VU     -0.038000
     18 C13         0.6360   -0.4480   -0.0160 c1        1 0VU      0.097000
     19 C14         1.1800   -1.6740    0.2360 c1        1 0VU     -0.267000
     20 C15         2.4780   -1.9320   -0.1150 c1        1 0VU     -0.004000
     21 C16         2.6750    0.2470   -0.9600 c1        1 0VU      0.158000
     22 C17         4.3430    0.5610   -2.7940 c2        1 0VU      0.137000
     23 C18         4.4690   -0.4270   -3.7650 c2        1 0VU     -0.155000
     24 C19         5.6780   -0.5980   -4.4310 c1        1 0VU      0.001000
     25 C20         6.7610    0.2180   -4.1270 c1        1 0VU     -0.858000
     26 C21         6.6360    1.2040   -3.1580 c1        1 0VU      0.004000
     27 C22         5.4250    1.3760   -2.4910 c1        1 0VU     -0.207000
     28 S1          8.3660   -0.1100   -4.8700 s4        1 0VU      2.087800
     29 O2          8.9210    1.0800   -5.4610 o         1 0VU     -0.548400
     30 O3          8.2440   -0.9660   -6.0240 o         1 0VU     -0.548400
     31 N5          9.3900   -0.7580   -3.7520 n2        1 0VU     -0.953000
     32 H1         -3.6670    0.1240   -1.4550 ha        1 0VU      0.144500
     33 H2         -1.3340   -0.0500   -1.7870 ha        1 0VU      0.153000
     34 H3         -0.7870   -0.3600    2.2620 ha        1 0VU      0.153000
     35 H4         -4.5540    0.0570    0.7330 ha        1 0VU      0.144500
     36 H5          2.4560    1.3650   -2.6670 hn        1 0VU      0.248000
     37 H6         -5.9660   -1.2340    4.6260 h1        1 0VU      0.100000
     38 H7         -4.7470   -0.4750    5.3110 h1        1 0VU      0.100000
     39 H8         -5.8210    1.5490    5.1510 hc        1 0VU      0.090000
     40 H9         -6.8550    0.5290    5.8050 hc        1 0VU      0.090000
     41 H10        -7.9780    0.3090    3.8470 hc        1 0VU      0.083000
     42 H11        -7.8210    1.8720    4.1300 hc        1 0VU      0.083000
     43 H12        -6.1520    2.0430    2.6020 hc        1 0VU      0.090000
     44 H13        -7.3650    1.2890    1.8920 hc        1 0VU      0.090000
     45 H14        -5.2560    0.2740    1.4500 h1        1 0VU      0.100000
     46 H15        -6.3010   -0.7420    2.0840 h1        1 0VU      0.100000
     47 H16         0.6420   -2.3690    0.6670 ha        1 0VU      0.167000
     48 H17         2.8670   -2.8100    0.0650 ha        1 0VU      0.170000
     49 H18         3.7060   -1.0020   -3.9790 ha        1 0VU      0.163000
     50 H19         5.7650   -1.2920   -5.1130 ha        1 0VU      0.154000
     51 H20         7.3970    1.7780   -2.9450 ha        1 0VU      0.154000
     52 H21         5.3370    2.0710   -1.8090 ha        1 0VU      0.140000
     53 H22         9.5250   -1.6660   -3.7240 hn        1 0VU      0.241500
     54 H23         9.8280   -0.2120   -3.1600 hn        1 0VU      0.241500
@<TRIPOS>BOND
     1    1    6 1   
     2    1   32 1   
     3    2    3 1   
     4    2   33 1   
     5    3    4 1   
     6    4    5 1   
     7    4   34 1   
     8    5    7 1   
     9    6   35 1   
    10    7    8 1   
    11    7   13 1   
    12    8   12 1   
    13    8   17 1   
    14    9   20 1   
    15   10   21 1   
    16   11   21 1   
    17   11   22 1   
    18   11   36 1   
    19   12   14 1   
    20   12   37 1   
    21   12   38 1   
    22   14   15 1   
    23   14   39 1   
    24   14   40 1   
    25   15   16 1   
    26   15   41 1   
    27   15   42 1   
    28   16   17 1   
    29   16   43 1   
    30   16   44 1   
    31   17   45 1   
    32   17   46 1   
    33   18   19 1   
    34   19   47 1   
    35   20   48 1   
    36   22   23 1   
    37   22   27 1   
    38   23   24 1   
    39   23   49 1   
    40   24   50 1   
    41   25   26 1   
    42   25   28 1   
    43   26   51 1   
    44   27   52 1   
    45   28   29 1   
    46   28   30 1   
    47   31   53 1   
    48   31   54 1   
@<TRIPOS>SUBSTRUCTURE
     1 0VU         1 TEMP              0 ****  ****    0 ROOT
