@<TRIPOS>MOLECULE
0VV
   26    26     1     0     0
SMALL
bcc


@<TRIPOS>ATOM
      1 C1          0.4910   -0.1820   -0.1170 ca        1 0VV     -0.109000
      2 C2          1.8360   -0.3030    0.2330 ca        1 0VV     -0.083000
      3 C3          2.2320   -0.2590    1.5680 ca        1 0VV     -0.133000
      4 C8         -1.1510    0.2060    3.2710 c3        1 0VV      0.256100
      5 C10         0.6920    0.0990    4.9370 c2        1 0VV      1.147100
      6 C4          1.2560   -0.0900    2.5680 ca        1 0VV      0.111600
      7 C5         -0.1050    0.0310    2.2160 ca        1 0VV     -0.136300
      8 C6         -0.4770   -0.0170    0.8720 ca        1 0VV     -0.084000
      9 N7          1.6320   -0.0380    3.9320 nh        1 0VV     -0.687600
     10 N9         -0.6390    0.2380    4.6260 nh        1 0VV     -0.817200
     11 N11         1.0910    0.1080    6.2190 n2        1 0VV     -1.377600
     12 S12         1.5050    0.0910    7.5520 s4        1 0VV      2.016700
     13 N13         1.8810    2.3770    7.8080 n3        1 0VV     -1.105400
     14 O14         0.5690    0.0780    8.5480 o         1 0VV     -0.493400
     15 O15         2.8040   -0.2110    7.8510 o         1 0VV     -0.493400
     16 H1          0.1910   -0.2190   -1.1770 ha        1 0VV      0.165000
     17 H2          2.5990   -0.4350   -0.5520 ha        1 0VV      0.164000
     18 H3          3.2980   -0.3570    1.8250 ha        1 0VV      0.155000
     19 H4         -1.7060    1.1770    3.0910 h1        1 0VV      0.085200
     20 H5         -1.8990   -0.6410    3.2010 h1        1 0VV      0.085200
     21 H6         -1.5400    0.0770    0.5970 ha        1 0VV      0.158000
     22 H7          2.5970   -0.1630    4.1590 hn        1 0VV      0.485800
     23 H9          1.2920    2.6840    8.5630 hn        1 0VV      0.401800
     24 H10         2.8420    2.4820    8.0830 hn        1 0VV      0.401800
     25 H11        -1.3110    0.3150    5.3600 hn        1 0VV      0.483800
     26 H133        1.7070    2.9490    7.0040 hn        1 0VV      0.401800
@<TRIPOS>BOND
     1    1    2 ar  
     2    1    8 ar  
     3    1   16 1   
     4    2    3 ar  
     5    2   17 1   
     6    3    6 ar  
     7    3   18 1   
     8    4    7 1   
     9    4   10 1   
    10    4   19 1   
    11    4   20 1   
    12    5    9 1   
    13    5   10 1   
    14    5   11 2   
    15    6    7 ar  
    16    6    9 1   
    17    7    8 ar  
    18    8   21 1   
    19    9   22 1   
    20   10   25 1   
    21   11   12 1   
    22   12   14 1   
    23   12   15 1   
    24   13   23 1   
    25   13   24 1   
    26   13   26 1   
@<TRIPOS>SUBSTRUCTURE
     1 0VV         1 TEMP              0 ****  ****    0 ROOT
