@<TRIPOS>MOLECULE
0VV
   25    26     1     0     0
SMALL
bcc


@<TRIPOS>ATOM
      1 C1          4.5770    0.0850    0.0670 ca        1 0VV     -0.154000
      2 C2          4.1050   -1.2130    0.2690 ca        1 0VV     -0.089000
      3 C3          2.7400   -1.4750    0.3130 ca        1 0VV     -0.174000
      4 C8          1.3400    2.0310   -0.2050 c3        1 0VV      0.273100
      5 C10        -0.5100    0.3550   -0.0810 c2        1 0VV      1.137100
      6 C4          1.8180   -0.4160    0.1560 ca        1 0VV      0.171600
      7 C5          2.3020    0.8960   -0.0500 ca        1 0VV     -0.148300
      8 C6          3.6750    1.1340   -0.0930 ca        1 0VV     -0.086000
      9 N7          0.4410   -0.6500    0.2210 nh        1 0VV     -0.748600
     10 N9         -0.0330    1.6360   -0.3660 nh        1 0VV     -0.870200
     11 N11        -1.7700    0.0820   -0.1010 ne        1 0VV     -1.146300
     12 S12        -3.2710   -0.2270   -0.1250 sy        1 0VV      1.766300
     13 N13        -3.4300   -1.7830    0.3310 n3        1 0VV     -1.031700
     14 O14        -3.9490    0.5640    0.8420 o         1 0VV     -0.680300
     15 O15        -3.7750   -0.1280   -1.4510 o         1 0VV     -0.680300
     16 H1          5.6590    0.2790    0.0330 ha        1 0VV      0.141000
     17 H2          4.8180   -2.0420    0.3940 ha        1 0VV      0.139000
     18 H3          2.3850   -2.5040    0.4710 ha        1 0VV      0.140000
     19 H4          1.4320    2.7070    0.7000 h1        1 0VV      0.053700
     20 H5          1.6270    2.6420   -1.1130 h1        1 0VV      0.053700
     21 H6          4.0420    2.1590   -0.2560 ha        1 0VV      0.139000
     22 H7          0.1240   -1.5880    0.3220 hn        1 0VV      0.460800
     23 H9         -3.4840   -2.5310   -0.3100 hn        1 0VV      0.433800
     24 H10        -3.5750   -2.0620    1.2660 hn        1 0VV      0.433800
     25 H11        -0.7010    2.3640   -0.4890 hn        1 0VV      0.465800
@<TRIPOS>BOND
     1    1    2 ar  
     2    1    8 ar  
     3    1   16 1   
     4    2    3 ar  
     5    2   17 1   
     6    3    6 ar  
     7    3   18 1   
     8    4    7 1   
     9    4   10 1   
    10    4   19 1   
    11    4   20 1   
    12    5    9 1   
    13    5   10 1   
    14    5   11 2   
    15    6    7 ar  
    16    6    9 1   
    17    7    8 ar  
    18    8   21 1   
    19    9   22 1   
    20   10   25 1   
    21   11   12 1   
    22   12   13 1   
    23   12   14 2   
    24   12   15 2   
    25   13   23 1   
    26   13   24 1   
@<TRIPOS>SUBSTRUCTURE
     1 0VV         1 TEMP              0 ****  ****    0 ROOT
