@<TRIPOS>MOLECULE
0VV
   26    26     1     0     0
SMALL
bcc


@<TRIPOS>ATOM
      1 C1          0.4960   -0.2390   -0.1090 ca        1 0VV     -0.109000
      2 C2          1.8360   -0.3900    0.2490 ca        1 0VV     -0.083000
      3 C3          2.2260   -0.3350    1.5850 ca        1 0VV     -0.133000
      4 C8         -1.1510    0.2490    3.2630 c3        1 0VV      0.256100
      5 C10         0.6800    0.1190    4.9400 c2        1 0VV      1.147100
      6 C4          1.2500   -0.1230    2.5780 ca        1 0VV      0.111600
      7 C5         -0.1060    0.0290    2.2160 ca        1 0VV     -0.136300
      8 C6         -0.4720   -0.0300    0.8720 ca        1 0VV     -0.084000
      9 N7          1.6210   -0.0590    3.9420 nu        1 0VV     -0.687600
     10 N9         -0.6450    0.2890    4.6200 nu        1 0VV     -0.817200
     11 N11         1.0730    0.1380    6.2240 n2        1 0VV     -1.377600
     12 S12         1.4800    0.1310    7.5590 s4        1 0VV      2.016700
     13 N13         1.9140    2.4110    7.7810 n9        1 0VV     -1.105400
     14 O14         0.5390    0.1590    8.5500 o         1 0VV     -0.493400
     15 O15         2.7690   -0.1990    7.8700 o         1 0VV     -0.493400
     16 H1          0.2000   -0.2850   -1.1700 ha        1 0VV      0.165000
     17 H2          2.5990   -0.5550   -0.5290 ha        1 0VV      0.164000
     18 H3          3.2880   -0.4580    1.8510 ha        1 0VV      0.155000
     19 H4         -1.6780    1.2320    3.0650 h1        1 0VV      0.085200
     20 H5         -1.9210   -0.5780    3.2030 h1        1 0VV      0.085200
     21 H6         -1.5310    0.0870    0.5890 ha        1 0VV      0.158000
     22 H7          2.5810   -0.2070    4.1770 hn        1 0VV      0.485800
     23 H9          1.3290    2.7450    8.5280 hn        1 0VV      0.401800
     24 H10         1.7590    2.9740    6.9680 hn        1 0VV      0.401800
     25 H11        -1.3190    0.3960    5.3500 hn        1 0VV      0.483800
     26 H133        2.8770    2.4950    8.0600 hn        1 0VV      0.401800
@<TRIPOS>BOND
     1    1    2 ar  
     2    1    8 ar  
     3    1   16 1   
     4    2    3 ar  
     5    2   17 1   
     6    3    6 ar  
     7    3   18 1   
     8    4    7 1   
     9    4   10 1   
    10    4   19 1   
    11    4   20 1   
    12    5    9 1   
    13    5   10 1   
    14    5   11 2   
    15    6    7 ar  
    16    6    9 1   
    17    7    8 ar  
    18    8   21 1   
    19    9   22 1   
    20   10   25 1   
    21   11   12 1   
    22   12   14 1   
    23   12   15 1   
    24   13   23 1   
    25   13   24 1   
    26   13   26 1   
@<TRIPOS>SUBSTRUCTURE
     1 0VV         1 TEMP              0 ****  ****    0 ROOT
