@<TRIPOS>MOLECULE
0VV
   25    19     1     0     0
SMALL
bcc


@<TRIPOS>ATOM
      1 C1         -1.3790    0.1530   -3.5530 c1        1 0VV     -0.125500
      2 C2          0.0100    0.1260   -3.5130 c1        1 0VV     -0.125500
      3 C3          0.6680    0.1220   -2.2920 c1        1 0VV     -0.125500
      4 C8         -2.2380    0.1650    0.1580 c3        1 0VV      0.021000
      5 C10        -0.1170    0.0190    1.3970 c1        1 0VV      0.484000
      6 C4         -0.0690    0.1460   -1.0950 c1        1 0VV      0.093000
      7 C5         -1.4420    0.1730   -1.1350 c1        1 0VV     -0.146000
      8 C6         -2.1080    0.1770   -2.3720 c1        1 0VV     -0.125500
      9 N7          0.6180    0.1950    0.1780 n2        1 0VV     -0.324000
     10 N9         -1.5440    0.0870    1.3870 n2        1 0VV     -0.326000
     11 N11         0.5170   -0.2020    2.5130 n1        1 0VV     -1.067000
     12 S12         2.1570   -0.2800    2.5240 ss        1 0VV      2.883000
     13 N13         2.7020   -0.5690    4.0450 n2        1 0VV     -0.943000
     14 O14         2.6380   -1.2690    1.6010 o         1 0VV     -0.967000
     15 O15         2.7390    0.9160    1.9800 o         1 0VV     -0.967000
     16 H1         -1.8430    0.1560   -4.4130 ha        1 0VV      0.140250
     17 H2          0.5220    0.1090   -4.3440 ha        1 0VV      0.140250
     18 H3          1.6440    0.1030   -2.2640 ha        1 0VV      0.140250
     19 H4         -2.7770    0.9840    0.1760 h1        1 0VV      0.092500
     20 H5         -2.8540   -0.5970    0.1190 h1        1 0VV      0.092500
     21 H6         -3.0830    0.1960   -2.4010 ha        1 0VV      0.140250
     22 H7          1.5170    0.3410    0.2060 hn        1 0VV      0.286000
     23 H9          2.4990    0.0110    4.7210 hn        1 0VV      0.236500
     24 H10         3.2320   -1.2960    4.2100 hn        1 0VV      0.236500
     25 H11        -2.0080    0.0330    2.1700 hn        1 0VV      0.256000
@<TRIPOS>BOND
     1    1    8 1   
     2    1   16 1   
     3    2    3 1   
     4    2   17 1   
     5    3   18 1   
     6    4    7 1   
     7    4   10 1   
     8    4   19 1   
     9    4   20 1   
    10    5    9 1   
    11    5   11 1   
    12    6    7 1   
    13    8   21 1   
    14    9   22 1   
    15   10   25 1   
    16   12   14 1   
    17   12   15 1   
    18   13   23 1   
    19   13   24 1   
@<TRIPOS>SUBSTRUCTURE
     1 0VV         1 TEMP              0 ****  ****    0 ROOT
