@<TRIPOS>MOLECULE
0VV
   26    26     1     0     0
SMALL
bcc


@<TRIPOS>ATOM
      1 C1          0.4500   -0.2310   -0.1060 ca        1 0VV     -0.109000
      2 C2          1.7650   -0.5220    0.2610 ca        1 0VV     -0.083000
      3 C3          2.1520   -0.4990    1.5990 ca        1 0VV     -0.133000
      4 C8         -1.1510    0.4580    3.2520 c3        1 0VV      0.256100
      5 C10         0.6480    0.1450    4.9410 c2        1 0VV      1.147100
      6 C4          1.1990   -0.1750    2.5840 ca        1 0VV      0.111600
      7 C5         -0.1300    0.1180    2.2140 ca        1 0VV     -0.136300
      8 C6         -0.4950    0.0880    0.8670 ca        1 0VV     -0.084000
      9 N7          1.5690   -0.1410    3.9500 nh        1 0VV     -0.687600
     10 N9         -0.6500    0.4540    4.6120 nh        1 0VV     -0.817200
     11 N11         1.0340    0.1320    6.2270 n2        1 0VV     -1.377600
     12 S12         1.4310    0.0920    7.5640 s4        1 0VV      2.016700
     13 N13         2.1040    2.3150    7.7730 n3        1 0VV     -1.105400
     14 O14         0.4940    0.2270    8.5500 o         1 0VV     -0.493400
     15 O15         2.6770   -0.3710    7.8850 o         1 0VV     -0.493400
     16 H1          0.1570   -0.2540   -1.1690 ha        1 0VV      0.165000
     17 H2          2.5090   -0.7750   -0.5120 ha        1 0VV      0.164000
     18 H3          3.1930   -0.7330    1.8710 ha        1 0VV      0.155000
     19 H4         -2.0050   -0.2820    3.1940 h1        1 0VV      0.085200
     20 H5         -1.5680    1.4900    3.0450 h1        1 0VV      0.085200
     21 H6         -1.5330    0.3160    0.5780 ha        1 0VV      0.158000
     22 H7          2.5060   -0.3880    4.1910 hn        1 0VV      0.485800
     23 H9          3.0690    2.2990    8.0560 hn        1 0VV      0.401800
     24 H10         1.5550    2.7140    8.5150 hn        1 0VV      0.401800
     25 H11        -1.3120    0.6380    5.3370 hn        1 0VV      0.483800
     26 H133        2.0130    2.8850    6.9550 hn        1 0VV      0.401800
@<TRIPOS>BOND
     1    1    2 ar  
     2    1    8 ar  
     3    1   16 1   
     4    2    3 ar  
     5    2   17 1   
     6    3    6 ar  
     7    3   18 1   
     8    4    7 1   
     9    4   10 1   
    10    4   19 1   
    11    4   20 1   
    12    5    9 1   
    13    5   10 1   
    14    5   11 2   
    15    6    7 ar  
    16    6    9 1   
    17    7    8 ar  
    18    8   21 1   
    19    9   22 1   
    20   10   25 1   
    21   11   12 1   
    22   12   14 1   
    23   12   15 1   
    24   13   23 1   
    25   13   24 1   
    26   13   26 1   
@<TRIPOS>SUBSTRUCTURE
     1 0VV         1 TEMP              0 ****  ****    0 ROOT
