@<TRIPOS>MOLECULE
0VW
   21    21     1     0     0
SMALL
bcc


@<TRIPOS>ATOM
      1 C1          0.6510    0.3240   -0.0650 c2        1 0VW      1.070100
      2 N2         -0.5680    0.6310   -0.4240 ne        1 0VW     -1.100300
      3 N3          1.6500    1.3060   -0.0660 nh        1 0VW     -0.873700
      4 C4          3.0440    0.9720    0.0570 c3        1 0VW      0.214800
      5 C5          3.3570   -0.5070   -0.1530 c3        1 0VW     -0.120400
      6 C6          2.3420   -1.3710    0.5920 c3        1 0VW      0.214800
      7 N7          0.9820   -0.9660    0.3790 nh        1 0VW     -0.873700
      8 S8         -2.0130    0.0600   -0.5720 sy        1 0VW      1.718300
      9 N9         -2.9220    0.7970    0.5480 n3        1 0VW     -1.017700
     10 O10        -2.5590    0.3700   -1.8440 o         1 0VW     -0.692800
     11 O11        -1.9730   -1.3370   -0.2470 o         1 0VW     -0.692800
     12 H2          3.6360    1.5830   -0.6830 h1        1 0VW      0.051200
     13 H3          3.3780    1.2720    1.0940 h1        1 0VW      0.051200
     14 H4          3.3430   -0.7530   -1.2460 hc        1 0VW      0.066200
     15 H5          4.3830   -0.7250    0.2360 hc        1 0VW      0.066200
     16 H6          2.4580   -2.4460    0.2700 h1        1 0VW      0.051200
     17 H7          2.5620   -1.3200    1.6990 h1        1 0VW      0.051200
     18 H8          0.2760   -1.6740    0.3360 hn        1 0VW      0.469800
     19 H9         -3.4170    1.6340    0.3770 hn        1 0VW      0.438300
     20 H10        -3.0410    0.4550    1.4650 hn        1 0VW      0.438300
     21 H1          1.4200    2.1790   -0.4840 hn        1 0VW      0.469800
@<TRIPOS>BOND
     1    1    2 2   
     2    1    3 1   
     3    1    7 1   
     4    2    8 1   
     5    3    4 1   
     6    3   21 1   
     7    4    5 1   
     8    4   12 1   
     9    4   13 1   
    10    5    6 1   
    11    5   14 1   
    12    5   15 1   
    13    6    7 1   
    14    6   16 1   
    15    6   17 1   
    16    7   18 1   
    17    8    9 1   
    18    8   10 2   
    19    8   11 2   
    20    9   19 1   
    21    9   20 1   
@<TRIPOS>SUBSTRUCTURE
     1 0VW         1 TEMP              0 ****  ****    0 ROOT
