@<TRIPOS>MOLECULE
0VW
   22    21     1     0     0
SMALL
bcc


@<TRIPOS>ATOM
      1 C1         -0.5920    0.2850    0.7880 c2        1 0VW      1.142100
      2 N2         -1.6480    0.7840    0.1220 n2        1 0VW     -1.380600
      3 N3          0.5460    1.0460    0.9410 nu        1 0VW     -0.825200
      4 C4          1.6920    0.5800    1.6920 c3        1 0VW      0.196800
      5 C5          1.7980   -0.9400    1.7460 c3        1 0VW     -0.118400
      6 C6          0.4440   -1.5620    2.0670 c3        1 0VW      0.196800
      7 N7         -0.6430   -0.9940    1.2980 nu        1 0VW     -0.825200
      8 S8         -2.7530    1.3110   -0.5430 s4        1 0VW      2.017700
      9 N9         -2.2050    0.6210   -2.7030 n9        1 0VW     -1.104400
     10 O10        -3.9280    0.6110   -0.5610 o         1 0VW     -0.494400
     11 O11        -2.7560    2.6280   -0.9080 o         1 0VW     -0.494400
     12 H2          1.6230    0.9940    2.7410 h1        1 0VW      0.084700
     13 H3          2.6170    1.0070    1.2060 h1        1 0VW      0.084700
     14 H4          2.1870   -1.3370    0.7730 hc        1 0VW      0.092200
     15 H5          2.5300   -1.2260    2.5470 hc        1 0VW      0.092200
     16 H6          0.4750   -2.6700    1.8500 h1        1 0VW      0.084700
     17 H7          0.2130   -1.4260    3.1650 h1        1 0VW      0.084700
     18 H8         -1.4790   -1.5300    1.2080 hn        1 0VW      0.481800
     19 H9         -2.1570    1.4520   -3.2670 hn        1 0VW      0.401467
     20 H10        -1.3510    0.1070   -2.8040 hn        1 0VW      0.401467
     21 H1          0.5660    1.9810    0.5940 hn        1 0VW      0.481800
     22 H93        -2.9700    0.0530   -3.0260 hn        1 0VW      0.401467
@<TRIPOS>BOND
     1    1    2 2   
     2    1    3 1   
     3    1    7 1   
     4    2    8 1   
     5    3    4 1   
     6    3   21 1   
     7    4    5 1   
     8    4   12 1   
     9    4   13 1   
    10    5    6 1   
    11    5   14 1   
    12    5   15 1   
    13    6    7 1   
    14    6   16 1   
    15    6   17 1   
    16    7   18 1   
    17    8   10 1   
    18    8   11 1   
    19    9   19 1   
    20    9   20 1   
    21    9   22 1   
@<TRIPOS>SUBSTRUCTURE
     1 0VW         1 TEMP              0 ****  ****    0 ROOT
