@<TRIPOS>MOLECULE
0VW
   22    21     1     0     0
SMALL
bcc


@<TRIPOS>ATOM
      1 C1         -0.4360   -0.2540    0.3420 c2        1 0VW      1.142100
      2 N2         -1.4530   -0.1200   -0.5260 n2        1 0VW     -1.380600
      3 N3          0.8590   -0.3280   -0.1220 nh        1 0VW     -0.825200
      4 C4          1.9880   -0.5130    0.7630 c3        1 0VW      0.196800
      5 C5          1.6130   -1.1500    2.0970 c3        1 0VW     -0.121400
      6 C6          0.3630   -0.4930    2.6720 c3        1 0VW      0.196800
      7 N7         -0.6890   -0.3090    1.6950 nh        1 0VW     -0.825200
      8 S8         -2.5100   -0.0090   -1.4270 s4        1 0VW      2.017700
      9 N9         -2.6060    2.3190   -1.5470 n3        1 0VW     -1.104400
     10 O10        -2.2690   -0.1210   -2.7680 o         1 0VW     -0.494400
     11 O11        -3.7970   -0.0910   -0.9720 o         1 0VW     -0.494400
     12 H2          2.4600    0.4970    0.9450 h1        1 0VW      0.084200
     13 H3          2.7440   -1.1630    0.2330 h1        1 0VW      0.084200
     14 H4          1.4490   -2.2520    1.9680 hc        1 0VW      0.093200
     15 H5          2.4610   -1.0150    2.8180 hc        1 0VW      0.093200
     16 H6         -0.0470   -1.1290    3.5090 h1        1 0VW      0.084200
     17 H7          0.6270    0.5200    3.0970 h1        1 0VW      0.084200
     18 H8         -1.6310   -0.2730    2.0240 hn        1 0VW      0.481800
     19 H9         -2.4750    2.5620   -2.5140 hn        1 0VW      0.401467
     20 H10        -1.9420    2.8220   -0.9910 hn        1 0VW      0.401467
     21 H1          1.0340   -0.3070   -1.1040 hn        1 0VW      0.481800
     22 H93        -3.5350    2.5830   -1.2680 hn        1 0VW      0.401467
@<TRIPOS>BOND
     1    1    2 2   
     2    1    3 1   
     3    1    7 1   
     4    2    8 1   
     5    3    4 1   
     6    3   21 1   
     7    4    5 1   
     8    4   12 1   
     9    4   13 1   
    10    5    6 1   
    11    5   14 1   
    12    5   15 1   
    13    6    7 1   
    14    6   16 1   
    15    6   17 1   
    16    7   18 1   
    17    8   10 1   
    18    8   11 1   
    19    9   19 1   
    20    9   20 1   
    21    9   22 1   
@<TRIPOS>SUBSTRUCTURE
     1 0VW         1 TEMP              0 ****  ****    0 ROOT
