@<TRIPOS>MOLECULE
0VW
   21    18     1     0     0
SMALL
bcc


@<TRIPOS>ATOM
      1 C1         -0.4890    0.2920   -0.2110 c1        1 0VW      0.471000
      2 N2         -1.1990   -0.4390   -1.0270 n1        1 0VW     -1.079000
      3 N3          0.9780    0.2920   -0.2110 n2        1 0VW     -0.376000
      4 C4          1.5620    0.2920    1.0780 c3        1 0VW     -0.023000
      5 C5          1.0070    1.2900    1.9810 c3        1 0VW     -0.182000
      6 C6         -0.4550    1.1630    2.0670 c3        1 0VW     -0.031000
      7 N7         -1.0910    1.1930    0.7950 n3        1 0VW     -0.326000
      8 S8         -0.4540   -1.4150   -2.1170 ss        1 0VW      2.883000
      9 N9         -1.5680   -2.2030   -3.0300 n2        1 0VW     -0.944000
     10 O10         0.4640   -0.6740   -2.9370 o         1 0VW     -0.970500
     11 O11         0.4350   -2.3380   -1.4670 o         1 0VW     -0.970500
     12 H2          1.4350   -0.5910    1.4750 h1        1 0VW      0.087000
     13 H3          2.5190    0.4570    0.9840 h1        1 0VW      0.087000
     14 H4          1.1750    2.1540    1.5600 hc        1 0VW      0.105500
     15 H5          1.3480    1.0670    2.8680 hc        1 0VW      0.105500
     16 H6         -0.6190    0.2680    2.4200 h1        1 0VW      0.086500
     17 H7         -0.7600    1.9660    2.5310 h1        1 0VW      0.086500
     18 H8         -1.9700    1.4270    0.7300 hn        1 0VW      0.250000
     19 H9         -1.8640   -1.8320   -3.8090 hn        1 0VW      0.234500
     20 H10        -1.8890   -3.0120   -2.7600 hn        1 0VW      0.234500
     21 H1          1.4340    0.6440   -0.9190 hn        1 0VW      0.273000
@<TRIPOS>BOND
     1    1    2 1   
     2    1    7 1   
     3    3    4 1   
     4    3   21 1   
     5    4    5 1   
     6    4   12 1   
     7    4   13 1   
     8    5    6 1   
     9    5   14 1   
    10    5   15 1   
    11    6    7 1   
    12    6   16 1   
    13    6   17 1   
    14    7   18 1   
    15    8   10 1   
    16    8   11 1   
    17    9   19 1   
    18    9   20 1   
@<TRIPOS>SUBSTRUCTURE
     1 0VW         1 TEMP              0 ****  ****    0 ROOT
