@<TRIPOS>MOLECULE
0VW
   22    21     1     0     0
SMALL
bcc


@<TRIPOS>ATOM
      1 C1         -0.4170   -0.2550    0.3280 c2        1 0VW      1.142100
      2 N2         -1.4090   -0.1350   -0.5710 n2        1 0VW     -1.380600
      3 N3          0.8950   -0.2560   -0.0930 nh        1 0VW     -0.825200
      4 C4          2.0010   -0.4220    0.8250 c3        1 0VW      0.196800
      5 C5          1.6090   -1.1210    2.1220 c3        1 0VW     -0.121400
      6 C6          0.3130   -0.5400    2.6740 c3        1 0VW      0.196800
      7 N7         -0.7130   -0.3680    1.6680 nh        1 0VW     -0.825200
      8 S8         -2.4400   -0.0400   -1.5050 s4        1 0VW      2.017700
      9 N9         -2.6420    2.2840   -1.5430 n3        1 0VW     -1.104400
     10 O10        -2.1470   -0.0880   -2.8400 o         1 0VW     -0.494400
     11 O11        -3.7360   -0.1990   -1.1000 o         1 0VW     -0.494400
     12 H2          2.8020   -1.0200    0.3000 h1        1 0VW      0.084200
     13 H3          2.4210    0.6010    1.0560 h1        1 0VW      0.084200
     14 H4          1.4990   -2.2240    1.9520 hc        1 0VW      0.093200
     15 H5          2.4260   -0.9740    2.8770 hc        1 0VW      0.093200
     16 H6          0.5170    0.4690    3.1420 h1        1 0VW      0.084200
     17 H7         -0.0960   -1.2210    3.4750 h1        1 0VW      0.084200
     18 H8         -1.6660   -0.3850    1.9640 hn        1 0VW      0.481800
     19 H9         -2.4910    2.5710   -2.4950 hn        1 0VW      0.401467
     20 H10        -3.5920    2.4940   -1.2880 hn        1 0VW      0.401467
     21 H1          1.1020   -0.1920   -1.0670 hn        1 0VW      0.481800
     22 H93        -2.0230    2.7960   -0.9450 hn        1 0VW      0.401467
@<TRIPOS>BOND
     1    1    2 2   
     2    1    3 1   
     3    1    7 1   
     4    2    8 1   
     5    3    4 1   
     6    3   21 1   
     7    4    5 1   
     8    4   12 1   
     9    4   13 1   
    10    5    6 1   
    11    5   14 1   
    12    5   15 1   
    13    6    7 1   
    14    6   16 1   
    15    6   17 1   
    16    7   18 1   
    17    8   10 1   
    18    8   11 1   
    19    9   19 1   
    20    9   20 1   
    21    9   22 1   
@<TRIPOS>SUBSTRUCTURE
     1 0VW         1 TEMP              0 ****  ****    0 ROOT
