@<TRIPOS>MOLECULE
0VX
   18    17     1     0     0
SMALL
bcc


@<TRIPOS>ATOM
      1 C2          0.6490   -0.0670   -0.1660 c2        1 0VX      1.137500
      2 O4          1.9170   -0.0070    0.3860 os        1 0VX     -0.391400
      3 N1         -0.3040   -0.1730    0.8100 nh        1 0VX     -0.837200
      4 N3          0.5250   -0.0180   -1.4650 n2        1 0VX     -1.289600
      5 C5          0.3040   -0.1900    2.1350 c3        1 0VX      0.167800
      6 C6          1.8170   -0.0770    1.8450 c3        1 0VX      0.109400
      7 S7          0.6040    0.0490   -2.8780 s4        1 0VX      2.003700
      8 N8         -1.6670   -0.0910   -3.3340 n3        1 0VX     -1.105400
      9 O9          0.6990    1.2700   -3.4810 o         1 0VX     -0.470400
     10 O10         0.8650   -1.0890   -3.5840 o         1 0VX     -0.470400
     11 H1         -1.2820   -0.2310    0.6630 hn        1 0VX      0.496800
     12 H2         -0.0700    0.6780    2.7440 h1        1 0VX      0.104700
     13 H3          0.0510   -1.1500    2.6640 h1        1 0VX      0.104700
     14 H4          2.2770    0.8640    2.2340 h1        1 0VX      0.114700
     15 H5          2.4000   -0.9810    2.1530 h1        1 0VX      0.114700
     16 H6         -2.2800   -0.1690   -2.5460 hn        1 0VX      0.403800
     17 H7         -1.9070    0.7360   -3.8540 hn        1 0VX      0.403800
     18 H83        -1.7920   -0.8950   -3.9270 hn        1 0VX      0.403800
@<TRIPOS>BOND
     1    1    2 1   
     2    1    3 1   
     3    1    4 2   
     4    2    6 1   
     5    3    5 1   
     6    3   11 1   
     7    4    7 1   
     8    5    6 1   
     9    5   12 1   
    10    5   13 1   
    11    6   14 1   
    12    6   15 1   
    13    7    9 1   
    14    7   10 1   
    15    8   16 1   
    16    8   17 1   
    17    8   18 1   
@<TRIPOS>SUBSTRUCTURE
     1 0VX         1 TEMP              0 ****  ****    0 ROOT
