@<TRIPOS>MOLECULE
0VX
   18    17     1     0     0
SMALL
bcc


@<TRIPOS>ATOM
      1 C2          0.6490   -0.0630   -0.1660 c2        1 0VX      1.137500
      2 O4          1.9150    0.0220    0.3860 os        1 0VX     -0.391400
      3 N1         -0.2970   -0.2380    0.8060 nu        1 0VX     -0.837200
      4 N3          0.5200    0.0280   -1.4620 n2        1 0VX     -1.289600
      5 C5          0.3150   -0.2820    2.1300 c3        1 0VX      0.167800
      6 C6          1.8220   -0.1040    1.8410 c3        1 0VX      0.109400
      7 S7          0.5930    0.1480   -2.8720 s4        1 0VX      2.003700
      8 N8         -1.6730   -0.0530   -3.3300 n9        1 0VX     -1.105400
      9 O9          0.6450    1.3930   -3.4310 o         1 0VX     -0.470400
     10 O10         0.8910   -0.9540   -3.6200 o         1 0VX     -0.470400
     11 H1         -1.2720   -0.3270    0.6590 hn        1 0VX      0.496800
     12 H2         -0.0890    0.5500    2.7690 h1        1 0VX      0.104700
     13 H3          0.0980   -1.2690    2.6230 h1        1 0VX      0.104700
     14 H4          2.2490    0.8390    2.2640 h1        1 0VX      0.114700
     15 H5          2.4370   -0.9960    2.1160 h1        1 0VX      0.114700
     16 H6         -1.9430    0.7830   -3.8200 hn        1 0VX      0.403800
     17 H7         -2.2810   -0.1810   -2.5440 hn        1 0VX      0.403800
     18 H83        -1.7720   -0.8390   -3.9510 hn        1 0VX      0.403800
@<TRIPOS>BOND
     1    1    2 1   
     2    1    3 1   
     3    1    4 2   
     4    2    6 1   
     5    3    5 1   
     6    3   11 1   
     7    4    7 1   
     8    5    6 1   
     9    5   12 1   
    10    5   13 1   
    11    6   14 1   
    12    6   15 1   
    13    7    9 1   
    14    7   10 1   
    15    8   16 1   
    16    8   17 1   
    17    8   18 1   
@<TRIPOS>SUBSTRUCTURE
     1 0VX         1 TEMP              0 ****  ****    0 ROOT
