@<TRIPOS>MOLECULE
0VX
   18    17     1     0     0
SMALL
bcc


@<TRIPOS>ATOM
      1 C2          0.6510   -0.0680   -0.1680 c2        1 0VX      1.137500
      2 O4          1.9200    0.0080    0.3790 os        1 0VX     -0.391400
      3 N1         -0.2920   -0.2380    0.8080 nh        1 0VX     -0.837200
      4 N3          0.5170    0.0250   -1.4630 n2        1 0VX     -1.289600
      5 C5          0.3240   -0.2880    2.1290 c3        1 0VX      0.167800
      6 C6          1.8310   -0.1200    1.8350 c3        1 0VX      0.109400
      7 S7          0.5860    0.1470   -2.8730 s4        1 0VX      2.003700
      8 N8         -1.6840   -0.0330   -3.3220 n3        1 0VX     -1.105400
      9 O9          0.6460    1.3910   -3.4310 o         1 0VX     -0.470400
     10 O10         0.8710   -0.9570   -3.6230 o         1 0VX     -0.470400
     11 H1         -1.2690   -0.3200    0.6650 hn        1 0VX      0.496800
     12 H2         -0.0710    0.5460    2.7720 h1        1 0VX      0.104700
     13 H3          0.1020   -1.2740    2.6230 h1        1 0VX      0.104700
     14 H4          2.4420   -1.0170    2.1060 h1        1 0VX      0.114700
     15 H5          2.2670    0.8200    2.2570 h1        1 0VX      0.114700
     16 H6         -1.9480    0.8070   -3.8100 hn        1 0VX      0.403800
     17 H7         -1.7930   -0.8170   -3.9430 hn        1 0VX      0.403800
     18 H83        -2.2900   -0.1550   -2.5340 hn        1 0VX      0.403800
@<TRIPOS>BOND
     1    1    2 1   
     2    1    3 1   
     3    1    4 2   
     4    2    6 1   
     5    3    5 1   
     6    3   11 1   
     7    4    7 1   
     8    5    6 1   
     9    5   12 1   
    10    5   13 1   
    11    6   14 1   
    12    6   15 1   
    13    7    9 1   
    14    7   10 1   
    15    8   16 1   
    16    8   17 1   
    17    8   18 1   
@<TRIPOS>SUBSTRUCTURE
     1 0VX         1 TEMP              0 ****  ****    0 ROOT
