@<TRIPOS>MOLECULE
0VX
   17    17     1     0     0
SMALL
bcc


@<TRIPOS>ATOM
      1 C2          0.9190    0.0250   -0.0070 c2        1 0VX      1.070500
      2 O4          1.6240    1.2440   -0.0090 os        1 0VX     -0.428400
      3 N1          1.8240   -1.0430   -0.1980 nh        1 0VX     -0.862200
      4 N3         -0.3380    0.0050    0.1140 ne        1 0VX     -1.056300
      5 C5          3.1860   -0.5490   -0.1580 c3        1 0VX      0.157800
      6 C6          3.0410    0.9870   -0.0970 c3        1 0VX      0.108400
      7 S7         -1.8730    0.2580    0.2320 sy        1 0VX      1.757300
      8 N8         -2.5790   -1.1550   -0.1360 n3        1 0VX     -1.023700
      9 O9         -2.2000    0.5560    1.5800 o         1 0VX     -0.668300
     10 O10        -2.2960    1.2020   -0.7350 o         1 0VX     -0.668300
     11 H1          1.6170   -1.9320    0.1880 hn        1 0VX      0.450800
     12 H2          3.7530   -0.9410    0.7290 h1        1 0VX      0.065200
     13 H3          3.7170   -0.8690   -1.0950 h1        1 0VX      0.065200
     14 H4          3.4070    1.4910   -1.0250 h1        1 0VX      0.077200
     15 H5          3.5100    1.4330    0.8140 h1        1 0VX      0.077200
     16 H6         -2.8000   -1.8430    0.5360 hn        1 0VX      0.438300
     17 H7         -2.8490   -1.4050   -1.0510 hn        1 0VX      0.438300
@<TRIPOS>BOND
     1    1    2 1   
     2    1    3 1   
     3    1    4 2   
     4    2    6 1   
     5    3    5 1   
     6    3   11 1   
     7    4    7 1   
     8    5    6 1   
     9    5   12 1   
    10    5   13 1   
    11    6   14 1   
    12    6   15 1   
    13    7    8 1   
    14    7    9 2   
    15    7   10 2   
    16    8   16 1   
    17    8   17 1   
@<TRIPOS>SUBSTRUCTURE
     1 0VX         1 TEMP              0 ****  ****    0 ROOT
