@<TRIPOS>MOLECULE
0VX
   17    14     1     0     0
SMALL
bcc


@<TRIPOS>ATOM
      1 C2         -0.2170   -0.0070    0.3250 c1        1 0VX      0.497000
      2 O4          1.1910   -0.0070    0.3250 os        1 0VX     -0.223000
      3 N1         -0.6280   -0.0070    1.7250 n2        1 0VX     -0.347000
      4 N3         -0.9990   -0.0070   -0.7200 n1        1 0VX     -1.040000
      5 C5          0.3250   -0.0070    2.5020 c3        1 0VX     -0.079000
      6 C6          1.5890   -0.0070    1.6970 c3        1 0VX     -0.042000
      7 S7         -0.3530   -0.0070   -2.2300 ss        1 0VX      2.923000
      8 N8         -1.5450    0.0410   -3.3580 n2        1 0VX     -0.950000
      9 O9          0.5720    1.0790   -2.4010 o         1 0VX     -0.947500
     10 O10         0.5080   -1.1400   -2.4280 o         1 0VX     -0.947500
     11 H1         -1.4990   -0.0070    1.9950 hn        1 0VX      0.246000
     12 H2          0.2920   -0.8050    3.0630 h1        1 0VX      0.104500
     13 H3          0.2920    0.7910    3.0630 h1        1 0VX      0.104500
     14 H4          2.1120    0.7930    1.8950 h1        1 0VX      0.116500
     15 H5          2.1120   -0.8080    1.8950 h1        1 0VX      0.116500
     16 H6         -1.9020   -0.7350   -3.6780 hn        1 0VX      0.233500
     17 H7         -1.8470    0.8440   -3.6680 hn        1 0VX      0.233500
@<TRIPOS>BOND
     1    1    2 1   
     2    1    4 1   
     3    2    6 1   
     4    3    5 1   
     5    3   11 1   
     6    5    6 1   
     7    5   12 1   
     8    5   13 1   
     9    6   14 1   
    10    6   15 1   
    11    7    9 1   
    12    7   10 1   
    13    8   16 1   
    14    8   17 1   
@<TRIPOS>SUBSTRUCTURE
     1 0VX         1 TEMP              0 ****  ****    0 ROOT
