@<TRIPOS>MOLECULE
0VY
   24    24     1     0     0
SMALL
bcc


@<TRIPOS>ATOM
      1 C2         -0.3380   -0.6010   -0.1230 c2        1 0VY      1.065100
      2 C7         -4.0210   -0.1470    0.2100 c3        1 0VY     -0.090900
      3 C8         -2.7980   -1.0050   -0.1530 c3        1 0VY      0.197800
      4 N1         -1.6540   -0.1130   -0.2950 nh        1 0VY     -0.740600
      5 N3          0.6390    0.1940    0.2180 ne        1 0VY     -1.095300
      6 N4         -0.1060   -1.9570   -0.3760 nh        1 0VY     -0.988800
      7 C5         -1.9920    1.2330    0.1590 c3        1 0VY      0.197800
      8 C6         -3.5100    1.2780    0.3900 c3        1 0VY     -0.090900
      9 S9          2.1860    0.2870    0.4090 sy        1 0VY      1.719300
     10 N10         2.7160    1.3860   -0.6570 n3        1 0VY     -1.016700
     11 O11         2.5150    0.7530    1.7090 o         1 0VY     -0.691800
     12 O12         2.7570   -0.9770    0.0460 o         1 0VY     -0.691800
     13 H1         -4.7840   -0.1990   -0.6030 hc        1 0VY      0.056450
     14 H2         -2.6290   -1.7850    0.6410 h1        1 0VY      0.056700
     15 H4          0.8370   -2.2790   -0.4080 hn        1 0VY      0.448800
     16 H5         -1.4470    1.5080    1.1040 h1        1 0VY      0.056700
     17 H6         -3.9930    1.9690   -0.3440 hc        1 0VY      0.056450
     18 H7          2.7940    2.3470   -0.4480 hn        1 0VY      0.438300
     19 H8          2.9970    1.1620   -1.5750 hn        1 0VY      0.438300
     20 H9         -4.4920   -0.5270    1.1490 hc        1 0VY      0.056450
     21 H10        -2.9600   -1.5310   -1.1340 h1        1 0VY      0.056700
     22 H3         -0.8070   -2.5260   -0.7790 hn        1 0VY      0.448800
     23 H11        -1.6800    1.9550   -0.6450 h1        1 0VY      0.056700
     24 H12        -3.7320    1.6590    1.4170 hc        1 0VY      0.056450
@<TRIPOS>BOND
     1    1    4 1   
     2    1    5 2   
     3    1    6 1   
     4    2    3 1   
     5    2    8 1   
     6    2   13 1   
     7    2   20 1   
     8    3    4 1   
     9    3   14 1   
    10    3   21 1   
    11    4    7 1   
    12    5    9 1   
    13    6   15 1   
    14    6   22 1   
    15    7    8 1   
    16    7   16 1   
    17    7   23 1   
    18    8   17 1   
    19    8   24 1   
    20    9   10 1   
    21    9   11 2   
    22    9   12 2   
    23   10   18 1   
    24   10   19 1   
@<TRIPOS>SUBSTRUCTURE
     1 0VY         1 TEMP              0 ****  ****    0 ROOT
