@<TRIPOS>MOLECULE
0VY
   26    26     1     0     0
SMALL
bcc


@<TRIPOS>ATOM
      1 C2          0.0900   -0.1490   -0.3420 c2        1 0VY      1.047100
      2 C7          3.3620    0.5590    1.2900 c3        1 0VY     -0.091900
      3 C8          2.5510    0.0140    0.1050 c3        1 0VY      0.177800
      4 N1          1.1300    0.1750    0.4460 nh        1 0VY     -0.655600
      5 N3         -1.1760   -0.0190   -0.0930 ne        1 0VY     -1.169300
      6 N4          0.4390   -0.7500   -1.7200 n4        1 0VY     -0.870600
      7 C5          0.9590    0.8010    1.7740 c3        1 0VY      0.177800
      8 C6          2.3640    1.1290    2.2920 c3        1 0VY     -0.091900
      9 S9         -2.5760    0.4220    0.2020 sy        1 0VY      1.723300
     10 N10        -3.2930   -1.0460    1.2640 n4        1 0VY     -0.796500
     11 O11        -2.6710    1.4180    1.1440 o         1 0VY     -0.554800
     12 O12        -3.4190    0.3190   -0.8790 o         1 0VY     -0.554800
     13 H1          4.0740    1.3500    0.9370 hc        1 0VY      0.108450
     14 H2          2.7770   -1.0770   -0.0610 h1        1 0VY      0.091950
     15 H4          0.9900   -1.6110   -1.6030 hn        1 0VY      0.491467
     16 H5          0.3300    1.7300    1.6730 h1        1 0VY      0.091950
     17 H6          2.5130    0.6780    3.3070 hc        1 0VY      0.108450
     18 H7         -2.6610   -1.8140    1.4560 hn        1 0VY      0.461133
     19 H8         -3.6130   -0.6790    2.1620 hn        1 0VY      0.461133
     20 H9          3.9690   -0.2630    1.7500 hc        1 0VY      0.108450
     21 H10         2.7830    0.5980   -0.8300 h1        1 0VY      0.091950
     22 H3         -0.4220   -0.9740   -2.2420 hn        1 0VY      0.491467
     23 H11         0.4360    0.0700    2.4500 h1        1 0VY      0.091950
     24 H12         2.4870    2.2390    2.3920 hc        1 0VY      0.108450
     25 H43         0.9870   -0.0700   -2.2670 hn        1 0VY      0.491467
     26 H103       -4.1100   -1.4320    0.7870 hn        1 0VY      0.461133
@<TRIPOS>BOND
     1    1    4 1   
     2    1    5 2   
     3    1    6 1   
     4    2    3 1   
     5    2    8 1   
     6    2   13 1   
     7    2   20 1   
     8    3    4 1   
     9    3   14 1   
    10    3   21 1   
    11    4    7 1   
    12    5    9 1   
    13    6   15 1   
    14    6   22 1   
    15    6   25 1   
    16    7    8 1   
    17    7   16 1   
    18    7   23 1   
    19    8   17 1   
    20    8   24 1   
    21    9   10 1   
    22    9   11 2   
    23    9   12 2   
    24   10   18 1   
    25   10   19 1   
    26   10   26 1   
@<TRIPOS>SUBSTRUCTURE
     1 0VY         1 TEMP              0 ****  ****    0 ROOT
