@<TRIPOS>MOLECULE
0VY
   24    21     1     0     0
SMALL
bcc


@<TRIPOS>ATOM
      1 C2         -1.1790    0.4540   -0.9210 c1        1 0VY      0.518000
      2 C7          2.3080    0.4540    0.2360 c3        1 0VY     -0.168000
      3 C8          1.2430    0.4540   -0.9210 c3        1 0VY     -0.047000
      4 N1          0.0990    0.6250   -0.3300 n2        1 0VY     -0.301000
      5 N3         -1.8240   -0.6700   -0.7670 n1        1 0VY     -1.140000
      6 N4         -1.7560    1.5040   -1.6810 n3        1 0VY     -0.392000
      7 C5          0.4110    1.4240    1.0190 c3        1 0VY     -0.047000
      8 C6          1.5670    0.9510    1.4760 c3        1 0VY     -0.168000
      9 S9         -1.1570   -1.8860    0.1120 ss        1 0VY      2.938000
     10 N10        -2.1960   -3.1540    0.2070 n2        1 0VY     -0.950000
     11 O11        -0.7670   -1.4320    1.4170 o         1 0VY     -0.971500
     12 O12         0.1090   -2.2890   -0.4340 o         1 0VY     -0.971500
     13 H1          3.0440    1.0570    0.0170 hc        1 0VY      0.096500
     14 H2          1.2560   -0.4010   -1.3940 h1        1 0VY      0.099750
     15 H4         -2.2450    2.1520   -1.2640 hn        1 0VY      0.229500
     16 H5         -0.2970    1.2680    1.6730 h1        1 0VY      0.099750
     17 H6          1.4100    0.2130    2.0950 hc        1 0VY      0.096500
     18 H7         -2.7850   -3.2090    0.9010 hn        1 0VY      0.229500
     19 H8         -2.1920   -3.7970   -0.4400 hn        1 0VY      0.229500
     20 H9          2.6460   -0.4500    0.3840 hc        1 0VY      0.096500
     21 H10         1.4170    1.1870   -1.5420 h1        1 0VY      0.099750
     22 H3         -1.6780    1.5060   -2.5890 hn        1 0VY      0.229500
     23 H11         0.4910    2.3790    0.8320 h1        1 0VY      0.099750
     24 H12         2.0750    1.6600    1.9130 hc        1 0VY      0.096500
@<TRIPOS>BOND
     1    1    5 1   
     2    1    6 1   
     3    2    3 1   
     4    2    8 1   
     5    2   13 1   
     6    2   20 1   
     7    3    4 1   
     8    3   14 1   
     9    3   21 1   
    10    4    7 1   
    11    6   15 1   
    12    6   22 1   
    13    7    8 1   
    14    7   16 1   
    15    7   23 1   
    16    8   17 1   
    17    8   24 1   
    18    9   11 1   
    19    9   12 1   
    20   10   18 1   
    21   10   19 1   
@<TRIPOS>SUBSTRUCTURE
     1 0VY         1 TEMP              0 ****  ****    0 ROOT
