@<TRIPOS>MOLECULE
0VY
   26    26     1     0     0
SMALL
bcc


@<TRIPOS>ATOM
      1 C2          0.0600   -0.0420   -0.3520 c2        1 0VY      1.047100
      2 C7          3.4050    0.1990    1.2690 c3        1 0VY     -0.091900
      3 C8          2.5310   -0.1570    0.0570 c3        1 0VY      0.177800
      4 N1          1.1360    0.1090    0.4400 nh        1 0VY     -0.655600
      5 N3         -1.1840    0.1870   -0.0660 ne        1 0VY     -1.169300
      6 N4          0.3320   -0.5480   -1.7840 n4        1 0VY     -0.870600
      7 C5          1.0430    0.6270    1.8210 c3        1 0VY      0.177800
      8 C6          2.4790    0.7700    2.3380 c3        1 0VY     -0.091900
      9 S9         -2.5300    0.7340    0.2950 sy        1 0VY      1.723300
     10 N10        -3.3760   -0.7480    1.2360 n4        1 0VY     -0.796500
     11 O11        -2.5160    1.6450    1.3240 o         1 0VY     -0.554800
     12 O12        -3.3920    0.8110   -0.7730 o         1 0VY     -0.554800
     13 H1          4.1860    0.9460    0.9720 hc        1 0VY      0.108450
     14 H2          2.8070    0.4830   -0.8270 h1        1 0VY      0.091950
     15 H4         -0.5520   -0.6400   -2.3060 hn        1 0VY      0.491467
     16 H5          0.4590   -0.1080    2.4420 h1        1 0VY      0.091950
     17 H6          2.7110    1.8490    2.5320 hc        1 0VY      0.108450
     18 H7         -2.8210   -1.5880    1.3460 hn        1 0VY      0.461133
     19 H8         -4.2330   -1.0080    0.7440 hn        1 0VY      0.461133
     20 H9          3.9330   -0.7160    1.6420 hc        1 0VY      0.108450
     21 H10         2.6470   -1.2450   -0.2090 h1        1 0VY      0.091950
     22 H3          0.7980   -1.4640   -1.7540 hn        1 0VY      0.491467
     23 H11         0.5060    1.6170    1.8160 h1        1 0VY      0.091950
     24 H12         2.5950    0.2180    3.3060 hc        1 0VY      0.108450
     25 H43         0.9370    0.1220   -2.2800 hn        1 0VY      0.491467
     26 H103       -3.6480   -0.4350    2.1700 hn        1 0VY      0.461133
@<TRIPOS>BOND
     1    1    4 1   
     2    1    5 2   
     3    1    6 1   
     4    2    3 1   
     5    2    8 1   
     6    2   13 1   
     7    2   20 1   
     8    3    4 1   
     9    3   14 1   
    10    3   21 1   
    11    4    7 1   
    12    5    9 1   
    13    6   15 1   
    14    6   22 1   
    15    6   25 1   
    16    7    8 1   
    17    7   16 1   
    18    7   23 1   
    19    8   17 1   
    20    8   24 1   
    21    9   10 1   
    22    9   11 2   
    23    9   12 2   
    24   10   18 1   
    25   10   19 1   
    26   10   26 1   
@<TRIPOS>SUBSTRUCTURE
     1 0VY         1 TEMP              0 ****  ****    0 ROOT
