@<TRIPOS>MOLECULE
0VY
   26    26     1     0     0
SMALL
bcc


@<TRIPOS>ATOM
      1 C2          0.0640   -0.0780   -0.3480 c2        1 0VY      1.047100
      2 C7          3.4000    0.2890    1.2680 c3        1 0VY     -0.091900
      3 C8          2.5360   -0.1250    0.0670 c3        1 0VY      0.177800
      4 N1          1.1340    0.1220    0.4400 nh        1 0VY     -0.655600
      5 N3         -1.1860    0.1320   -0.0720 ne        1 0VY     -1.169300
      6 N4          0.3500   -0.6240   -1.7630 nz        1 0VY     -0.870600
      7 C5          1.0280    0.6830    1.8030 c3        1 0VY      0.177800
      8 C6          2.4590    0.8740    2.3160 c3        1 0VY     -0.091900
      9 S9         -2.5440    0.6600    0.2690 sy        1 0VY      1.723300
     10 N10        -3.3580   -0.8090    1.2590 nz        1 0VY     -0.796500
     11 O11        -2.5530    1.6050    1.2660 o         1 0VY     -0.554800
     12 O12        -3.4060    0.6810   -0.8020 o         1 0VY     -0.554800
     13 H1          3.9470   -0.6010    1.6710 hc        1 0VY      0.108450
     14 H2          2.6760   -1.2180   -0.1630 h1        1 0VY      0.091950
     15 H4          0.9410    0.0430   -2.2800 hn        1 0VY      0.491467
     16 H5          0.4580   -0.0440    2.4460 h1        1 0VY      0.091950
     17 H6          2.6670    1.9640    2.4760 hc        1 0VY      0.108450
     18 H7         -4.2080   -1.1050    0.7740 hn        1 0VY      0.461133
     19 H8         -2.7840   -1.6310    1.3980 hn        1 0VY      0.461133
     20 H9          4.1640    1.0440    0.9480 hc        1 0VY      0.108450
     21 H10         2.8000    0.4920   -0.8370 h1        1 0VY      0.091950
     22 H3         -0.5310   -0.7530   -2.2830 hn        1 0VY      0.491467
     23 H11         0.4690    1.6610    1.7640 h1        1 0VY      0.091950
     24 H12         2.5850    0.3560    3.3020 hc        1 0VY      0.108450
     25 H43         0.8360   -1.5290   -1.7030 hn        1 0VY      0.491467
     26 H103       -3.6390   -0.4710    2.1810 hn        1 0VY      0.461133
@<TRIPOS>BOND
     1    1    4 1   
     2    1    5 2   
     3    1    6 1   
     4    2    3 1   
     5    2    8 1   
     6    2   13 1   
     7    2   20 1   
     8    3    4 1   
     9    3   14 1   
    10    3   21 1   
    11    4    7 1   
    12    5    9 1   
    13    6   15 1   
    14    6   22 1   
    15    6   25 1   
    16    7    8 1   
    17    7   16 1   
    18    7   23 1   
    19    8   17 1   
    20    8   24 1   
    21    9   10 1   
    22    9   11 2   
    23    9   12 2   
    24   10   18 1   
    25   10   19 1   
    26   10   26 1   
@<TRIPOS>SUBSTRUCTURE
     1 0VY         1 TEMP              0 ****  ****    0 ROOT
