@<TRIPOS>MOLECULE
0VZ
   27    26     1     0     0
SMALL
bcc


@<TRIPOS>ATOM
      1 C2          1.0200   -0.1670   -0.0920 c2        1 0VZ      0.953100
      2 C11        -0.0040    1.0370    3.0000 c         1 0VZ      0.612100
      3 C14         0.1170    2.3690    4.9740 c3        1 0VZ      0.143400
      4 C15         0.9810    2.4050    6.2080 c3        1 0VZ     -0.108100
      5 S1          2.6260   -0.1770    0.5400 ss        1 0VZ      0.000700
      6 N3          0.7630   -0.1310   -1.3780 n2        1 0VZ     -1.293600
      7 N4          0.0610   -0.2360    0.8870 nh        1 0VZ     -0.814200
      8 C5          0.5600   -0.1730    2.2570 c3        1 0VZ      0.157500
      9 C6          2.0950   -0.1830    2.2410 c3        1 0VZ     -0.075300
     10 S7          0.5110   -0.1110   -2.7670 s4        1 0VZ      1.991700
     11 N8         -1.6900    0.6220   -2.6980 n3        1 0VZ     -1.107400
     12 O9          0.9030    0.9730   -3.5020 o         1 0VZ     -0.472900
     13 O10         0.1740   -1.2740   -3.4010 o         1 0VZ     -0.472900
     14 O12        -0.9610    1.7230    2.6410 o         1 0VZ     -0.517000
     15 O13         0.6400    1.2820    4.1620 os        1 0VZ     -0.423900
     16 H1         -0.9560    2.1440    5.2080 h1        1 0VZ      0.067200
     17 H2          0.1830    3.3130    4.3750 h1        1 0VZ      0.067200
     18 H3          0.6140    3.2230    6.8750 hc        1 0VZ      0.062367
     19 H4          0.9280    1.4350    6.7590 hc        1 0VZ      0.062367
     20 H5          2.0460    2.6030    5.9420 hc        1 0VZ      0.062367
     21 H6         -0.9130   -0.0800    0.7350 hn        1 0VZ      0.485800
     22 H7          0.1760   -1.0910    2.8060 h1        1 0VZ      0.137700
     23 H8          2.5170    0.7070    2.7750 h1        1 0VZ      0.136200
     24 H9          2.4860   -1.0990    2.7520 h1        1 0VZ      0.136200
     25 H10        -1.7230    1.4610   -3.2530 hn        1 0VZ      0.404133
     26 H11        -2.0720    0.8180   -1.7930 hn        1 0VZ      0.404133
     27 H83        -2.2510   -0.0840   -3.1450 hn        1 0VZ      0.404133
@<TRIPOS>BOND
     1    1    5 1   
     2    1    6 2   
     3    1    7 1   
     4    2    8 1   
     5    2   14 2   
     6    2   15 1   
     7    3    4 1   
     8    3   15 1   
     9    3   16 1   
    10    3   17 1   
    11    4   18 1   
    12    4   19 1   
    13    4   20 1   
    14    5    9 1   
    15    6   10 1   
    16    7    8 1   
    17    7   21 1   
    18    8    9 1   
    19    8   22 1   
    20    9   23 1   
    21    9   24 1   
    22   10   12 1   
    23   10   13 1   
    24   11   25 1   
    25   11   26 1   
    26   11   27 1   
@<TRIPOS>SUBSTRUCTURE
     1 0VZ         1 TEMP              0 ****  ****    0 ROOT
