@<TRIPOS>MOLECULE
0VZ
   27    26     1     0     0
SMALL
bcc


@<TRIPOS>ATOM
      1 C2          0.9960   -0.2390   -0.0680 c2        1 0VZ      0.953100
      2 C11        -0.0060    1.0790    2.9840 c         1 0VZ      0.612100
      3 C14         0.1530    2.4490    4.9300 c3        1 0VZ      0.143400
      4 C15         1.0040    2.4730    6.1740 c3        1 0VZ     -0.108100
      5 S1          2.5930   -0.3080    0.5840 ss        1 0VZ      0.000700
      6 N3          0.7550   -0.2200   -1.3570 n2        1 0VZ     -1.293600
      7 N4          0.0250   -0.2420    0.9010 nu        1 0VZ     -0.814200
      8 C5          0.5100   -0.1720    2.2750 c3        1 0VZ      0.157500
      9 C6          2.0430   -0.2520    2.2790 c3        1 0VZ     -0.075300
     10 S7          0.5210   -0.2210   -2.7500 s4        1 0VZ      1.991700
     11 N8         -1.6490    0.6050   -2.7240 n9        1 0VZ     -1.107400
     12 O9          0.9670    0.8300   -3.5020 o         1 0VZ     -0.472900
     13 O10         0.1420   -1.3820   -3.3620 o         1 0VZ     -0.472900
     14 O12        -0.9280    1.8000    2.5990 o         1 0VZ     -0.517000
     15 O13         0.6350    1.3220    4.1480 os        1 0VZ     -0.423900
     16 H1          0.2690    3.3760    4.3110 h1        1 0VZ      0.067200
     17 H2         -0.9310    2.2780    5.1560 h1        1 0VZ      0.067200
     18 H3          0.9000    1.5200    6.7450 hc        1 0VZ      0.062367
     19 H4          0.6670    3.3220    6.8180 hc        1 0VZ      0.062367
     20 H5          2.0800    2.6170    5.9160 hc        1 0VZ      0.062367
     21 H6         -0.9400   -0.0460    0.7330 hn        1 0VZ      0.485800
     22 H7          0.0780   -1.0580    2.8390 h1        1 0VZ      0.137700
     23 H8          2.3860   -1.1720    2.8140 h1        1 0VZ      0.136200
     24 H9          2.4990    0.6300    2.7970 h1        1 0VZ      0.136200
     25 H10        -2.2330   -0.0860   -3.1620 hn        1 0VZ      0.404133
     26 H11        -1.6390    1.4330   -3.2960 hn        1 0VZ      0.404133
     27 H83        -2.0330    0.8360   -1.8270 hn        1 0VZ      0.404133
@<TRIPOS>BOND
     1    1    5 1   
     2    1    6 2   
     3    1    7 1   
     4    2    8 1   
     5    2   14 2   
     6    2   15 1   
     7    3    4 1   
     8    3   15 1   
     9    3   16 1   
    10    3   17 1   
    11    4   18 1   
    12    4   19 1   
    13    4   20 1   
    14    5    9 1   
    15    6   10 1   
    16    7    8 1   
    17    7   21 1   
    18    8    9 1   
    19    8   22 1   
    20    9   23 1   
    21    9   24 1   
    22   10   12 1   
    23   10   13 1   
    24   11   25 1   
    25   11   26 1   
    26   11   27 1   
@<TRIPOS>SUBSTRUCTURE
     1 0VZ         1 TEMP              0 ****  ****    0 ROOT
