@<TRIPOS>MOLECULE
0VZ
   26    26     1     0     0
SMALL
bcc


@<TRIPOS>ATOM
      1 C2         -0.8030    0.6600   -0.1670 c2        1 0VZ      0.954100
      2 C11         2.4320   -0.5890   -0.3310 c         1 0VZ      0.603100
      3 C14         4.6720   -0.9290    0.4070 c3        1 0VZ      0.139400
      4 C15         5.9390   -0.1140    0.4840 c3        1 0VZ     -0.103100
      5 S1         -0.0430    2.1790    0.3150 ss        1 0VZ     -0.179300
      6 N3         -1.9950    0.3600    0.1200 ne        1 0VZ     -1.015300
      7 N4          0.0850   -0.1080   -0.9490 nh        1 0VZ     -0.863200
      8 C5          1.4500    0.3750   -0.9890 c3        1 0VZ      0.169500
      9 C6          1.5400    1.7790   -0.3740 c3        1 0VZ     -0.051300
     10 S7         -3.4590   -0.1490    0.3550 sy        1 0VZ      1.738300
     11 N8         -3.5160   -1.6460   -0.2690 n3        1 0VZ     -1.034700
     12 O9         -3.7060   -0.2590    1.7460 o         1 0VZ     -0.657800
     13 O10        -4.3660    0.6550   -0.3800 o         1 0VZ     -0.657800
     14 O12         2.2210   -1.7560    0.0040 o         1 0VZ     -0.530000
     15 O13         3.6730   -0.0590   -0.1690 os        1 0VZ     -0.433900
     16 H1          4.7850   -1.8260   -0.2550 h1        1 0VZ      0.057700
     17 H2          4.3170   -1.2570    1.4190 h1        1 0VZ      0.057700
     18 H3          6.7480   -0.7460    0.9220 hc        1 0VZ      0.052367
     19 H4          6.2500    0.2280   -0.5320 hc        1 0VZ      0.052367
     20 H5          5.7900    0.7860    1.1280 hc        1 0VZ      0.052367
     21 H6         -0.0320   -1.0980   -1.0010 hn        1 0VZ      0.453800
     22 H7          1.7580    0.4230   -2.0800 h1        1 0VZ      0.109700
     23 H8          1.8060    2.5250   -1.1620 h1        1 0VZ      0.103700
     24 H9          2.3240    1.8280    0.4200 h1        1 0VZ      0.103700
     25 H10        -3.3570   -2.4620    0.2630 hn        1 0VZ      0.439300
     26 H11        -3.7920   -1.8380   -1.1970 hn        1 0VZ      0.439300
@<TRIPOS>BOND
     1    1    5 1   
     2    1    6 2   
     3    1    7 1   
     4    2    8 1   
     5    2   14 2   
     6    2   15 1   
     7    3    4 1   
     8    3   15 1   
     9    3   16 1   
    10    3   17 1   
    11    4   18 1   
    12    4   19 1   
    13    4   20 1   
    14    5    9 1   
    15    6   10 1   
    16    7    8 1   
    17    7   21 1   
    18    8    9 1   
    19    8   22 1   
    20    9   23 1   
    21    9   24 1   
    22   10   11 1   
    23   10   12 2   
    24   10   13 2   
    25   11   25 1   
    26   11   26 1   
@<TRIPOS>SUBSTRUCTURE
     1 0VZ         1 TEMP              0 ****  ****    0 ROOT
