@<TRIPOS>MOLECULE
0VZ
   27    26     1     0     0
SMALL
bcc


@<TRIPOS>ATOM
      1 C2          0.9960   -0.2320   -0.0720 c2        1 0VZ      0.953100
      2 C11        -0.0080    1.0730    2.9850 c         1 0VZ      0.612100
      3 C14         0.1520    2.4310    4.9390 c3        1 0VZ      0.143400
      4 C15         1.0010    2.4460    6.1840 c3        1 0VZ     -0.108100
      5 S1          2.5910   -0.3100    0.5830 ss        1 0VZ      0.000700
      6 N3          0.7580   -0.2040   -1.3620 n2        1 0VZ     -1.293600
      7 N4          0.0220   -0.2360    0.8940 nh        1 0VZ     -0.814200
      8 C5          0.5050   -0.1750    2.2700 c3        1 0VZ      0.157500
      9 C6          2.0380   -0.2610    2.2760 c3        1 0VZ     -0.075300
     10 S7          0.5270   -0.1960   -2.7550 s4        1 0VZ      1.991700
     11 N8         -1.6420    0.6320   -2.7290 n3        1 0VZ     -1.107400
     12 O9          0.9750    0.8590   -3.4990 o         1 0VZ     -0.472900
     13 O10         0.1480   -1.3530   -3.3760 o         1 0VZ     -0.472900
     14 O12        -0.9260    1.7990    2.6020 o         1 0VZ     -0.517000
     15 O13         0.6320    1.3060    4.1520 os        1 0VZ     -0.423900
     16 H1         -0.9330    2.2640    5.1620 h1        1 0VZ      0.067200
     17 H2          0.2730    3.3610    4.3250 h1        1 0VZ      0.067200
     18 H3          0.6660    3.2920    6.8330 hc        1 0VZ      0.062367
     19 H4          0.8930    1.4890    6.7500 hc        1 0VZ      0.062367
     20 H5          2.0790    2.5870    5.9300 hc        1 0VZ      0.062367
     21 H6         -0.9410   -0.0350    0.7260 hn        1 0VZ      0.485800
     22 H7          0.0680   -1.0630    2.8280 h1        1 0VZ      0.137700
     23 H8          2.3760   -1.1860    2.8080 h1        1 0VZ      0.136200
     24 H9          2.4960    0.6160    2.8010 h1        1 0VZ      0.136200
     25 H10        -1.6300    1.4640   -3.2960 hn        1 0VZ      0.404133
     26 H11        -2.0270    0.8580   -1.8320 hn        1 0VZ      0.404133
     27 H83        -2.2260   -0.0550   -3.1730 hn        1 0VZ      0.404133
@<TRIPOS>BOND
     1    1    5 1   
     2    1    6 2   
     3    1    7 1   
     4    2    8 1   
     5    2   14 2   
     6    2   15 1   
     7    3    4 1   
     8    3   15 1   
     9    3   16 1   
    10    3   17 1   
    11    4   18 1   
    12    4   19 1   
    13    4   20 1   
    14    5    9 1   
    15    6   10 1   
    16    7    8 1   
    17    7   21 1   
    18    8    9 1   
    19    8   22 1   
    20    9   23 1   
    21    9   24 1   
    22   10   12 1   
    23   10   13 1   
    24   11   25 1   
    25   11   26 1   
    26   11   27 1   
@<TRIPOS>SUBSTRUCTURE
     1 0VZ         1 TEMP              0 ****  ****    0 ROOT
