@<TRIPOS>MOLECULE
0VZ
   26    22     1     0     0
SMALL
bcc


@<TRIPOS>ATOM
      1 C2         -0.5440   -0.5280   -1.8120 c1        1 0VZ      0.290000
      2 C11         0.3500    0.7700    1.3310 c1        1 0VZ      0.274000
      3 C14         0.7860    1.6420    3.4780 c3        1 0VZ     -0.011000
      4 C15         0.4610    1.4240    4.9390 c3        1 0VZ     -0.221000
      5 S1          0.9220   -1.1790   -1.6210 ss        1 0VZ      0.227000
      6 N3         -1.2990   -0.6010   -2.8750 n1        1 0VZ     -0.999000
      7 N4         -0.8890    0.2260   -0.4390 n2        1 0VZ     -0.348000
      8 C5          0.0200   -0.2330    0.4830 c3        1 0VZ      0.022000
      9 C6          1.3950   -0.6370   -0.5000 c3        1 0VZ     -0.312000
     10 S7         -0.7770   -1.4220   -4.1980 ss        1 0VZ      2.904000
     11 N8         -2.0430   -1.7770   -5.1820 n2        1 0VZ     -0.961000
     12 O9          0.2390   -0.6880   -4.9000 o         1 0VZ     -0.937000
     13 O10        -0.0570   -2.6080   -3.8260 o         1 0VZ     -0.937000
     14 O12         0.7160    1.8420    0.8920 o         1 0VZ     -0.341000
     15 O13         0.2890    0.5650    2.7200 o         1 0VZ     -0.272000
     16 H1          0.3720    2.4760    3.1720 h1        1 0VZ      0.097000
     17 H2          1.7580    1.7010    3.3650 h1        1 0VZ      0.097000
     18 H3         -0.4740    1.6670    5.1060 hc        1 0VZ      0.091667
     19 H4          1.0470    1.9820    5.4920 hc        1 0VZ      0.091667
     20 H5          0.5980    0.4800    5.1670 hc        1 0VZ      0.091667
     21 H6         -1.6600    0.6760   -0.2530 hn        1 0VZ      0.249000
     22 H7         -0.2910   -0.9130    1.1140 h1        1 0VZ      0.149000
     23 H8          1.9060    0.1710   -0.7090 h1        1 0VZ      0.143000
     24 H9          1.9640   -1.2820   -0.0310 h1        1 0VZ      0.143000
     25 H10        -2.4570   -1.1120   -5.6530 hn        1 0VZ      0.234500
     26 H11        -2.3340   -2.6400   -5.2590 hn        1 0VZ      0.234500
@<TRIPOS>BOND
     1    1    5 1   
     2    1    6 1   
     3    2    8 1   
     4    2   14 1   
     5    3    4 1   
     6    3   15 1   
     7    3   16 1   
     8    3   17 1   
     9    4   18 1   
    10    4   19 1   
    11    4   20 1   
    12    5    9 1   
    13    7    8 1   
    14    7   21 1   
    15    8    9 1   
    16    8   22 1   
    17    9   23 1   
    18    9   24 1   
    19   10   12 1   
    20   10   13 1   
    21   11   25 1   
    22   11   26 1   
@<TRIPOS>SUBSTRUCTURE
     1 0VZ         1 TEMP              0 ****  ****    0 ROOT
