@<TRIPOS>MOLECULE
0W1
   20    21     1     0     0
SMALL
bcc


@<TRIPOS>ATOM
      1 OAC         0.0810   -0.1000    0.1440 o         1 0W1     -0.820800
      2 CAH         1.3360    0.0060    0.0830 c         1 0W1      0.933200
      3 OAD         2.1020    0.0850    1.0850 o         1 0W1     -0.820800
      4 CAJ         1.9670    0.0410   -1.2910 cc        1 0W1     -0.103700
      5 CAE         1.2860   -0.0450   -2.4840 cd        1 0W1     -0.110000
      6 SAG         3.6590    0.1860   -1.4950 ss        1 0W1      0.036200
      7 CAL         3.5470    0.1380   -3.1460 cc        1 0W1     -0.143400
      8 CAK         2.1800    0.0090   -3.5860 cd        1 0W1     -0.234300
      9 CAI         2.2670    0.0160   -5.0310 cd        1 0W1      0.360600
     10 CAA         1.1140   -0.0510   -5.9490 c3        1 0W1     -0.117400
     11 NAF         3.5660    0.1230   -5.4120 nc        1 0W1     -0.547800
     12 NAM         4.3380    0.2860   -4.3030 na        1 0W1      0.114400
     13 CAB         5.7310   -0.0980   -4.2980 c3        1 0W1      0.037600
     14 H2          0.2010   -0.1390   -2.5570 ha        1 0W1      0.166000
     15 H3          0.3340   -0.7250   -5.5140 hc        1 0W1      0.041700
     16 H4          1.4020   -0.4350   -6.9570 hc        1 0W1      0.041700
     17 H5          0.6720    0.9700   -6.0710 hc        1 0W1      0.041700
     18 H6          5.8610   -1.2140   -4.2610 h1        1 0W1      0.041700
     19 H7          6.2080    0.3560   -3.3900 h1        1 0W1      0.041700
     20 H8          6.2310    0.2950   -5.2210 h1        1 0W1      0.041700
@<TRIPOS>BOND
     1    1    2 1   
     2    2    3 1   
     3    2    4 1   
     4    4    5 2   
     5    4    6 1   
     6    5    8 1   
     7    5   14 1   
     8    6    7 1   
     9    7    8 2   
    10    7   12 1   
    11    8    9 1   
    12    9   10 1   
    13    9   11 2   
    14   10   15 1   
    15   10   16 1   
    16   10   17 1   
    17   11   12 1   
    18   12   13 1   
    19   13   18 1   
    20   13   19 1   
    21   13   20 1   
@<TRIPOS>SUBSTRUCTURE
     1 0W1         1 TEMP              0 ****  ****    0 ROOT
