@<TRIPOS>MOLECULE
0W1
   20    21     1     0     0
SMALL
bcc


@<TRIPOS>ATOM
      1 OAC         0.0840    0.1220    0.1440 o         1 0W1     -0.820800
      2 CAH         1.3380    0.0070    0.0830 c         1 0W1      0.933200
      3 OAD         2.1030   -0.0670    1.0860 o         1 0W1     -0.820800
      4 CAJ         1.9680   -0.0450   -1.2900 cc        1 0W1     -0.103700
      5 CAE         1.2870    0.0330   -2.4840 cd        1 0W1     -0.110000
      6 SAG         3.6580   -0.2030   -1.4940 ss        1 0W1      0.036200
      7 CAL         3.5460   -0.1690   -3.1450 cc        1 0W1     -0.143400
      8 CAK         2.1790   -0.0360   -3.5860 cd        1 0W1     -0.234300
      9 CAI         2.2660   -0.0580   -5.0310 cd        1 0W1      0.360600
     10 CAA         1.1130    0.0070   -5.9480 c3        1 0W1     -0.117400
     11 NAF         3.5640   -0.1770   -5.4110 nc        1 0W1     -0.547800
     12 NAM         4.3360   -0.3330   -4.3000 na        1 0W1      0.114400
     13 CAB         5.7310    0.0420   -4.2990 c3        1 0W1      0.037600
     14 H2          0.2020    0.1340   -2.5580 ha        1 0W1      0.166000
     15 H3          0.3340    0.6820   -5.5150 hc        1 0W1      0.041700
     16 H4          1.4020    0.3900   -6.9580 hc        1 0W1      0.041700
     17 H5          0.6710   -1.0140   -6.0690 hc        1 0W1      0.041700
     18 H6          5.8680    1.1570   -4.2730 h1        1 0W1      0.041700
     19 H7          6.2050   -0.4060   -3.3880 h1        1 0W1      0.041700
     20 H8          6.2280   -0.3640   -5.2190 h1        1 0W1      0.041700
@<TRIPOS>BOND
     1    1    2 1   
     2    2    3 1   
     3    2    4 1   
     4    4    5 2   
     5    4    6 1   
     6    5    8 1   
     7    5   14 1   
     8    6    7 1   
     9    7    8 2   
    10    7   12 1   
    11    8    9 1   
    12    9   10 1   
    13    9   11 2   
    14   10   15 1   
    15   10   16 1   
    16   10   17 1   
    17   11   12 1   
    18   12   13 1   
    19   13   18 1   
    20   13   19 1   
    21   13   20 1   
@<TRIPOS>SUBSTRUCTURE
     1 0W1         1 TEMP              0 ****  ****    0 ROOT
