@<TRIPOS>MOLECULE
0W1
   20    21     1     0     0
SMALL
bcc


@<TRIPOS>ATOM
      1 OAC         0.0950    0.1350    0.1510 o         1 0W1     -0.820800
      2 CAH         1.3470    0.0050    0.0870 c         1 0W1      0.933200
      3 OAD         2.1150   -0.0830    1.0870 o         1 0W1     -0.820800
      4 CAJ         1.9730   -0.0470   -1.2880 cc        1 0W1     -0.103700
      5 CAE         1.2900    0.0460   -2.4800 cd        1 0W1     -0.110000
      6 SAG         3.6610   -0.2250   -1.4970 ss        1 0W1      0.036200
      7 CAL         3.5450   -0.1810   -3.1480 cc        1 0W1     -0.143400
      8 CAK         2.1790   -0.0290   -3.5840 cd        1 0W1     -0.234300
      9 CAI         2.2610   -0.0440   -5.0300 cd        1 0W1      0.360600
     10 CAA         1.1070    0.0400   -5.9440 c3        1 0W1     -0.117400
     11 NAF         3.5570   -0.1770   -5.4140 nc        1 0W1     -0.547800
     12 NAM         4.3300   -0.3490   -4.3060 na        1 0W1      0.114400
     13 CAB         5.7290    0.0090   -4.3070 c3        1 0W1      0.037600
     14 H2          0.2060    0.1600   -2.5500 ha        1 0W1      0.166000
     15 H3          0.3310    0.7100   -5.4980 hc        1 0W1      0.041700
     16 H4          1.3950    0.4370   -6.9470 hc        1 0W1      0.041700
     17 H5          0.6610   -0.9780   -6.0810 hc        1 0W1      0.041700
     18 H6          5.8810    1.1220   -4.2760 h1        1 0W1      0.041700
     19 H7          6.2000   -0.4500   -3.3990 h1        1 0W1      0.041700
     20 H8          6.2190   -0.3980   -5.2300 h1        1 0W1      0.041700
@<TRIPOS>BOND
     1    1    2 1   
     2    2    3 1   
     3    2    4 1   
     4    4    5 2   
     5    4    6 1   
     6    5    8 1   
     7    5   14 1   
     8    6    7 1   
     9    7    8 2   
    10    7   12 1   
    11    8    9 1   
    12    9   10 1   
    13    9   11 2   
    14   10   15 1   
    15   10   16 1   
    16   10   17 1   
    17   11   12 1   
    18   12   13 1   
    19   13   18 1   
    20   13   19 1   
    21   13   20 1   
@<TRIPOS>SUBSTRUCTURE
     1 0W1         1 TEMP              0 ****  ****    0 ROOT
