@<TRIPOS>MOLECULE
0W1
   20    21     1     0     0
SMALL
bcc


@<TRIPOS>ATOM
      1 OAC        -3.4960   -1.2710    0.1230 o         1 0W1     -0.820800
      2 CAH        -2.9460   -0.1420    0.0120 c         1 0W1      0.933200
      3 OAD        -3.5640    0.9570   -0.0610 o         1 0W1     -0.820800
      4 CAJ        -1.4350   -0.1040   -0.0360 cc        1 0W1     -0.103700
      5 CAE        -0.6060   -1.2010    0.0420 cd        1 0W1     -0.110000
      6 SAG        -0.5810    1.3690   -0.1890 ss        1 0W1      0.036200
      7 CAL         0.8920    0.6150   -0.1530 cc        1 0W1     -0.143400
      8 CAK         0.7580   -0.8150   -0.0230 cd        1 0W1     -0.234300
      9 CAI         2.1200   -1.3060   -0.0430 cd        1 0W1      0.360600
     10 CAA         2.5090   -2.7270    0.0200 c3        1 0W1     -0.117400
     11 NAF         2.9820   -0.2630   -0.1570 nc        1 0W1     -0.547800
     12 NAM         2.2660    0.8850   -0.3130 na        1 0W1      0.114400
     13 CAB         2.8140    2.1660    0.0660 c3        1 0W1      0.037600
     14 H2         -0.9670   -2.2280    0.1390 ha        1 0W1      0.166000
     15 H3          2.4640   -3.1750   -1.0050 hc        1 0W1      0.041700
     16 H4          3.5430   -2.8610    0.4200 hc        1 0W1      0.041700
     17 H5          1.7920   -3.2780    0.6780 hc        1 0W1      0.041700
     18 H6          2.8420    2.3010    1.1810 h1        1 0W1      0.041700
     19 H7          3.8560    2.2620   -0.3370 h1        1 0W1      0.041700
     20 H8          2.1650    2.9630   -0.3820 h1        1 0W1      0.041700
@<TRIPOS>BOND
     1    1    2 1   
     2    2    3 1   
     3    2    4 1   
     4    4    5 2   
     5    4    6 1   
     6    5    8 1   
     7    5   14 1   
     8    6    7 1   
     9    7    8 2   
    10    7   12 1   
    11    8    9 1   
    12    9   10 1   
    13    9   11 2   
    14   10   15 1   
    15   10   16 1   
    16   10   17 1   
    17   11   12 1   
    18   12   13 1   
    19   13   18 1   
    20   13   19 1   
    21   13   20 1   
@<TRIPOS>SUBSTRUCTURE
     1 0W1         1 TEMP              0 ****  ****    0 ROOT
