@<TRIPOS>MOLECULE
0W1
   20    17     1     0     0
SMALL
bcc


@<TRIPOS>ATOM
      1 OAC        -3.2730    0.7010    3.3520 o         1 0W1     -0.555500
      2 CAH        -2.1460    0.0160    3.2700 c1        1 0W1      0.382000
      3 OAD        -1.6700   -0.5800    4.3220 o         1 0W1     -0.555500
      4 CAJ        -1.3390   -0.0100    1.9230 c1        1 0W1     -0.353000
      5 CAE        -0.4020    0.9970    1.4720 c1        1 0W1     -0.110000
      6 SAG        -1.3180   -1.1620    0.9060 ss        1 0W1      0.576000
      7 CAL        -0.2840   -0.7860   -0.2210 c2        1 0W1     -0.389000
      8 CAK         0.2660    0.4850    0.0970 c2        1 0W1     -0.169000
      9 CAI         1.1180    0.8330   -0.9100 c1        1 0W1     -0.062000
     10 CAA         1.9700    2.1520   -0.9870 c2        1 0W1     -0.101000
     11 NAF         1.1130   -0.1970   -1.8550 n2        1 0W1     -0.115000
     12 NAM         0.2430   -1.1870   -1.4140 n2        1 0W1     -0.099000
     13 CAB        -0.0550   -2.3930   -2.0920 c2        1 0W1     -0.101000
     14 H2         -0.2530    1.8660    1.8920 DU        1 0W1      0.166000
     15 H3          2.5770    2.1950   -0.2190 ha        1 0W1      0.081000
     16 H4          2.4970    2.1530   -1.8220 ha        1 0W1      0.081000
     17 H5          1.3760    2.9260   -0.9750 ha        1 0W1      0.081000
     18 H6          0.3790   -2.3930   -2.9490 ha        1 0W1      0.081000
     19 H7          0.2630   -3.1440   -1.5690 ha        1 0W1      0.081000
     20 H8         -1.0600   -2.4720   -2.2210 ha        1 0W1      0.081000
@<TRIPOS>BOND
     1    1    2 1   
     2    2    3 1   
     3    4    5 1   
     4    4    6 1   
     5    5    8 1   
     6    6    7 1   
     7    7    8 1   
     8    7   12 1   
     9    8    9 1   
    10    9   11 1   
    11   10   15 1   
    12   10   16 1   
    13   10   17 1   
    14   11   12 1   
    15   13   18 1   
    16   13   19 1   
    17   13   20 1   
@<TRIPOS>SUBSTRUCTURE
     1 0W1         1 TEMP              0 ****  ****    0 ROOT
