@<TRIPOS>MOLECULE
0W2
   71    68     1     0     0
SMALL
bcc


@<TRIPOS>ATOM
      1 C5          0.3130   -0.8440   -0.4380 c3        1 0W2      0.006000
      2 C6          1.5380    0.0720    1.5610 c1        1 0W2      0.363000
      3 N1         -1.8400    0.6290   -2.8520 n3        1 0W2     -0.091000
      4 C2         -4.0900    0.6920   -2.3720 c3        1 0W2     -0.188000
      5 N3          0.9070   -1.0060    0.9410 n2        1 0W2     -0.333000
      6 C4         -1.2080   -0.7440   -0.3230 c1        1 0W2      0.273000
      7 C11        -1.2860   -0.7020   -3.5950 c1        1 0W2     -0.043000
      8 C12        -0.5330   -0.5680   -4.8180 c1        1 0W2      0.113000
      9 C13        -0.1820   -1.7140   -5.5570 c1        1 0W2     -0.129000
     10 C14        -0.5610   -2.9720   -5.1090 c1        1 0W2     -0.129000
     11 C15        -1.3000   -3.1050   -3.9070 c1        1 0W2     -0.129000
     12 C16        -1.6580   -1.9480   -3.1550 c1        1 0W2     -0.129000
     13 C31         2.5060    0.9920    3.5080 c3        1 0W2      0.004000
     14 N4          1.8810   -0.0050    2.9380 n3        1 0W2     -0.347000
     15 O1          1.8140    1.0260    0.9390 o         1 0W2     -0.391000
     16 C66         0.6530   -1.9630   -1.2220 c3        1 0W2     -0.214000
     17 O2         -1.7610   -1.1990    0.6890 o         1 0W2     -0.361000
     18 N2         -2.0250    0.3800   -1.2530 n2        1 0W2     -0.235000
     19 F1         -0.2810    0.6540   -5.3160 f         1 0W2     -0.087000
     20 C1         -3.2580    0.9850   -3.3780 c3        1 0W2     -0.003000
     21 C21        -3.6230    0.1330   -4.6090 c2        1 0W2     -0.085000
     22 C26        -4.5220   -0.9370   -4.4290 c2        1 0W2     -0.109000
     23 C25        -5.2240   -1.4360   -5.4970 c1        1 0W2     -0.131000
     24 C24        -5.0550   -0.8940   -6.7510 c1        1 0W2     -0.129000
     25 C23        -4.1790    0.1520   -6.9390 c1        1 0W2     -0.129000
     26 C22        -3.4580    0.6680   -5.8550 c1        1 0W2     -0.043000
     27 CL1        -2.1530    1.7930   -6.1470 cl        1 0W2     -0.001000
     28 C3         -3.2250    0.8340   -0.9900 c3        1 0W2     -0.072000
     29 C36         1.5950    1.4980    4.9980 c3        1 0W2     -0.143000
     30 C37         2.7030    2.7620    5.7790 c3        1 0W2     -0.127750
     31 C38         4.1950    2.1810    6.0970 c3        1 0W2     -0.230500
     32 C40         4.8240    1.6690    4.5020 c3        1 0W2     -0.127750
     33 C32         3.8980    0.5710    3.8170 c3        1 0W2     -0.143000
     34 C33         3.6620   -0.1340    4.8390 c3        1 0W2     -0.127750
     35 C34         3.2110    0.7290    5.4420 c3        1 0W2     -0.230500
     36 C39         3.9630    1.2180    6.5560 c3        1 0W2     -0.092000
     37 C35         1.7190    0.7520    5.5690 c3        1 0W2     -0.127750
     38 H1          0.6600   -0.0410   -0.8500 h1        1 0W2      0.173000
     39 H2         -4.8520    1.3230   -2.3660 hc        1 0W2      0.106500
     40 H3         -4.4140   -0.2200   -2.4680 hc        1 0W2      0.106500
     41 H4          0.8700   -1.8400    1.3740 hn        1 0W2      0.215000
     42 H5          0.3450   -1.6210   -6.4120 ha        1 0W2      0.143333
     43 H6         -0.3110   -3.7870   -5.6350 ha        1 0W2      0.143333
     44 H7         -1.5630   -3.9800   -3.5980 ha        1 0W2      0.143333
     45 H8         -2.1550   -2.0400   -2.3440 ha        1 0W2      0.143333
     46 H9          2.5360    1.7380    2.8920 h1        1 0W2      0.133000
     47 H10         1.7940   -0.8400    3.4040 hn        1 0W2      0.211000
     48 H11         0.1320   -1.9640   -2.0110 hc        1 0W2      0.091000
     49 H12         1.6000   -1.9230   -1.4560 hc        1 0W2      0.091000
     50 H13         0.4770   -2.7930   -0.7060 hc        1 0W2      0.091000
     51 H14        -3.3090    1.9380   -3.5950 h1        1 0W2      0.147000
     52 H15        -4.6500   -1.3310   -3.5240 ha        1 0W2      0.138000
     53 H16        -5.8620   -2.1980   -5.3640 ha        1 0W2      0.137000
     54 H17        -5.5700   -1.2610   -7.5280 ha        1 0W2      0.143333
     55 H18        -4.0590    0.5390   -7.8380 ha        1 0W2      0.143333
     56 H19        -3.1780    1.7820   -0.7140 h1        1 0W2      0.113000
     57 H20        -3.6330    0.3030   -0.2840 h1        1 0W2      0.113000
     58 H21         0.6540    1.7770    4.8590 hc        1 0W2      0.111000
     59 H22         2.2970    3.0640    6.6170 hc        1 0W2      0.088625
     60 H23         2.7850    3.5280    5.1740 hc        1 0W2      0.088625
     61 H24         4.7860    2.7720    6.6190 hc        1 0W2      0.130000
     62 H25         4.8730    2.4880    3.8890 hc        1 0W2      0.088625
     63 H26         5.7020    1.3110    4.6140 hc        1 0W2      0.088625
     64 H27         4.3260    0.0760    3.1130 hc        1 0W2      0.111000
     65 H28         3.0120   -0.8340    4.6590 hc        1 0W2      0.088625
     66 H29         4.4750   -0.4730    5.2410 hc        1 0W2      0.088625
     67 H30         3.3400    1.4550    4.8200 hc        1 0W2      0.130000
     68 H31         3.4190    1.3160    7.3400 hc        1 0W2      0.090000
     69 H32         4.7910    0.6660    6.7270 hc        1 0W2      0.090000
     70 H33         1.4320    0.9400    6.4950 hc        1 0W2      0.088625
     71 H34         1.2880   -0.0910    5.1900 hc        1 0W2      0.088625
@<TRIPOS>BOND
     1    1    5 1   
     2    1    6 1   
     3    1   16 1   
     4    1   38 1   
     5    2   14 1   
     6    2   15 1   
     7    3    7 1   
     8    3   18 1   
     9    3   20 1   
    10    4   20 1   
    11    4   28 1   
    12    4   39 1   
    13    4   40 1   
    14    5   41 1   
    15    6   17 1   
    16    7    8 1   
    17    8   19 1   
    18    9   10 1   
    19    9   42 1   
    20   10   43 1   
    21   11   12 1   
    22   11   44 1   
    23   12   45 1   
    24   13   14 1   
    25   13   29 1   
    26   13   33 1   
    27   13   46 1   
    28   14   47 1   
    29   16   48 1   
    30   16   49 1   
    31   16   50 1   
    32   18   28 1   
    33   20   21 1   
    34   20   51 1   
    35   21   22 1   
    36   21   26 1   
    37   22   23 1   
    38   22   52 1   
    39   23   53 1   
    40   24   25 1   
    41   24   54 1   
    42   25   55 1   
    43   28   56 1   
    44   28   57 1   
    45   29   30 1   
    46   29   37 1   
    47   29   58 1   
    48   30   31 1   
    49   30   59 1   
    50   30   60 1   
    51   31   32 1   
    52   31   36 1   
    53   31   61 1   
    54   32   33 1   
    55   32   62 1   
    56   32   63 1   
    57   33   34 1   
    58   33   64 1   
    59   34   35 1   
    60   34   65 1   
    61   34   66 1   
    62   35   36 1   
    63   35   37 1   
    64   35   67 1   
    65   36   68 1   
    66   36   69 1   
    67   37   70 1   
    68   37   71 1   
@<TRIPOS>SUBSTRUCTURE
     1 0W2         1 TEMP              0 ****  ****    0 ROOT
