@<TRIPOS>MOLECULE
0W2
   73    78     1     0     0
SMALL
bcc


@<TRIPOS>ATOM
      1 C5          2.4320   -0.3410   -1.1830 c3        1 0W2      0.062500
      2 C6          3.7940    1.2200    0.2360 c         1 0W2      0.509100
      3 N1         -1.2090    0.3650   -0.2350 nh        1 0W2     -0.304000
      4 C2         -1.5660    0.8700   -2.6330 c3        1 0W2     -0.098400
      5 N3          3.6470   -0.1800   -0.2660 n4        1 0W2     -0.649800
      6 C4          1.1420   -0.1690   -0.3260 c         1 0W2      0.641100
      7 C11        -1.7860   -0.7810    0.4520 ca        1 0W2     -0.030400
      8 C12        -2.0180   -2.0500   -0.1430 ca        1 0W2      0.107900
      9 C13        -2.6230   -3.0830    0.5930 ca        1 0W2     -0.147000
     10 C14        -3.0020   -2.8600    1.9130 ca        1 0W2     -0.074000
     11 C15        -2.7730   -1.6190    2.5090 ca        1 0W2     -0.133000
     12 C16        -2.1670   -0.5900    1.7940 ca        1 0W2     -0.059000
     13 C31         4.3820    1.4830    2.6530 c3        1 0W2      0.132500
     14 N4          3.2880    1.5580    1.5860 n4        1 0W2     -0.655800
     15 O1          4.3320    2.0570   -0.4750 o         1 0W2     -0.327100
     16 C66         2.4650   -1.7240   -1.8120 c3        1 0W2     -0.146100
     17 O2          1.2990   -0.2960    0.9220 o         1 0W2     -0.700100
     18 N2         -0.0290    0.0830   -0.9540 n         1 0W2     -0.261200
     19 F1         -1.6530   -2.2850   -1.4290 f         1 0W2     -0.151900
     20 C1         -2.1980    0.9520   -1.2220 c3        1 0W2      0.196800
     21 C21        -2.5300    2.3630   -0.8360 ca        1 0W2     -0.096300
     22 C26        -1.5750    3.3750   -0.9910 ca        1 0W2     -0.119000
     23 C25        -1.8730    4.6970   -0.6770 ca        1 0W2     -0.131000
     24 C24        -3.1410    5.0280   -0.1950 ca        1 0W2     -0.092000
     25 C23        -4.1010    4.0340   -0.0230 ca        1 0W2     -0.110000
     26 C22        -3.7980    2.7020   -0.3360 ca        1 0W2      0.036400
     27 CL1        -5.0080    1.5340   -0.1010 cl        1 0W2     -0.059400
     28 C3         -0.1620    0.2960   -2.4110 c3        1 0W2      0.063000
     29 C36         4.9240    0.0560    2.8360 c3        1 0W2     -0.079200
     30 C37         3.8540   -0.8730    3.3980 c3        1 0W2     -0.086400
     31 C38         3.3580   -0.3380    4.7380 c3        1 0W2     -0.068700
     32 C40         2.7640    1.0530    4.5500 c3        1 0W2     -0.086400
     33 C32         3.8210    2.0010    3.9980 c3        1 0W2     -0.079200
     34 C33         5.0050    2.0690    4.9660 c3        1 0W2     -0.086400
     35 C34         5.5930    0.6780    5.1630 c3        1 0W2     -0.068700
     36 C39         4.5260   -0.2600    5.7170 c3        1 0W2     -0.081400
     37 C35         6.0920    0.1460    3.8250 c3        1 0W2     -0.086400
     38 H1          2.5190    0.4650   -1.9720 hx        1 0W2      0.134700
     39 H4          3.5290   -0.8460    0.5240 hn        1 0W2      0.502800
     40 H5         -2.8040   -4.0560    0.1090 ha        1 0W2      0.171000
     41 H6         -3.4910   -3.6670    2.4850 ha        1 0W2      0.166000
     42 H7         -3.0820   -1.4460    3.5520 ha        1 0W2      0.161000
     43 H8         -2.0050    0.3870    2.2790 ha        1 0W2      0.154000
     44 H9          5.2080    2.1700    2.2950 hx        1 0W2      0.117700
     45 H10         2.4950    0.9360    1.8780 hn        1 0W2      0.513800
     46 H11         1.5900   -1.8160   -2.5100 hc        1 0W2      0.105367
     47 H12         2.3690   -2.5330   -1.0440 hc        1 0W2      0.105367
     48 H13         3.3940   -1.8850   -2.4130 hc        1 0W2      0.105367
     49 H14        -3.1410    0.3250   -1.2140 h1        1 0W2      0.114700
     50 H15        -0.5790    3.1190   -1.3810 ha        1 0W2      0.106000
     51 H16        -1.1190    5.4850   -0.8210 ha        1 0W2      0.143000
     52 H17        -3.3870    6.0750    0.0450 ha        1 0W2      0.161000
     53 H18        -5.1040    4.2950    0.3550 ha        1 0W2      0.171000
     54 H19         0.6280    1.0110   -2.7650 h1        1 0W2      0.067700
     55 H20        -0.0520   -0.6920   -2.9380 h1        1 0W2      0.067700
     56 H21         5.3180   -0.3370    1.8610 hc        1 0W2      0.048200
     57 H22         2.9940   -0.9870    2.6870 hc        1 0W2      0.072450
     58 H23         4.2990   -1.8930    3.5510 hc        1 0W2      0.072450
     59 H24         2.5700   -1.0300    5.1440 hc        1 0W2      0.100700
     60 H25         1.8630    1.0080    3.8860 hc        1 0W2      0.072450
     61 H26         2.4140    1.4440    5.5440 hc        1 0W2      0.072450
     62 H27         3.3920    3.0320    3.8690 hc        1 0W2      0.048200
     63 H28         5.7850    2.7720    4.5770 hc        1 0W2      0.072450
     64 H29         4.6390    2.4730    5.9470 hc        1 0W2      0.072450
     65 H30         6.4550    0.7360    5.8830 hc        1 0W2      0.100700
     66 H31         4.9590   -1.2810    5.8780 hc        1 0W2      0.077200
     67 H32         4.1650    0.1170    6.7090 hc        1 0W2      0.077200
     68 H33         6.8930    0.8140    3.4150 hc        1 0W2      0.072450
     69 H34         6.5310   -0.8770    3.9590 hc        1 0W2      0.072450
     70 H2         -1.5220    1.8750   -3.1200 hc        1 0W2      0.099700
     71 H321        4.4950   -0.4240   -0.8050 hn        1 0W2      0.502800
     72 H42         2.9410    2.5330    1.5540 hn        1 0W2      0.513800
     73 H3         -2.1690    0.1880   -3.2850 hc        1 0W2      0.099700
@<TRIPOS>BOND
     1    1    5 1   
     2    1    6 1   
     3    1   16 1   
     4    1   38 1   
     5    2    5 1   
     6    2   14 1   
     7    2   15 2   
     8    3    7 1   
     9    3   18 1   
    10    3   20 1   
    11    4   20 1   
    12    4   28 1   
    13    4   70 1   
    14    4   73 1   
    15    5   39 1   
    16    5   71 1   
    17    6   17 2   
    18    6   18 1   
    19    7    8 ar  
    20    7   12 ar  
    21    8    9 ar  
    22    8   19 1   
    23    9   10 ar  
    24    9   40 1   
    25   10   11 ar  
    26   10   41 1   
    27   11   12 ar  
    28   11   42 1   
    29   12   43 1   
    30   13   14 1   
    31   13   29 1   
    32   13   33 1   
    33   13   44 1   
    34   14   45 1   
    35   14   72 1   
    36   16   46 1   
    37   16   47 1   
    38   16   48 1   
    39   18   28 1   
    40   20   21 1   
    41   20   49 1   
    42   21   22 ar  
    43   21   26 ar  
    44   22   23 ar  
    45   22   50 1   
    46   23   24 ar  
    47   23   51 1   
    48   24   25 ar  
    49   24   52 1   
    50   25   26 ar  
    51   25   53 1   
    52   26   27 1   
    53   28   54 1   
    54   28   55 1   
    55   29   30 1   
    56   29   37 1   
    57   29   56 1   
    58   30   31 1   
    59   30   57 1   
    60   30   58 1   
    61   31   32 1   
    62   31   36 1   
    63   31   59 1   
    64   32   33 1   
    65   32   60 1   
    66   32   61 1   
    67   33   34 1   
    68   33   62 1   
    69   34   35 1   
    70   34   63 1   
    71   34   64 1   
    72   35   36 1   
    73   35   37 1   
    74   35   65 1   
    75   36   66 1   
    76   36   67 1   
    77   37   68 1   
    78   37   69 1   
@<TRIPOS>SUBSTRUCTURE
     1 0W2         1 TEMP              0 ****  ****    0 ROOT
