@<TRIPOS>MOLECULE
0W2
   73    78     1     0     0
SMALL
bcc


@<TRIPOS>ATOM
      1 C5          2.4390   -0.3650   -1.1800 c3        1 0W2      0.063500
      2 C6          3.8180    1.1780    0.2440 c         1 0W2      0.509100
      3 N1         -1.1960    0.4020   -0.2570 nh        1 0W2     -0.304000
      4 C2         -1.5290    0.9070   -2.6580 c3        1 0W2     -0.098400
      5 N3          3.6510   -0.2210   -0.2550 n4        1 0W2     -0.649800
      6 C4          1.1470   -0.1690   -0.3310 c         1 0W2      0.641100
      7 C11        -1.7940   -0.7320    0.4330 ca        1 0W2     -0.030400
      8 C12        -2.0410   -2.0000   -0.1580 ca        1 0W2      0.107900
      9 C13        -2.6660   -3.0200    0.5810 ca        1 0W2     -0.147000
     10 C14        -3.0490   -2.7840    1.8970 ca        1 0W2     -0.074000
     11 C15        -2.8050   -1.5440    2.4880 ca        1 0W2     -0.133000
     12 C16        -2.1800   -0.5280    1.7720 ca        1 0W2     -0.059000
     13 C31         4.3960    1.4390    2.6630 c3        1 0W2      0.132500
     14 N4          3.3100    1.5290    1.5900 n4        1 0W2     -0.655800
     15 O1          4.3750    2.0030   -0.4660 o         1 0W2     -0.327100
     16 C66         2.4530   -1.7490   -1.8040 c3        1 0W2     -0.146100
     17 O2          1.2940   -0.2940    0.9190 o         1 0W2     -0.700100
     18 N2         -0.0170    0.0990   -0.9680 n         1 0W2     -0.261200
     19 F1         -1.6720   -2.2460   -1.4400 f         1 0W2     -0.151900
     20 C1         -2.1710    0.9980   -1.2530 c3        1 0W2      0.196800
     21 C21        -2.4920    2.4140   -0.8710 ca        1 0W2     -0.097300
     22 C26        -1.5220    3.4140   -1.0150 ca        1 0W2     -0.119000
     23 C25        -1.8090    4.7400   -0.7050 ca        1 0W2     -0.131000
     24 C24        -3.0790    5.0850   -0.2370 ca        1 0W2     -0.092000
     25 C23        -4.0520    4.1030   -0.0770 ca        1 0W2     -0.110000
     26 C22        -3.7610    2.7670   -0.3860 ca        1 0W2      0.036400
     27 CL1        -4.9880    1.6140   -0.1660 cl        1 0W2     -0.059400
     28 C3         -0.1370    0.3100   -2.4260 c3        1 0W2      0.063000
     29 C36         4.9120    0.0030    2.8540 c3        1 0W2     -0.079200
     30 C37         3.8230   -0.9060    3.4130 c3        1 0W2     -0.086400
     31 C38         3.3280   -0.3580    4.7480 c3        1 0W2     -0.068700
     32 C40         2.7590    1.0420    4.5520 c3        1 0W2     -0.086400
     33 C32         3.8360    1.9700    4.0030 c3        1 0W2     -0.079200
     34 C33         5.0150    2.0210    4.9790 c3        1 0W2     -0.086400
     35 C34         5.5780    0.6200    5.1830 c3        1 0W2     -0.068700
     36 C39         4.4920   -0.2970    5.7330 c3        1 0W2     -0.081400
     37 C35         6.0760    0.0760    3.8500 c3        1 0W2     -0.086400
     38 H1          2.5450    0.4380   -1.9700 hx        1 0W2      0.134700
     39 H4          4.4980   -0.4810   -0.7880 hn        1 0W2      0.502800
     40 H5         -2.8590   -3.9930    0.1010 ha        1 0W2      0.171000
     41 H6         -3.5530   -3.5810    2.4700 ha        1 0W2      0.166000
     42 H7         -3.1170   -1.3610    3.5290 ha        1 0W2      0.161000
     43 H8         -2.0060    0.4490    2.2530 ha        1 0W2      0.155000
     44 H9          5.2360    2.1100    2.3090 hx        1 0W2      0.117700
     45 H10         2.9800    2.5090    1.5530 hn        1 0W2      0.513800
     46 H11         1.5820   -1.8280   -2.5090 hc        1 0W2      0.105367
     47 H12         3.3840   -1.9280   -2.3990 hc        1 0W2      0.105367
     48 H13         2.3380   -2.5540   -1.0360 hc        1 0W2      0.105367
     49 H14        -3.1200    0.3820   -1.2510 h1        1 0W2      0.114700
     50 H15        -0.5250    3.1470   -1.3920 ha        1 0W2      0.106000
     51 H16        -1.0440    5.5190   -0.8390 ha        1 0W2      0.143000
     52 H17        -3.3150    6.1350   -0.0000 ha        1 0W2      0.161000
     53 H18        -5.0560    4.3760    0.2890 ha        1 0W2      0.171000
     54 H19        -0.0420   -0.6820   -2.9480 h1        1 0W2      0.067700
     55 H20         0.6680    1.0080   -2.7780 h1        1 0W2      0.067700
     56 H21         5.3060   -0.4000    1.8820 hc        1 0W2      0.048200
     57 H22         2.9660   -1.0070    2.6960 hc        1 0W2      0.072450
     58 H23         4.2500   -1.9330    3.5710 hc        1 0W2      0.072450
     59 H24         2.5260   -1.0350    5.1510 hc        1 0W2      0.100700
     60 H25         1.8620    1.0100    3.8820 hc        1 0W2      0.072450
     61 H26         2.4100    1.4420    5.5430 hc        1 0W2      0.072450
     62 H27         3.4250    3.0080    3.8690 hc        1 0W2      0.048200
     63 H28         4.6500    2.4340    5.9560 hc        1 0W2      0.072450
     64 H29         5.8100    2.7100    4.5920 hc        1 0W2      0.072450
     65 H30         6.4360    0.6660    5.9090 hc        1 0W2      0.100700
     66 H31         4.9060   -1.3250    5.9000 hc        1 0W2      0.077200
     67 H32         4.1310    0.0880    6.7220 hc        1 0W2      0.077200
     68 H33         6.8910    0.7280    3.4430 hc        1 0W2      0.072450
     69 H34         6.4960   -0.9540    3.9900 hc        1 0W2      0.072450
     70 H2         -1.4630    1.9120   -3.1430 hc        1 0W2      0.099700
     71 H321        3.5160   -0.8830    0.5360 hn        1 0W2      0.502800
     72 H42         2.5050    0.9210    1.8780 hn        1 0W2      0.513800
     73 H3         -2.1380    0.2380   -3.3160 hc        1 0W2      0.099700
@<TRIPOS>BOND
     1    1    5 1   
     2    1    6 1   
     3    1   16 1   
     4    1   38 1   
     5    2    5 1   
     6    2   14 1   
     7    2   15 2   
     8    3    7 1   
     9    3   18 1   
    10    3   20 1   
    11    4   20 1   
    12    4   28 1   
    13    4   70 1   
    14    4   73 1   
    15    5   39 1   
    16    5   71 1   
    17    6   17 2   
    18    6   18 1   
    19    7    8 ar  
    20    7   12 ar  
    21    8    9 ar  
    22    8   19 1   
    23    9   10 ar  
    24    9   40 1   
    25   10   11 ar  
    26   10   41 1   
    27   11   12 ar  
    28   11   42 1   
    29   12   43 1   
    30   13   14 1   
    31   13   29 1   
    32   13   33 1   
    33   13   44 1   
    34   14   45 1   
    35   14   72 1   
    36   16   46 1   
    37   16   47 1   
    38   16   48 1   
    39   18   28 1   
    40   20   21 1   
    41   20   49 1   
    42   21   22 ar  
    43   21   26 ar  
    44   22   23 ar  
    45   22   50 1   
    46   23   24 ar  
    47   23   51 1   
    48   24   25 ar  
    49   24   52 1   
    50   25   26 ar  
    51   25   53 1   
    52   26   27 1   
    53   28   54 1   
    54   28   55 1   
    55   29   30 1   
    56   29   37 1   
    57   29   56 1   
    58   30   31 1   
    59   30   57 1   
    60   30   58 1   
    61   31   32 1   
    62   31   36 1   
    63   31   59 1   
    64   32   33 1   
    65   32   60 1   
    66   32   61 1   
    67   33   34 1   
    68   33   62 1   
    69   34   35 1   
    70   34   63 1   
    71   34   64 1   
    72   35   36 1   
    73   35   37 1   
    74   35   65 1   
    75   36   66 1   
    76   36   67 1   
    77   37   68 1   
    78   37   69 1   
@<TRIPOS>SUBSTRUCTURE
     1 0W2         1 TEMP              0 ****  ****    0 ROOT
