@<TRIPOS>MOLECULE
0W2
   71    76     1     0     0
SMALL
bcc


@<TRIPOS>ATOM
      1 C5         -0.7940   -0.1510    2.6810 c3        1 0W2      0.025700
      2 C6         -2.7150    0.0740    1.1650 c         1 0W2      0.740100
      3 N1          2.5970   -0.5230    0.9380 nh        1 0W2     -0.357000
      4 C2          3.0950    1.6860    1.8350 c3        1 0W2     -0.094400
      5 N3         -2.0520   -0.6630    2.1780 n         1 0W2     -0.528900
      6 C4          0.4110   -0.8220    1.9590 c         1 0W2      0.614100
      7 C11         2.5260   -1.2730   -0.2970 ca        1 0W2      0.054600
      8 C12         3.4200   -2.3740   -0.4500 ca        1 0W2      0.151900
      9 C13         3.3570   -3.1820   -1.6000 ca        1 0W2     -0.166000
     10 C14         2.4150   -2.9210   -2.5880 ca        1 0W2     -0.108000
     11 C15         1.5330   -1.8530   -2.4460 ca        1 0W2     -0.141000
     12 C16         1.5890   -1.0380   -1.3190 ca        1 0W2     -0.108000
     13 C31        -4.6470    0.2250   -0.3440 c3        1 0W2      0.096700
     14 N4         -3.6950   -0.5790    0.3960 n         1 0W2     -0.531900
     15 O1         -2.4300    1.2810    0.9680 o         1 0W2     -0.642100
     16 C66        -0.6180   -0.4440    4.1730 c3        1 0W2     -0.099100
     17 O2          0.4130   -2.0560    1.8200 o         1 0W2     -0.563100
     18 N2          1.3750    0.0350    1.3720 n         1 0W2     -0.313200
     19 F1          4.3500   -2.6630    0.4910 f         1 0W2     -0.130900
     20 C1          3.6400    0.5550    0.9310 c3        1 0W2      0.205800
     21 C21         4.0450    1.1200   -0.4020 ca        1 0W2     -0.099300
     22 C26         3.0950    1.7980   -1.1800 ca        1 0W2     -0.109000
     23 C25         3.4410    2.3620   -2.4040 ca        1 0W2     -0.130000
     24 C24         4.7510    2.2610   -2.8720 ca        1 0W2     -0.115000
     25 C23         5.7100    1.5980   -2.1130 ca        1 0W2     -0.128000
     26 C22         5.3600    1.0300   -0.8810 ca        1 0W2      0.033400
     27 CL1         6.5860    0.2440    0.0020 cl        1 0W2     -0.087400
     28 C3          1.6120    1.3410    2.0170 c3        1 0W2      0.059000
     29 C36        -5.8700    0.6950    0.4850 c3        1 0W2     -0.075200
     30 C37        -6.7570   -0.4830    0.8650 c3        1 0W2     -0.070400
     31 C38        -7.2600   -1.1810   -0.3940 c3        1 0W2     -0.065200
     32 C40        -6.0720   -1.6870   -1.2040 c3        1 0W2     -0.070400
     33 C32        -5.1750   -0.5200   -1.5960 c3        1 0W2     -0.075200
     34 C33        -5.9780    0.4760   -2.4290 c3        1 0W2     -0.070400
     35 C34        -7.1690    0.9850   -1.6250 c3        1 0W2     -0.065200
     36 C39        -8.0600   -0.1910   -1.2360 c3        1 0W2     -0.069400
     37 C35        -6.6680    1.6790   -0.3630 c3        1 0W2     -0.070400
     38 H1         -0.7960    0.9690    2.5220 h1        1 0W2      0.106700
     39 H3          3.2200    2.6880    1.3600 hc        1 0W2      0.067200
     40 H4         -2.0770   -1.6590    2.1130 hn        1 0W2      0.306500
     41 H5          4.0580   -4.0240   -1.6960 ha        1 0W2      0.147000
     42 H6          2.3680   -3.5630   -3.4800 ha        1 0W2      0.135000
     43 H7          0.7860   -1.6480   -3.2270 ha        1 0W2      0.134000
     44 H8          0.8790   -0.1990   -1.2330 ha        1 0W2      0.146000
     45 H9         -4.0940    1.1490   -0.6930 h1        1 0W2      0.090700
     46 H10        -4.0550   -1.4400    0.7420 hn        1 0W2      0.295500
     47 H11         0.3440    0.0020    4.5210 hc        1 0W2      0.052700
     48 H12        -1.4570    0.0030    4.7580 hc        1 0W2      0.052700
     49 H13        -0.5900   -1.5450    4.3610 hc        1 0W2      0.052700
     50 H14         4.5240    0.0500    1.4210 h1        1 0W2      0.106700
     51 H15         2.0600    1.8770   -0.8110 ha        1 0W2      0.145000
     52 H16         2.6800    2.8860   -3.0010 ha        1 0W2      0.138000
     53 H17         5.0290    2.7040   -3.8400 ha        1 0W2      0.138000
     54 H18         6.7450    1.5180   -2.4800 ha        1 0W2      0.148000
     55 H19         1.3480    1.3200    3.1090 h1        1 0W2      0.060200
     56 H20         0.9530    2.0910    1.4990 h1        1 0W2      0.060200
     57 H21        -5.5100    1.2130    1.4150 hc        1 0W2      0.061700
     58 H22        -6.1950   -1.2100    1.5050 hc        1 0W2      0.042700
     59 H23        -7.6300   -0.1140    1.4640 hc        1 0W2      0.042700
     60 H24        -7.9160   -2.0450   -0.1080 hc        1 0W2      0.050200
     61 H25        -5.4990   -2.4450   -0.6120 hc        1 0W2      0.042700
     62 H26        -6.4410   -2.1980   -2.1310 hc        1 0W2      0.042700
     63 H27        -4.3090   -0.8990   -2.2010 hc        1 0W2      0.061700
     64 H28        -5.3260    1.3360   -2.7290 hc        1 0W2      0.042700
     65 H29        -6.3380   -0.0260   -3.3630 hc        1 0W2      0.042700
     66 H30        -7.7570    1.7120   -2.2450 hc        1 0W2      0.050200
     67 H31        -8.4420   -0.7000   -2.1580 hc        1 0W2      0.041700
     68 H32        -8.9430    0.1770   -0.6530 hc        1 0W2      0.041700
     69 H33        -7.5380    2.0630    0.2300 hc        1 0W2      0.042700
     70 H34        -6.0260    2.5540   -0.6380 hc        1 0W2      0.042700
     71 H2          3.6290    1.6880    2.8150 hc        1 0W2      0.067200
@<TRIPOS>BOND
     1    1    5 1   
     2    1    6 1   
     3    1   16 1   
     4    1   38 1   
     5    2    5 1   
     6    2   14 1   
     7    2   15 2   
     8    3    7 1   
     9    3   18 1   
    10    3   20 1   
    11    4   20 1   
    12    4   28 1   
    13    4   39 1   
    14    4   71 1   
    15    5   40 1   
    16    6   17 2   
    17    6   18 1   
    18    7    8 ar  
    19    7   12 ar  
    20    8    9 ar  
    21    8   19 1   
    22    9   10 ar  
    23    9   41 1   
    24   10   11 ar  
    25   10   42 1   
    26   11   12 ar  
    27   11   43 1   
    28   12   44 1   
    29   13   14 1   
    30   13   29 1   
    31   13   33 1   
    32   13   45 1   
    33   14   46 1   
    34   16   47 1   
    35   16   48 1   
    36   16   49 1   
    37   18   28 1   
    38   20   21 1   
    39   20   50 1   
    40   21   22 ar  
    41   21   26 ar  
    42   22   23 ar  
    43   22   51 1   
    44   23   24 ar  
    45   23   52 1   
    46   24   25 ar  
    47   24   53 1   
    48   25   26 ar  
    49   25   54 1   
    50   26   27 1   
    51   28   55 1   
    52   28   56 1   
    53   29   30 1   
    54   29   37 1   
    55   29   57 1   
    56   30   31 1   
    57   30   58 1   
    58   30   59 1   
    59   31   32 1   
    60   31   36 1   
    61   31   60 1   
    62   32   33 1   
    63   32   61 1   
    64   32   62 1   
    65   33   34 1   
    66   33   63 1   
    67   34   35 1   
    68   34   64 1   
    69   34   65 1   
    70   35   36 1   
    71   35   37 1   
    72   35   66 1   
    73   36   67 1   
    74   36   68 1   
    75   37   69 1   
    76   37   70 1   
@<TRIPOS>SUBSTRUCTURE
     1 0W2         1 TEMP              0 ****  ****    0 ROOT
