@<TRIPOS>MOLECULE
0W2
   73    78     1     0     0
SMALL
bcc


@<TRIPOS>ATOM
      1 C5          2.4350   -0.3600   -1.1810 c3        1 0W2      0.062500
      2 C6          3.8080    1.1920    0.2380 c         1 0W2      0.509100
      3 N1         -1.2010    0.3870   -0.2480 nh        1 0W2     -0.303000
      4 C2         -1.5460    0.8870   -2.6490 c3        1 0W2     -0.098400
      5 N3          3.6490   -0.2080   -0.2600 ny        1 0W2     -0.649800
      6 C4          1.1440   -0.1720   -0.3290 c         1 0W2      0.641100
      7 C11        -1.7930   -0.7510    0.4400 ca        1 0W2     -0.030400
      8 C12        -2.0350   -2.0190   -0.1520 ca        1 0W2      0.107900
      9 C13        -2.6550   -3.0430    0.5860 ca        1 0W2     -0.147000
     10 C14        -3.0360   -2.8120    1.9040 ca        1 0W2     -0.074000
     11 C15        -2.7960   -1.5720    2.4960 ca        1 0W2     -0.133000
     12 C16        -2.1770   -0.5510    1.7800 ca        1 0W2     -0.060000
     13 C31         4.3910    1.4570    2.6550 c3        1 0W2      0.132500
     14 N4          3.3010    1.5400    1.5850 ny        1 0W2     -0.655800
     15 O1          4.3560    2.0210   -0.4740 o         1 0W2     -0.327100
     16 C66         2.4560   -1.7450   -1.8050 c3        1 0W2     -0.146100
     17 O2          1.2960   -0.2970    0.9200 o         1 0W2     -0.700100
     18 N2         -0.0220    0.0900   -0.9630 n         1 0W2     -0.261200
     19 F1         -1.6680   -2.2620   -1.4350 f         1 0W2     -0.151900
     20 C1         -2.1810    0.9810   -1.2410 c3        1 0W2      0.196800
     21 C21        -2.4990    2.3980   -0.8610 ca        1 0W2     -0.096300
     22 C26        -1.5320    3.3990   -1.0170 ca        1 0W2     -0.119000
     23 C25        -1.8170    4.7250   -0.7090 ca        1 0W2     -0.131000
     24 C24        -3.0830    5.0710   -0.2310 ca        1 0W2     -0.092000
     25 C23        -4.0540    4.0880   -0.0580 ca        1 0W2     -0.110000
     26 C22        -3.7640    2.7520   -0.3660 ca        1 0W2      0.036400
     27 Cl1        -4.9880    1.5980   -0.1300 cl        1 0W2     -0.059400
     28 C3         -0.1470    0.3010   -2.4210 c3        1 0W2      0.063000
     29 C36         4.9180    0.0250    2.8450 c3        1 0W2     -0.079700
     30 C37         3.8370   -0.8920    3.4060 c3        1 0W2     -0.086400
     31 C38         3.3420   -0.3480    4.7420 c3        1 0W2     -0.068700
     32 C40         2.7620    1.0480    4.5490 c3        1 0W2     -0.086400
     33 C32         3.8300    1.9840    3.9970 c3        1 0W2     -0.079700
     34 C33         5.0120    2.0430    4.9690 c3        1 0W2     -0.086400
     35 C34         5.5850    0.6470    5.1720 c3        1 0W2     -0.068700
     36 C39         4.5070   -0.2790    5.7250 c3        1 0W2     -0.081400
     37 C35         6.0840    0.1070    3.8370 c3        1 0W2     -0.086400
     38 H1          2.5330    0.4430   -1.9720 hx        1 0W2      0.134700
     39 H4          4.4960   -0.4620   -0.7960 hn        1 0W2      0.502800
     40 H5         -2.8430   -4.0160    0.1040 ha        1 0W2      0.171000
     41 H6         -3.5340   -3.6120    2.4760 ha        1 0W2      0.166000
     42 H7         -3.1070   -1.3920    3.5380 ha        1 0W2      0.161000
     43 H8         -2.0070    0.4250    2.2630 ha        1 0W2      0.155000
     44 H9          5.2240    2.1350    2.2990 hx        1 0W2      0.117700
     45 H10         2.5010    0.9260    1.8760 hn        1 0W2      0.513800
     46 H11         1.5830   -1.8300   -2.5060 hc        1 0W2      0.105367
     47 H12         3.3860   -1.9180   -2.4030 hc        1 0W2      0.105367
     48 H13         2.3490   -2.5500   -1.0350 hc        1 0W2      0.105367
     49 H14        -3.1310    0.3650   -1.2340 h1        1 0W2      0.114700
     50 H15        -0.5380    3.1300   -1.4030 ha        1 0W2      0.106000
     51 H16        -1.0540    5.5040   -0.8530 ha        1 0W2      0.143000
     52 H17        -3.3180    6.1210    0.0040 ha        1 0W2      0.161000
     53 H18        -5.0550    4.3620    0.3160 ha        1 0W2      0.171000
     54 H19         0.6510    1.0060   -2.7740 h1        1 0W2      0.067700
     55 H20        -0.0450   -0.6900   -2.9430 h1        1 0W2      0.067700
     56 H21         5.3110   -0.3750    1.8710 hc        1 0W2      0.048200
     57 H22         4.2710   -1.9160    3.5630 hc        1 0W2      0.072450
     58 H23         2.9780   -0.9990    2.6920 hc        1 0W2      0.072450
     59 H24         2.5460   -1.0310    5.1480 hc        1 0W2      0.100700
     60 H25         2.4130    1.4460    5.5400 hc        1 0W2      0.072450
     61 H26         1.8630    1.0100    3.8820 hc        1 0W2      0.072450
     62 H27         3.4120    3.0190    3.8640 hc        1 0W2      0.048200
     63 H28         5.8000    2.7380    4.5810 hc        1 0W2      0.072450
     64 H29         4.6470    2.4540    5.9480 hc        1 0W2      0.072450
     65 H30         6.4450    0.6990    5.8950 hc        1 0W2      0.100700
     66 H31         4.9300   -1.3030    5.8900 hc        1 0W2      0.077200
     67 H32         4.1470    0.1040    6.7150 hc        1 0W2      0.077200
     68 H33         6.8930    0.7650    3.4280 hc        1 0W2      0.072450
     69 H34         6.5120   -0.9210    3.9750 hc        1 0W2      0.072450
     70 H2         -2.1530    0.2090   -3.3000 hc        1 0W2      0.099700
     71 H321        3.5210   -0.8710    0.5310 hn        1 0W2      0.502800
     72 H42         2.9630    2.5180    1.5490 hn        1 0W2      0.513800
     73 H3         -1.4890    1.8890   -3.1400 hc        1 0W2      0.099700
@<TRIPOS>BOND
     1    1    5 1   
     2    1    6 1   
     3    1   16 1   
     4    1   38 1   
     5    2    5 1   
     6    2   14 1   
     7    2   15 2   
     8    3    7 1   
     9    3   18 1   
    10    3   20 1   
    11    4   20 1   
    12    4   28 1   
    13    4   70 1   
    14    4   73 1   
    15    5   39 1   
    16    5   71 1   
    17    6   17 2   
    18    6   18 1   
    19    7    8 ar  
    20    7   12 ar  
    21    8    9 ar  
    22    8   19 1   
    23    9   10 ar  
    24    9   40 1   
    25   10   11 ar  
    26   10   41 1   
    27   11   12 ar  
    28   11   42 1   
    29   12   43 1   
    30   13   14 1   
    31   13   29 1   
    32   13   33 1   
    33   13   44 1   
    34   14   45 1   
    35   14   72 1   
    36   16   46 1   
    37   16   47 1   
    38   16   48 1   
    39   18   28 1   
    40   20   21 1   
    41   20   49 1   
    42   21   22 ar  
    43   21   26 ar  
    44   22   23 ar  
    45   22   50 1   
    46   23   24 ar  
    47   23   51 1   
    48   24   25 ar  
    49   24   52 1   
    50   25   26 ar  
    51   25   53 1   
    52   26   27 1   
    53   28   54 1   
    54   28   55 1   
    55   29   30 1   
    56   29   37 1   
    57   29   56 1   
    58   30   31 1   
    59   30   57 1   
    60   30   58 1   
    61   31   32 1   
    62   31   36 1   
    63   31   59 1   
    64   32   33 1   
    65   32   60 1   
    66   32   61 1   
    67   33   34 1   
    68   33   62 1   
    69   34   35 1   
    70   34   63 1   
    71   34   64 1   
    72   35   36 1   
    73   35   37 1   
    74   35   65 1   
    75   36   66 1   
    76   36   67 1   
    77   37   68 1   
    78   37   69 1   
@<TRIPOS>SUBSTRUCTURE
     1 0W2         1 TEMP              0 ****  ****    0 ROOT
