@<TRIPOS>MOLECULE
0W5
   36    32     1     0     0
SMALL
bcc


@<TRIPOS>ATOM
      1 O1         -2.6580   -5.6390   -4.2080 o         1 0W5     -0.571000
      2 C2         -1.7190   -4.9610   -4.7010 c1        1 0W5      0.341000
      3 C27        -0.4970   -4.6440   -3.8670 c1        1 0W5     -0.165000
      4 C28        -0.4270   -3.4800   -3.1910 c1        1 0W5     -0.165000
      5 C29        -1.5700   -2.4910   -3.2660 c1        1 0W5     -0.165000
      6 C30        -1.5960   -1.4280   -2.4390 c1        1 0W5     -0.165000
      7 C31        -0.4830   -1.2220   -1.4360 c2        1 0W5     -0.112000
      8 C32        -0.8530   -0.0960   -0.4950 c3        1 0W5     -0.154000
      9 C33         0.3770    0.3550    0.2610 c3        1 0W5     -0.158000
     10 C34        -0.0200    1.3640    1.3160 c3        1 0W5     -0.158000
     11 C35         1.2230    1.9830    1.9160 c3        1 0W5     -0.154000
     12 C36         0.8440    2.7930    3.1360 c3        1 0W5     -0.108000
     13 C37         1.1360    4.2550    2.8810 c3        1 0W5     -0.206500
     14 C38         1.6490    2.3180    4.3260 c3        1 0W5     -0.206500
     15 H28         0.2400   -5.2810   -3.8180 ha        1 0W5      0.114250
     16 H29         0.3610   -3.2750   -2.6520 ha        1 0W5      0.114250
     17 H30        -2.2880   -2.6240   -3.9130 ha        1 0W5      0.114250
     18 H31        -2.3330   -0.7900   -2.4880 ha        1 0W5      0.114250
     19 H32        -0.3490   -2.0440   -0.9230 ha        1 0W5      0.073500
     20 H33         0.3430   -0.9940   -1.9070 ha        1 0W5      0.073500
     21 H34        -1.2120    0.6540   -1.0100 hc        1 0W5      0.074500
     22 H35        -1.5290   -0.4100    0.1390 hc        1 0W5      0.074500
     23 H36         0.7970   -0.4170    0.6900 hc        1 0W5      0.076000
     24 H37         1.0100    0.7660   -0.3620 hc        1 0W5      0.076000
     25 H38        -0.5330    0.9160    2.0180 hc        1 0W5      0.076500
     26 H39        -0.5690    2.0630    0.9070 hc        1 0W5      0.076500
     27 H40         1.6470    2.5670    1.2560 hc        1 0W5      0.078000
     28 H41         1.8470    1.2760    2.1750 hc        1 0W5      0.078000
     29 H42        -0.1080    2.6780    3.3200 hc        1 0W5      0.085000
     30 H43         0.9460    4.7730    3.6910 hc        1 0W5      0.069833
     31 H44         2.0790    4.3630    2.6380 hc        1 0W5      0.069833
     32 H45         0.5710    4.5780    2.1470 hc        1 0W5      0.069833
     33 H46         1.4820    1.3640    4.4730 hc        1 0W5      0.069833
     34 H47         1.3830    2.8240    5.1230 hc        1 0W5      0.069833
     35 H48         2.6030    2.4600    4.1530 hc        1 0W5      0.069833
     36 OXT        -1.7930   -4.5520   -5.8890 o         1 0W5     -0.571000
@<TRIPOS>BOND
     1    1    2 1   
     2    2   36 1   
     3    3    4 1   
     4    3   15 1   
     5    4   16 1   
     6    5    6 1   
     7    5   17 1   
     8    6   18 1   
     9    7    8 1   
    10    7   19 1   
    11    7   20 1   
    12    8    9 1   
    13    8   21 1   
    14    8   22 1   
    15    9   10 1   
    16    9   23 1   
    17    9   24 1   
    18   10   11 1   
    19   10   25 1   
    20   10   26 1   
    21   11   12 1   
    22   11   27 1   
    23   11   28 1   
    24   12   13 1   
    25   12   14 1   
    26   12   29 1   
    27   13   30 1   
    28   13   31 1   
    29   13   32 1   
    30   14   33 1   
    31   14   34 1   
    32   14   35 1   
@<TRIPOS>SUBSTRUCTURE
     1 0W5         1 TEMP              0 ****  ****    0 ROOT
