@<TRIPOS>MOLECULE
0W5
   36    34     1     0     0
SMALL
bcc


@<TRIPOS>ATOM
      1 O1         -1.8330   -1.1470   -0.9400 o         1 0W5     -0.206500
      2 C2         -0.7550   -0.6560   -1.0520 c1        1 0W5      0.414000
      3 C27         2.0020    0.1810    1.8350 c2        1 0W5     -0.246000
      4 C28         1.5470    1.0600    2.7320 c2        1 0W5     -0.113000
      5 C29         1.8170    1.0440    4.1550 c2        1 0W5     -0.167000
      6 C30         2.3820    0.0250    4.8180 c2        1 0W5     -0.128000
      7 C31         2.6590   -0.0130    6.2710 c3        1 0W5     -0.138000
      8 C32         2.2830    1.2380    7.0360 c3        1 0W5     -0.158000
      9 C33         2.6210    1.1050    8.5060 c3        1 0W5     -0.155000
     10 C34         2.2280    2.3450    9.2800 c3        1 0W5     -0.149000
     11 C35         2.5700    2.2350   10.7460 c3        1 0W5     -0.185000
     12 C36         1.9080    3.3940   11.5410 c3        1 0W5      0.112000
     13 C37         0.4790    3.4450   11.4280 c2        1 0W5     -0.897000
     14 C38         2.3820    3.2460   12.9870 c3        1 0W5     -0.196000
     15 H28         2.6500   -0.6630    2.1000 ha        1 0W5      0.108000
     16 H29         1.7560    0.2590    0.7670 ha        1 0W5      0.108000
     17 H30         0.9080    1.8990    2.4000 ha        1 0W5      0.113000
     18 H31         1.5090    1.9580    4.6950 ha        1 0W5      0.136000
     19 H32         2.6820   -0.8920    4.2800 ha        1 0W5      0.104000
     20 H33         2.1090   -0.8910    6.7120 hc        1 0W5      0.085500
     21 H34         3.7570   -0.2140    6.4150 hc        1 0W5      0.085500
     22 H35         1.1840    1.4350    6.9260 hc        1 0W5      0.079000
     23 H36         2.8240    2.1220    6.6070 hc        1 0W5      0.079000
     24 H37         2.0880    0.2150    8.9340 hc        1 0W5      0.061500
     25 H38         3.7210    0.9170    8.6220 hc        1 0W5      0.061500
     26 H39         2.7420    3.2380    8.8360 hc        1 0W5      0.085000
     27 H40         1.1180    2.5220    9.2050 hc        1 0W5      0.085000
     28 H41         2.1860    1.2640   11.1510 hc        1 0W5      0.028000
     29 H42         3.6830    2.2400   10.8800 hc        1 0W5      0.028000
     30 H43         2.3730    4.3400   11.1260 hc        1 0W5     -0.000000
     31 H44         0.0010    4.1650   10.7760 ha        1 0W5      0.046000
     32 H45        -0.1480    2.7550   11.9770 ha        1 0W5      0.046000
     33 H46         2.0230    4.1140   13.5880 hc        1 0W5      0.026667
     34 H47         1.9660    2.3130   13.4360 hc        1 0W5      0.026667
     35 H48         3.4980    3.2020   13.0590 hc        1 0W5      0.026667
     36 OXT         0.3220   -0.1680   -1.1760 o         1 0W5     -0.206500
@<TRIPOS>BOND
     1    1    2 1   
     2    2   36 1   
     3    3    4 1   
     4    3   15 1   
     5    3   16 1   
     6    4    5 1   
     7    4   17 1   
     8    5    6 1   
     9    5   18 1   
    10    6    7 1   
    11    6   19 1   
    12    7    8 1   
    13    7   20 1   
    14    7   21 1   
    15    8    9 1   
    16    8   22 1   
    17    8   23 1   
    18    9   10 1   
    19    9   24 1   
    20    9   25 1   
    21   10   11 1   
    22   10   26 1   
    23   10   27 1   
    24   11   12 1   
    25   11   28 1   
    26   11   29 1   
    27   12   13 1   
    28   12   14 1   
    29   12   30 1   
    30   13   31 1   
    31   13   32 1   
    32   14   33 1   
    33   14   34 1   
    34   14   35 1   
@<TRIPOS>SUBSTRUCTURE
     1 0W5         1 TEMP              0 ****  ****    0 ROOT
