@<TRIPOS>MOLECULE
0W5
   36    47     1     0     0
SMALL
bcc


@<TRIPOS>ATOM
      1 O1          0.0000    0.0000    0.0000 o         1 0W5     -0.471000
      2 C2          1.2160    0.0000    0.0000 c3        1 0W5      0.473000
      3 C27         1.9250    0.0000    1.2280 c3        1 0W5     -0.496000
      4 C28         1.2470   -0.0010    2.4000 c3        1 0W5      0.040000
      5 C29         1.9790   -0.0020    3.6670 c3        1 0W5     -0.059000
      6 C30         1.3100   -0.0040    4.8230 c3        1 0W5     -0.316000
      7 C31         2.0640   -0.0040    6.1280 DU        1 0W5     -0.313000
      8 C32         1.6010    1.1770    6.9840 DU        1 0W5     -0.206000
      9 C33         2.3650    1.1770    8.3090 DU        1 0W5     -0.356000
     10 C34         1.9030    2.3570    9.1650 DU        1 0W5     -0.278000
     11 C35         2.6670    2.3560   10.4910 DU        1 0W5     -0.371000
     12 C36         2.2050    3.5370   11.3470 DU        1 0W5     -0.409000
     13 C37         0.7340    3.3460   11.7270 c3        1 0W5     -0.660500
     14 C38         3.0550    3.6100   12.6170 c3        1 0W5     -0.660500
     15 H28         1.8640   -0.1630    0.1590 DU        1 0W5      0.373000
     16 H29         1.3710    0.5150    1.4550 DU        1 0W5      0.105000
     17 H30         1.7410    0.7570    2.9320 DU        1 0W5      0.040000
     18 H31         1.4340    0.5120    3.8780 DU        1 0W5      0.223000
     19 H32         1.8170   -0.7550    5.3870 DU        1 0W5      0.389000
     20 H33         1.8720   -0.9300    6.6560 ha        1 0W5      0.142000
     21 H34         2.3710    0.6290    6.4540 DU        1 0W5      0.183000
     22 H35         0.5400    1.0870    7.1800 ha        1 0W5      0.117000
     23 H36         2.0780    1.6450    7.3760 DU        1 0W5      0.189000
     24 H37         2.1730    0.2500    8.8370 ha        1 0W5      0.093000
     25 H38         2.6730    1.8090    8.6360 DU        1 0W5      0.217000
     26 H39         2.0970    3.2830    8.6380 ha        1 0W5      0.112000
     27 H40         1.7460    2.3110    9.9230 DU        1 0W5      0.193000
     28 H41         2.4740    1.4300   11.0180 ha        1 0W5      0.097000
     29 H42         2.9750    2.9880   10.8180 DU        1 0W5      0.217000
     30 H43         1.5300    3.9060   11.2520 DU        1 0W5      0.292500
     31 H44         0.5320    3.8600   12.6590 hc        1 0W5      0.069750
     32 H45         0.5260    2.2890   11.8450 hc        1 0W5      0.069750
     33 H46         2.1130    3.6560   12.0830 DU        1 0W5      0.292500
     34 H47         3.2870    2.6780   13.1180 hc        1 0W5      0.069750
     35 H48         3.8640    4.3300   12.6360 hc        1 0W5      0.069750
     36 OXT         1.8910   -0.0040   -1.1680 o         1 0W5     -0.471000
@<TRIPOS>BOND
     1    1    2 1   
     2    2    3 1   
     3    2   15 1   
     4    2   36 1   
     5    3    4 1   
     6    3   15 1   
     7    3   16 1   
     8    4    5 1   
     9    4   16 1   
    10    4   17 1   
    11    5    6 1   
    12    5   17 1   
    13    5   18 1   
    14    6    7 1   
    15    6   18 1   
    16    6   19 1   
    17    7    8 1   
    18    7   19 1   
    19    7   20 1   
    20    7   21 1   
    21    8    9 1   
    22    8   21 1   
    23    8   22 1   
    24    8   23 1   
    25    9   10 1   
    26    9   23 1   
    27    9   24 1   
    28    9   25 1   
    29   10   11 1   
    30   10   25 1   
    31   10   26 1   
    32   10   27 1   
    33   11   12 1   
    34   11   27 1   
    35   11   28 1   
    36   11   29 1   
    37   12   13 1   
    38   12   14 1   
    39   12   29 1   
    40   12   30 1   
    41   12   33 1   
    42   13   30 1   
    43   13   31 1   
    44   13   32 1   
    45   14   33 1   
    46   14   34 1   
    47   14   35 1   
@<TRIPOS>SUBSTRUCTURE
     1 0W5         1 TEMP              0 ****  ****    0 ROOT
