@<TRIPOS>MOLECULE
0W5
   36    35     1     0     0
SMALL
bcc


@<TRIPOS>ATOM
      1 O1          6.2820   -1.3510    0.0600 o         1 0W5     -0.835800
      2 C2          6.1870   -0.1500   -0.3230 c         1 0W5      0.888800
      3 C27         4.8480    0.5490   -0.2380 ce        1 0W5     -0.161200
      4 C28         3.7370   -0.0380    0.2280 cf        1 0W5     -0.203000
      5 C29         2.4560    0.6270    0.3100 cf        1 0W5     -0.079000
      6 C30         1.3410    0.0440    0.7770 c2        1 0W5     -0.240200
      7 C31         0.0360    0.7360    0.8810 c3        1 0W5     -0.030200
      8 C32        -1.0870   -0.1050    0.3050 c3        1 0W5     -0.076400
      9 C33        -2.4210    0.5990    0.4310 c3        1 0W5     -0.079400
     10 C34        -3.5430   -0.2410   -0.1420 c3        1 0W5     -0.079400
     11 C35        -4.8760    0.4640   -0.0140 c3        1 0W5     -0.075400
     12 C36        -6.0200   -0.3440   -0.6090 c3        1 0W5     -0.068700
     13 C37        -6.4050   -1.5020    0.2880 c3        1 0W5     -0.088600
     14 C38        -7.2210    0.5490   -0.8500 c3        1 0W5     -0.088600
     15 H28         4.8510    1.5920   -0.5910 ha        1 0W5      0.096000
     16 H29         3.7850   -1.0870    0.5710 ha        1 0W5      0.140000
     17 H30         2.4300    1.6750   -0.0390 ha        1 0W5      0.100000
     18 H31         1.3520   -1.0000    1.1250 ha        1 0W5      0.117000
     19 H32        -0.1820    0.9500    1.9630 hc        1 0W5      0.030700
     20 H33         0.0670    1.7260    0.3520 hc        1 0W5      0.030700
     21 H34        -0.8750   -0.3230   -0.7740 hc        1 0W5      0.040700
     22 H35        -1.1290   -1.0910    0.8390 hc        1 0W5      0.040700
     23 H36        -2.6300    0.8190    1.5110 hc        1 0W5      0.034700
     24 H37        -2.3780    1.5840   -0.1040 hc        1 0W5      0.034700
     25 H38        -3.3330   -0.4580   -1.2230 hc        1 0W5      0.039200
     26 H39        -3.5810   -1.2270    0.3910 hc        1 0W5      0.039200
     27 H40        -5.0900    0.6730    1.0670 hc        1 0W5      0.037700
     28 H41        -4.8160    1.4560   -0.5370 hc        1 0W5      0.037700
     29 H42        -5.6830   -0.7600   -1.6010 hc        1 0W5      0.046700
     30 H43        -5.5340   -2.1820    0.4440 hc        1 0W5      0.030867
     31 H44        -6.7460   -1.1300    1.2840 hc        1 0W5      0.030867
     32 H45        -7.2350   -2.0890   -0.1730 hc        1 0W5      0.030867
     33 H46        -6.9630    1.3640   -1.5690 hc        1 0W5      0.030867
     34 H47        -8.0660   -0.0430   -1.2750 hc        1 0W5      0.030867
     35 H48        -7.5600    1.0150    0.1060 hc        1 0W5      0.030867
     36 OXT         7.1550    0.5230   -0.7820 o         1 0W5     -0.835800
@<TRIPOS>BOND
     1    1    2 1   
     2    2    3 1   
     3    2   36 1   
     4    3    4 2   
     5    3   15 1   
     6    4    5 1   
     7    4   16 1   
     8    5    6 2   
     9    5   17 1   
    10    6    7 1   
    11    6   18 1   
    12    7    8 1   
    13    7   19 1   
    14    7   20 1   
    15    8    9 1   
    16    8   21 1   
    17    8   22 1   
    18    9   10 1   
    19    9   23 1   
    20    9   24 1   
    21   10   11 1   
    22   10   25 1   
    23   10   26 1   
    24   11   12 1   
    25   11   27 1   
    26   11   28 1   
    27   12   13 1   
    28   12   14 1   
    29   12   29 1   
    30   13   30 1   
    31   13   31 1   
    32   13   32 1   
    33   14   33 1   
    34   14   34 1   
    35   14   35 1   
@<TRIPOS>SUBSTRUCTURE
     1 0W5         1 TEMP              0 ****  ****    0 ROOT
