@<TRIPOS>MOLECULE
0W6
   18    17     1     0     0
SMALL
bcc


@<TRIPOS>ATOM
      1 N14         2.4040    1.3360    0.2710 n3        1 0W6     -0.903800
      2 C15         1.9930    0.0970   -0.3760 c3        1 0W6      0.145500
      3 C16         3.0340   -1.0080   -0.1960 c3        1 0W6     -0.084100
      4 C17         0.6240   -0.4430    0.0660 c3        1 0W6     -0.100400
      5 C18        -0.4900    0.5540   -0.1260 c3        1 0W6     -0.202400
      6 C19        -1.8710   -0.1210   -0.0150 c         1 0W6      0.909600
      7 O20        -2.0560   -1.2170   -0.6170 o         1 0W6     -0.850300
      8 H10         1.6920    2.0280    0.1200 hn        1 0W6      0.336800
      9 H11         1.9270    0.3320   -1.4820 h1        1 0W6      0.047700
     10 H12         3.1230   -1.2980    0.8790 hc        1 0W6      0.025700
     11 H13         2.7150   -1.9050   -0.7790 hc        1 0W6      0.025700
     12 H14         4.0360   -0.6790   -0.5600 hc        1 0W6      0.025700
     13 H15         0.3840   -1.3620   -0.5340 hc        1 0W6      0.049200
     14 H16         0.6730   -0.7520    1.1430 hc        1 0W6      0.049200
     15 H17        -0.4280    1.3730    0.6340 hc        1 0W6      0.018700
     16 H18        -0.4190    1.0190   -1.1420 hc        1 0W6      0.018700
     17 OXT        -2.7580    0.4720    0.6640 o         1 0W6     -0.850300
     18 H2          2.4780    1.1890    1.2600 hn        1 0W6      0.336800
@<TRIPOS>BOND
     1    1    2 1   
     2    1    8 1   
     3    1   18 1   
     4    2    3 1   
     5    2    4 1   
     6    2    9 1   
     7    3   10 1   
     8    3   11 1   
     9    3   12 1   
    10    4    5 1   
    11    4   13 1   
    12    4   14 1   
    13    5    6 1   
    14    5   15 1   
    15    5   16 1   
    16    6    7 1   
    17    6   17 1   
@<TRIPOS>SUBSTRUCTURE
     1 0W6         1 TEMP              0 ****  ****    0 ROOT
