@<TRIPOS>MOLECULE
0W6
   18    17     1     0     0
SMALL
bcc


@<TRIPOS>ATOM
      1 N14        -1.7920    0.2830   -0.7890 n3        1 0W6     -0.903800
      2 C15        -0.3770    0.1730   -0.8900 c3        1 0W6      0.145500
      3 C16         0.1610    1.3290   -1.7010 c3        1 0W6     -0.084100
      4 C17         0.2300    0.2030    0.4940 c3        1 0W6     -0.100400
      5 C18         0.4430   -1.2140    0.9820 c3        1 0W6     -0.202400
      6 C19         1.0160   -1.1840    2.3820 c         1 0W6      0.909600
      7 O20         2.2620   -1.1220    2.5510 o         1 0W6     -0.850300
      8 H10        -2.1860   -0.3860   -1.2740 hn        1 0W6      0.336800
      9 H11        -0.1460   -0.6690   -1.3290 h1        1 0W6      0.047700
     10 H12        -0.0900    2.1740   -1.2730 hc        1 0W6      0.025700
     11 H13         1.1380    1.2660   -1.7510 hc        1 0W6      0.025700
     12 H14        -0.2150    1.2960   -2.6060 hc        1 0W6      0.025700
     13 H15         1.0890    0.6690    0.4630 hc        1 0W6      0.049200
     14 H16        -0.3730    0.6710    1.1050 hc        1 0W6      0.049200
     15 H17         1.0660   -1.6740    0.3840 hc        1 0W6      0.018700
     16 H18        -0.4130   -1.6880    0.9890 hc        1 0W6      0.018700
     17 OXT         0.2460   -1.2220    3.3780 o         1 0W6     -0.850300
     18 H2         -2.0590    1.0960   -1.1160 hn        1 0W6      0.336800
@<TRIPOS>BOND
     1    1    2 1   
     2    1    8 1   
     3    1   18 1   
     4    2    3 1   
     5    2    4 1   
     6    2    9 1   
     7    3   10 1   
     8    3   11 1   
     9    3   12 1   
    10    4    5 1   
    11    4   13 1   
    12    4   14 1   
    13    5    6 1   
    14    5   15 1   
    15    5   16 1   
    16    6    7 1   
    17    6   17 1   
@<TRIPOS>SUBSTRUCTURE
     1 0W6         1 TEMP              0 ****  ****    0 ROOT
