@<TRIPOS>MOLECULE
0W7
   41    43     1     0     0
SMALL
bcc


@<TRIPOS>ATOM
      1 O17         2.6990    0.9230    0.3540 o         1 0W7     -0.582100
      2 C14         1.8820    0.0680   -0.0330 c         1 0W7      0.673100
      3 N15         0.8370   -0.4090    0.7360 n         1 0W7     -0.450100
      4 C16         0.4200    0.1080    1.9780 ca        1 0W7      0.057600
      5 C19        -0.9070   -0.1450    2.4030 ca        1 0W7     -0.162500
      6 C20        -1.3430    0.3040    3.6430 ca        1 0W7     -0.106000
      7 C23         1.2800    0.8300    2.8310 ca        1 0W7     -0.162500
      8 C22         0.8200    1.2760    4.0670 ca        1 0W7     -0.106000
      9 C21        -0.4850    1.0160    4.4810 ca        1 0W7     -0.151000
     10 C13         2.0680   -0.5710   -1.4070 c3        1 0W7     -0.205700
     11 C2          1.0180   -0.0960   -2.3960 cc        1 0W7      0.516900
     12 N3          1.4650    0.3840   -3.6190 n         1 0W7     -0.478400
     13 C4          0.5350    0.8020   -4.6030 c         1 0W7      0.699700
     14 O18         0.9770    1.2150   -5.6890 o         1 0W7     -0.620500
     15 C5         -0.8700    0.7030   -4.2340 cc        1 0W7     -0.318200
     16 N1         -0.2620   -0.2000   -2.0610 nd        1 0W7     -0.696300
     17 C6         -1.2350    0.2270   -2.9840 cd        1 0W7      0.364600
     18 N7         -2.6130    0.2320   -2.6120 nh        1 0W7     -0.600400
     19 C8         -2.9420    0.1220   -1.1980 c3        1 0W7      0.141300
     20 C12        -3.4580   -0.6430   -3.4200 c3        1 0W7      0.141300
     21 C11        -3.5920   -2.0700   -2.8720 c3        1 0W7      0.095400
     22 O10        -3.9670   -2.0760   -1.4990 os        1 0W7     -0.410600
     23 C9         -3.0860   -1.3130   -0.6810 c3        1 0W7      0.095400
     24 H1          0.1730   -1.0030    0.2840 hn        1 0W7      0.330500
     25 H2         -1.6040   -0.6990    1.7530 ha        1 0W7      0.147500
     26 H3         -2.3750    0.0970    3.9620 ha        1 0W7      0.134000
     27 H4          2.3150    1.0540    2.5240 ha        1 0W7      0.147500
     28 H5          1.5020    1.8410    4.7210 ha        1 0W7      0.134000
     29 H6         -0.8370    1.3710    5.4600 ha        1 0W7      0.135000
     30 H7          2.0100   -1.6910   -1.3340 hc        1 0W7      0.097700
     31 H8          3.1030   -0.3020   -1.7530 hc        1 0W7      0.097700
     32 H9          2.4400    0.4720   -3.8040 hn        1 0W7      0.341500
     33 H10        -1.5930    1.0500   -4.9830 ha        1 0W7      0.178000
     34 H11        -2.1860    0.6690   -0.5710 h1        1 0W7      0.073700
     35 H12        -3.9350    0.6460   -1.0830 h1        1 0W7      0.073700
     36 H13        -4.4770   -0.1620   -3.4340 h1        1 0W7      0.073700
     37 H14        -3.0700   -0.6890   -4.4740 h1        1 0W7      0.073700
     38 H15        -2.6330   -2.6380   -3.0000 h1        1 0W7      0.056450
     39 H16        -4.4290   -2.6080   -3.3900 h1        1 0W7      0.056450
     40 H17        -3.5750   -1.3160    0.3290 h1        1 0W7      0.056450
     41 H18        -2.0890   -1.8240   -0.6240 h1        1 0W7      0.056450
@<TRIPOS>BOND
     1    1    2 2   
     2    2    3 1   
     3    2   10 1   
     4    3    4 1   
     5    3   24 1   
     6    4    5 ar  
     7    4    7 ar  
     8    5    6 ar  
     9    5   25 1   
    10    6    9 ar  
    11    6   26 1   
    12    7    8 ar  
    13    7   27 1   
    14    8    9 ar  
    15    8   28 1   
    16    9   29 1   
    17   10   11 1   
    18   10   30 1   
    19   10   31 1   
    20   11   12 1   
    21   11   16 2   
    22   12   13 1   
    23   12   32 1   
    24   13   14 2   
    25   13   15 1   
    26   15   17 2   
    27   15   33 1   
    28   16   17 1   
    29   17   18 1   
    30   18   19 1   
    31   18   20 1   
    32   19   23 1   
    33   19   34 1   
    34   19   35 1   
    35   20   21 1   
    36   20   36 1   
    37   20   37 1   
    38   21   22 1   
    39   21   38 1   
    40   21   39 1   
    41   22   23 1   
    42   23   40 1   
    43   23   41 1   
@<TRIPOS>SUBSTRUCTURE
     1 0W7         1 TEMP              0 ****  ****    0 ROOT
