@<TRIPOS>MOLECULE
0W7
   41    43     1     0     0
SMALL
bcc


@<TRIPOS>ATOM
      1 O17        -2.3700    2.8640   -1.0130 o         1 0W7     -0.582100
      2 C14        -1.8330    1.9420   -0.3720 c         1 0W7      0.665100
      3 N15        -2.2980    0.6430   -0.3290 n         1 0W7     -0.460100
      4 C16        -3.4150    0.1150   -1.0030 ca        1 0W7      0.060600
      5 C19        -4.3250    0.9100   -1.7290 ca        1 0W7     -0.164500
      6 C20        -5.4150    0.3180   -2.3630 ca        1 0W7     -0.104500
      7 C23        -3.6350   -1.2830   -0.9350 ca        1 0W7     -0.164500
      8 C22        -4.7310   -1.8510   -1.5740 ca        1 0W7     -0.104500
      9 C21        -5.6250   -1.0570   -2.2910 ca        1 0W7     -0.151000
     10 C13        -0.5840    2.2340    0.4550 c3        1 0W7     -0.209700
     11 C2          0.5990    1.4490   -0.0840 cc        1 0W7      0.508900
     12 N3          1.2650    1.9840   -1.1750 n         1 0W7     -0.477400
     13 C4          2.3800    1.3050   -1.7270 c         1 0W7      0.700700
     14 O18         2.9540    1.8160   -2.7050 o         1 0W7     -0.620500
     15 C5          2.7480    0.0570   -1.0780 cc        1 0W7     -0.332200
     16 N1          0.9290    0.3120    0.5160 nd        1 0W7     -0.687300
     17 C6          2.0290   -0.4120    0.0130 cd        1 0W7      0.367600
     18 N7          2.3560   -1.6780    0.5770 nh        1 0W7     -0.603400
     19 C8          1.4480   -2.2640    1.5530 c3        1 0W7      0.145300
     20 C12         3.7450   -1.8230    1.0030 c3        1 0W7      0.145300
     21 C11         3.9980   -1.4370    2.4670 c3        1 0W7      0.094900
     22 O10         3.0910   -2.0860    3.3500 os        1 0W7     -0.411600
     23 C9          1.7280   -1.8560    3.0050 c3        1 0W7      0.094900
     24 H1         -1.7640   -0.0150    0.1980 hn        1 0W7      0.330500
     25 H2         -4.1860    2.0010   -1.8070 ha        1 0W7      0.150500
     26 H3         -6.1160    0.9520   -2.9270 ha        1 0W7      0.134500
     27 H4         -2.9420   -1.9320   -0.3790 ha        1 0W7      0.150500
     28 H5         -4.8880   -2.9380   -1.5130 ha        1 0W7      0.134500
     29 H6         -6.4890   -1.5140   -2.7950 ha        1 0W7      0.135000
     30 H7         -0.3810    3.3370    0.3990 hc        1 0W7      0.104700
     31 H8         -0.7690    1.9770    1.5320 hc        1 0W7      0.104700
     32 H9          0.9480    2.8300   -1.5960 hn        1 0W7      0.346500
     33 H10         3.5960   -0.4800   -1.5210 ha        1 0W7      0.176000
     34 H11         0.3810   -2.0310    1.2990 h1        1 0W7      0.071950
     35 H12         1.5920   -3.3800    1.4610 h1        1 0W7      0.071950
     36 H13         3.9980   -2.9130    0.8660 h1        1 0W7      0.071950
     37 H14         4.4240   -1.2150    0.3460 h1        1 0W7      0.071950
     38 H15         5.0090   -1.7970    2.7930 h1        1 0W7      0.058950
     39 H16         3.9230   -0.3260    2.6050 h1        1 0W7      0.058950
     40 H17         1.4730   -0.7780    3.1770 h1        1 0W7      0.058950
     41 H18         1.1510   -2.5070    3.7120 h1        1 0W7      0.058950
@<TRIPOS>BOND
     1    1    2 2   
     2    2    3 1   
     3    2   10 1   
     4    3    4 1   
     5    3   24 1   
     6    4    5 ar  
     7    4    7 ar  
     8    5    6 ar  
     9    5   25 1   
    10    6    9 ar  
    11    6   26 1   
    12    7    8 ar  
    13    7   27 1   
    14    8    9 ar  
    15    8   28 1   
    16    9   29 1   
    17   10   11 1   
    18   10   30 1   
    19   10   31 1   
    20   11   12 1   
    21   11   16 2   
    22   12   13 1   
    23   12   32 1   
    24   13   14 2   
    25   13   15 1   
    26   15   17 2   
    27   15   33 1   
    28   16   17 1   
    29   17   18 1   
    30   18   19 1   
    31   18   20 1   
    32   19   23 1   
    33   19   34 1   
    34   19   35 1   
    35   20   21 1   
    36   20   36 1   
    37   20   37 1   
    38   21   22 1   
    39   21   38 1   
    40   21   39 1   
    41   22   23 1   
    42   23   40 1   
    43   23   41 1   
@<TRIPOS>SUBSTRUCTURE
     1 0W7         1 TEMP              0 ****  ****    0 ROOT
