@<TRIPOS>MOLECULE
0W7
   42    44     1     0     0
SMALL
bcc


@<TRIPOS>ATOM
      1 O17         0.6570    3.3640    0.2470 o         1 0W7     -0.403100
      2 C14         0.5860    2.1600    0.0540 c         1 0W7      0.570100
      3 N15        -0.5720    1.4520    0.7190 n4        1 0W7     -0.546200
      4 C16        -0.1410    0.6900    1.8930 ca        1 0W7     -0.067400
      5 C19         0.2220    1.3730    3.0680 ca        1 0W7     -0.103500
      6 C20         0.6030    0.6390    4.1880 ca        1 0W7     -0.103500
      7 C23        -0.1240   -0.7160    1.8440 ca        1 0W7     -0.103500
      8 C22         0.2600   -1.4280    2.9780 ca        1 0W7     -0.103500
      9 C21         0.6240   -0.7570    4.1470 ca        1 0W7     -0.068000
     10 C13         1.5310    1.3210   -0.7580 c3        1 0W7     -0.197700
     11 C2          0.8740    0.7560   -2.0120 cc        1 0W7      0.510900
     12 N3          1.6740    0.5920   -3.1210 n         1 0W7     -0.470400
     13 C4          1.1210    0.0440   -4.3190 c         1 0W7      0.701700
     14 O18         1.8780   -0.0890   -5.2880 o         1 0W7     -0.562500
     15 C5         -0.2910   -0.3010   -4.2600 cc        1 0W7     -0.297200
     16 N1         -0.4110    0.4240   -1.9470 nd        1 0W7     -0.761300
     17 C6         -1.0260   -0.1140   -3.1000 cd        1 0W7      0.370600
     18 N7         -2.4200   -0.3880   -3.0980 nh        1 0W7     -0.599400
     19 C8         -3.2320    0.0760   -1.9850 c3        1 0W7      0.140300
     20 C12        -2.7890   -1.7480   -3.4840 c3        1 0W7      0.140300
     21 C11        -2.9000   -2.7200   -2.3030 c3        1 0W7      0.094400
     22 O10        -3.7230   -2.2060   -1.2610 os        1 0W7     -0.391600
     23 C9         -3.3340   -0.9150   -0.8190 c3        1 0W7      0.094400
     24 H1         -1.2630    2.1540    1.0190 hn        1 0W7      0.482300
     25 H2          0.2070    2.4750    3.1170 ha        1 0W7      0.162000
     26 H3          0.8870    1.1690    5.1130 ha        1 0W7      0.173500
     27 H4         -0.4180   -1.2620    0.9320 ha        1 0W7      0.162000
     28 H5          0.2710   -2.5310    2.9470 ha        1 0W7      0.173500
     29 H6          0.9240   -1.3300    5.0400 ha        1 0W7      0.173000
     30 H7          2.4060    1.9820   -1.0260 hc        1 0W7      0.132700
     31 H8          1.9160    0.4640   -0.1360 hc        1 0W7      0.132700
     32 H9          2.6340    0.8660   -3.1120 hn        1 0W7      0.350500
     33 H10        -0.7260   -0.6880   -5.1940 ha        1 0W7      0.197000
     34 H11        -4.2670    0.2280   -2.4130 h1        1 0W7      0.080450
     35 H12        -2.8710    1.0700   -1.6110 h1        1 0W7      0.080450
     36 H13        -3.7950   -1.6630   -3.9880 h1        1 0W7      0.080450
     37 H14        -2.0540   -2.1590   -4.2290 h1        1 0W7      0.080450
     38 H15        -3.4220   -3.6610   -2.6230 h1        1 0W7      0.053700
     39 H16        -1.8860   -2.9660   -1.8900 h1        1 0W7      0.053700
     40 H17        -2.3560   -0.9870   -0.2680 h1        1 0W7      0.053700
     41 H18        -4.1500   -0.6080   -0.1120 h1        1 0W7      0.053700
     42 H152       -1.0150    0.8140    0.0260 hn        1 0W7      0.482300
@<TRIPOS>BOND
     1    1    2 2   
     2    2    3 1   
     3    2   10 1   
     4    3    4 1   
     5    3   24 1   
     6    3   42 1   
     7    4    5 ar  
     8    4    7 ar  
     9    5    6 ar  
    10    5   25 1   
    11    6    9 ar  
    12    6   26 1   
    13    7    8 ar  
    14    7   27 1   
    15    8    9 ar  
    16    8   28 1   
    17    9   29 1   
    18   10   11 1   
    19   10   30 1   
    20   10   31 1   
    21   11   12 1   
    22   11   16 2   
    23   12   13 1   
    24   12   32 1   
    25   13   14 2   
    26   13   15 1   
    27   15   17 2   
    28   15   33 1   
    29   16   17 1   
    30   17   18 1   
    31   18   19 1   
    32   18   20 1   
    33   19   23 1   
    34   19   34 1   
    35   19   35 1   
    36   20   21 1   
    37   20   36 1   
    38   20   37 1   
    39   21   22 1   
    40   21   38 1   
    41   21   39 1   
    42   22   23 1   
    43   23   40 1   
    44   23   41 1   
@<TRIPOS>SUBSTRUCTURE
     1 0W7         1 TEMP              0 ****  ****    0 ROOT
