@<TRIPOS>MOLECULE
0W7
   41    38     1     0     0
SMALL
bcc


@<TRIPOS>ATOM
      1 O17        -0.9430    0.2890    2.0450 o         1 0W7     -0.356000
      2 C14        -0.3420    1.3590    1.8550 c1        1 0W7      0.307000
      3 N15        -0.0690    2.2360    2.9650 n2        1 0W7     -0.309000
      4 C16        -0.4870    1.8750    4.2520 c1        1 0W7      0.065000
      5 C19         0.2930    1.0510    5.0160 c1        1 0W7     -0.134000
      6 C20        -0.0920    0.7460    6.3300 c1        1 0W7     -0.134000
      7 C23        -1.6550    2.4090    4.7760 c1        1 0W7     -0.148000
      8 C22        -2.0360    2.1020    6.0890 c1        1 0W7     -0.134000
      9 C21        -1.2580    1.2780    6.8540 c1        1 0W7     -0.134000
     10 C13        -0.0150    1.7980    0.4470 c3        1 0W7     -0.159000
     11 C2         -0.5380    0.7830   -0.5310 c2        1 0W7      0.142000
     12 N3         -1.9650    0.6360   -0.7220 n         1 0W7     -0.318000
     13 C4         -2.4710   -0.1520   -1.8300 c2        1 0W7      0.342000
     14 O18        -3.6970   -0.1330   -2.1050 o         1 0W7     -0.350000
     15 C5         -1.5290   -0.8620   -2.7180 c2        1 0W7     -0.335000
     16 N1          0.3960   -0.0220   -1.3320 n1        1 0W7     -0.250000
     17 C6         -0.1020   -0.8170   -2.4460 c1        1 0W7      0.165000
     18 N7          0.8160   -1.4600   -3.3360 n3        1 0W7     -0.223000
     19 C8          1.4110   -2.6910   -2.9750 c3        1 0W7     -0.080500
     20 C12         1.6550   -0.6700   -4.2000 c3        1 0W7     -0.080500
     21 C11         2.1440   -1.4580   -5.4220 c3        1 0W7     -0.029500
     22 O10         2.7380   -2.6910   -5.0610 os        1 0W7     -0.268000
     23 C9          1.9000   -3.4830   -4.1920 c3        1 0W7     -0.029500
     24 H1          0.4750    2.9610    2.8500 hn        1 0W7      0.237000
     25 H2          1.1330    0.6670    4.6360 ha        1 0W7      0.134500
     26 H3          0.4670    0.1540    6.8790 ha        1 0W7      0.134500
     27 H4         -2.1890    2.9740    4.2510 ha        1 0W7      0.172000
     28 H5         -2.8490    2.4720    6.4530 ha        1 0W7      0.134500
     29 H6         -1.5300    1.0600    7.7890 ha        1 0W7      0.134500
     30 H7          0.9650    1.8790    0.3440 hc        1 0W7      0.141500
     31 H8         -0.4260    2.6420    0.2750 hc        1 0W7      0.141500
     32 H9         -2.5700    1.1390   -0.1830 hn        1 0W7      0.273000
     33 H10        -1.8720   -1.4020   -3.4740 ha        1 0W7      0.171000
     34 H11         2.1890   -2.5090   -2.3740 h1        1 0W7      0.096000
     35 H12         0.7310   -3.2510   -2.4720 h1        1 0W7      0.096000
     36 H13         1.1710    0.0840   -4.4950 h1        1 0W7      0.096000
     37 H14         2.4020   -0.3810   -3.7100 h1        1 0W7      0.096000
     38 H15         2.8350   -0.8900   -5.9270 h1        1 0W7      0.098250
     39 H16         1.3480   -1.6370   -6.0410 h1        1 0W7      0.098250
     40 H17         2.4350   -4.2850   -3.8640 h1        1 0W7      0.098250
     41 H18         1.1300   -3.8030   -4.6950 h1        1 0W7      0.098250
@<TRIPOS>BOND
     1    1    2 1   
     2    2   10 1   
     3    3    4 1   
     4    3   24 1   
     5    4    7 1   
     6    5    6 1   
     7    5   25 1   
     8    6   26 1   
     9    7   27 1   
    10    8    9 1   
    11    8   28 1   
    12    9   29 1   
    13   10   11 1   
    14   10   30 1   
    15   10   31 1   
    16   11   12 1   
    17   11   16 1   
    18   12   13 1   
    19   12   32 1   
    20   13   14 1   
    21   13   15 1   
    22   15   17 1   
    23   15   33 1   
    24   17   18 1   
    25   18   19 1   
    26   18   20 1   
    27   19   23 1   
    28   19   34 1   
    29   19   35 1   
    30   20   21 1   
    31   20   36 1   
    32   20   37 1   
    33   21   22 1   
    34   21   38 1   
    35   21   39 1   
    36   22   23 1   
    37   23   40 1   
    38   23   41 1   
@<TRIPOS>SUBSTRUCTURE
     1 0W7         1 TEMP              0 ****  ****    0 ROOT
