@<TRIPOS>MOLECULE
0W7
   41    43     1     0     0
SMALL
bcc


@<TRIPOS>ATOM
      1 O17         2.7190    0.9420    0.2670 o         1 0W7     -0.582100
      2 C14         1.8960    0.0810   -0.0930 c         1 0W7      0.673100
      3 N15         0.8690   -0.3910    0.7020 ns        1 0W7     -0.450100
      4 C16         0.4790    0.1360    1.9490 ca        1 0W7      0.057600
      5 C19        -0.8380   -0.1160    2.4050 ca        1 0W7     -0.162500
      6 C20        -1.2480    0.3440    3.6510 ca        1 0W7     -0.106000
      7 C23         1.3550    0.8690    2.7760 ca        1 0W7     -0.162500
      8 C22         0.9200    1.3250    4.0170 ca        1 0W7     -0.106000
      9 C21        -0.3740    1.0660    4.4630 ca        1 0W7     -0.151000
     10 C13         2.0530   -0.5700   -1.4660 c3        1 0W7     -0.205700
     11 C2          0.9790   -0.1050   -2.4360 cc        1 0W7      0.516900
     12 N3          1.3970    0.3670   -3.6710 ns        1 0W7     -0.478400
     13 C4          0.4440    0.7740   -4.6370 c         1 0W7      0.699700
     14 O18         0.8610    1.1810   -5.7360 o         1 0W7     -0.620500
     15 C5         -0.9510    0.6730   -4.2370 cc        1 0W7     -0.318200
     16 N1         -0.2930   -0.2110   -2.0710 nd        1 0W7     -0.696300
     17 C6         -1.2870    0.2050   -2.9760 cd        1 0W7      0.364600
     18 N7         -2.6570    0.2070   -2.5730 nh        1 0W7     -0.600400
     19 C8         -2.9540    0.1080   -1.1520 c3        1 0W7      0.141300
     20 C12        -3.5160   -0.6770   -3.3560 c3        1 0W7      0.141300
     21 C11        -3.6310   -2.1000   -2.7940 c3        1 0W7      0.095400
     22 O10        -3.9770   -2.0970   -1.4130 os        1 0W7     -0.410600
     23 C9         -3.0810   -1.3240   -0.6200 c3        1 0W7      0.095400
     24 H1          0.1970   -0.9910    0.2710 hn        1 0W7      0.330500
     25 H2         -1.5480   -0.6770    1.7760 ha        1 0W7      0.147500
     26 H3         -2.2730    0.1380    3.9940 ha        1 0W7      0.134000
     27 H4          2.3820    1.0930    2.4440 ha        1 0W7      0.147500
     28 H5          1.6150    1.8980    4.6510 ha        1 0W7      0.134000
     29 H6         -0.7060    1.4290    5.4460 ha        1 0W7      0.135000
     30 H7          3.0790   -0.3010   -1.8370 hc        1 0W7      0.097700
     31 H8          1.9990   -1.6880   -1.3820 hc        1 0W7      0.097700
     32 H9          2.3680    0.4570   -3.8780 hn        1 0W7      0.341500
     33 H10        -1.6920    1.0120   -4.9730 ha        1 0W7      0.178000
     34 H11        -2.1870    0.6630   -0.5460 h1        1 0W7      0.073700
     35 H12        -3.9470    0.6290   -1.0190 h1        1 0W7      0.073700
     36 H13        -3.1510   -0.7300   -4.4170 h1        1 0W7      0.073700
     37 H14        -4.5370   -0.2000   -3.3520 h1        1 0W7      0.073700
     38 H15        -2.6730   -2.6660   -2.9380 h1        1 0W7      0.056450
     39 H16        -4.4770   -2.6460   -3.2890 h1        1 0W7      0.056450
     40 H17        -2.0810   -1.8300   -0.5810 h1        1 0W7      0.056450
     41 H18        -3.5480   -1.3210    0.4000 h1        1 0W7      0.056450
@<TRIPOS>BOND
     1    1    2 2   
     2    2    3 1   
     3    2   10 1   
     4    3    4 1   
     5    3   24 1   
     6    4    5 ar  
     7    4    7 ar  
     8    5    6 ar  
     9    5   25 1   
    10    6    9 ar  
    11    6   26 1   
    12    7    8 ar  
    13    7   27 1   
    14    8    9 ar  
    15    8   28 1   
    16    9   29 1   
    17   10   11 1   
    18   10   30 1   
    19   10   31 1   
    20   11   12 1   
    21   11   16 2   
    22   12   13 1   
    23   12   32 1   
    24   13   14 2   
    25   13   15 1   
    26   15   17 2   
    27   15   33 1   
    28   16   17 1   
    29   17   18 1   
    30   18   19 1   
    31   18   20 1   
    32   19   23 1   
    33   19   34 1   
    34   19   35 1   
    35   20   21 1   
    36   20   36 1   
    37   20   37 1   
    38   21   22 1   
    39   21   38 1   
    40   21   39 1   
    41   22   23 1   
    42   23   40 1   
    43   23   41 1   
@<TRIPOS>SUBSTRUCTURE
     1 0W7         1 TEMP              0 ****  ****    0 ROOT
