@<TRIPOS>MOLECULE
0W8
   22    23     1     0     0
SMALL
bcc


@<TRIPOS>ATOM
      1 O          -0.1190    0.2850    0.0120 o         1 0W8     -0.619500
      2 C8          1.1210    0.2350    0.0240 c         1 0W8      0.771500
      3 N           1.9650    0.3440    1.1880 n         1 0W8     -0.330000
      4 C1          1.4920   -0.0170    2.4960 c3        1 0W8      0.092000
      5 C           1.5560   -1.4930    2.8560 c3        1 0W8     -0.129100
      6 N1          1.9540    0.1840   -1.1390 n         1 0W8     -0.436100
      7 C7          3.2880    0.0490   -0.7000 ca        1 0W8     -0.008400
      8 C2          3.2970    0.1410    0.7470 ca        1 0W8     -0.011400
      9 C6          4.4740   -0.1000   -1.4070 ca        1 0W8     -0.129000
     10 C5          5.6680   -0.1550   -0.6790 ca        1 0W8     -0.127000
     11 C4          5.6790   -0.0660    0.7110 ca        1 0W8     -0.130000
     12 C3          4.4970    0.0820    1.4460 ca        1 0W8     -0.122000
     13 H3          2.1100    0.5680    3.2370 h1        1 0W8      0.070200
     14 H4          0.4210    0.3350    2.5620 h1        1 0W8      0.070200
     15 H2          2.6030   -1.8780    2.7940 hc        1 0W8      0.047033
     16 H           0.9120   -2.1020    2.1770 hc        1 0W8      0.047033
     17 H1          1.1890   -1.6230    3.9030 hc        1 0W8      0.047033
     18 H9          1.6240   -0.1840   -1.9950 hn        1 0W8      0.340500
     19 H5          4.4810   -0.1670   -2.5040 ha        1 0W8      0.142000
     20 H6          6.6170   -0.2700   -1.2240 ha        1 0W8      0.136000
     21 H7          6.6370   -0.1120    1.2500 ha        1 0W8      0.136000
     22 H8          4.5210    0.1510    2.5420 ha        1 0W8      0.142000
@<TRIPOS>BOND
     1    1    2 2   
     2    2    3 1   
     3    2    6 1   
     4    3    4 1   
     5    3    8 1   
     6    4    5 1   
     7    4   13 1   
     8    4   14 1   
     9    5   15 1   
    10    5   16 1   
    11    5   17 1   
    12    6    7 1   
    13    6   18 1   
    14    7    8 ar  
    15    7    9 ar  
    16    8   12 ar  
    17    9   10 ar  
    18    9   19 1   
    19   10   11 ar  
    20   10   20 1   
    21   11   12 ar  
    22   11   21 1   
    23   12   22 1   
@<TRIPOS>SUBSTRUCTURE
     1 0W8         1 TEMP              0 ****  ****    0 ROOT
