@<TRIPOS>MOLECULE
0W8
   22    23     1     0     0
SMALL
bcc


@<TRIPOS>ATOM
      1 O          -2.5130   -1.6580   -0.3530 o         1 0W8     -0.619500
      2 C8         -1.3800   -1.1530   -0.2940 c         1 0W8      0.771500
      3 N          -1.0420    0.2140   -0.6020 n         1 0W8     -0.330000
      4 C1         -2.0090    1.2720   -0.4870 c3        1 0W8      0.092000
      5 C          -2.2060    1.8630    0.9000 c3        1 0W8     -0.129100
      6 N1         -0.1720   -1.8700   -0.0250 n         1 0W8     -0.436100
      7 C7          0.8760   -0.9280    0.0410 ca        1 0W8     -0.008400
      8 C2          0.3360    0.3710   -0.3100 ca        1 0W8     -0.011400
      9 C6          2.2270   -1.0790    0.3270 ca        1 0W8     -0.129000
     10 C5          3.0410    0.0570    0.2620 ca        1 0W8     -0.127000
     11 C4          2.5240    1.3060   -0.0750 ca        1 0W8     -0.130000
     12 C3          1.1660    1.4840   -0.3650 ca        1 0W8     -0.122000
     13 H3         -1.6790    2.0910   -1.1900 h1        1 0W8      0.070200
     14 H4         -2.9920    0.8550   -0.8560 h1        1 0W8      0.070200
     15 H2         -2.5860    1.0930    1.6150 hc        1 0W8      0.047033
     16 H          -1.2500    2.2790    1.3000 hc        1 0W8      0.047033
     17 H1         -2.9560    2.6880    0.8360 hc        1 0W8      0.047033
     18 H9         -0.1760   -2.7150    0.4870 hn        1 0W8      0.340500
     19 H5          2.6490   -2.0590    0.5910 ha        1 0W8      0.142000
     20 H6          4.1140   -0.0450    0.4830 ha        1 0W8      0.136000
     21 H7          3.1950    2.1770   -0.1180 ha        1 0W8      0.136000
     22 H8          0.7720    2.4740   -0.6310 ha        1 0W8      0.142000
@<TRIPOS>BOND
     1    1    2 2   
     2    2    3 1   
     3    2    6 1   
     4    3    4 1   
     5    3    8 1   
     6    4    5 1   
     7    4   13 1   
     8    4   14 1   
     9    5   15 1   
    10    5   16 1   
    11    5   17 1   
    12    6    7 1   
    13    6   18 1   
    14    7    8 ar  
    15    7    9 ar  
    16    8   12 ar  
    17    9   10 ar  
    18    9   19 1   
    19   10   11 ar  
    20   10   20 1   
    21   11   12 ar  
    22   11   21 1   
    23   12   22 1   
@<TRIPOS>SUBSTRUCTURE
     1 0W8         1 TEMP              0 ****  ****    0 ROOT
