@<TRIPOS>MOLECULE
0W8
   22    23     1     0     0
SMALL
bcc


@<TRIPOS>ATOM
      1 O          -0.1300    0.2650    0.0430 o         1 0W8     -0.619500
      2 C8          1.1110    0.2270    0.0440 c         1 0W8      0.771500
      3 N           1.9630    0.3300    1.2030 n         1 0W8     -0.330000
      4 C1          1.5030   -0.0500    2.5110 c3        1 0W8      0.092000
      5 C           1.5830   -1.5300    2.8530 c3        1 0W8     -0.129100
      6 N1          1.9350    0.1960   -1.1250 n         1 0W8     -0.436100
      7 C7          3.2730    0.0690   -0.6990 ca        1 0W8     -0.008400
      8 C2          3.2930    0.1450    0.7500 ca        1 0W8     -0.011400
      9 C6          4.4550   -0.0610   -1.4170 ca        1 0W8     -0.129000
     10 C5          5.6550   -0.1130   -0.6990 ca        1 0W8     -0.127000
     11 C4          5.6760   -0.0400    0.6920 ca        1 0W8     -0.130000
     12 C3          4.4990    0.0890    1.4380 ca        1 0W8     -0.122000
     13 H3          2.1230    0.5320    3.2530 h1        1 0W8      0.070200
     14 H4          0.4300    0.2920    2.5900 h1        1 0W8      0.070200
     15 H2          0.9380   -2.1360    2.1720 hc        1 0W8      0.047033
     16 H           2.6320   -1.9050    2.7770 hc        1 0W8      0.047033
     17 H1          1.2260   -1.6750    3.9010 hc        1 0W8      0.047033
     18 H9          1.6010   -0.1650   -1.9820 hn        1 0W8      0.340500
     19 H5          4.4540   -0.1150   -2.5140 ha        1 0W8      0.142000
     20 H6          6.6010   -0.2130   -1.2520 ha        1 0W8      0.136000
     21 H7          6.6390   -0.0830    1.2230 ha        1 0W8      0.136000
     22 H8          4.5310    0.1460    2.5340 ha        1 0W8      0.142000
@<TRIPOS>BOND
     1    1    2 2   
     2    2    3 1   
     3    2    6 1   
     4    3    4 1   
     5    3    8 1   
     6    4    5 1   
     7    4   13 1   
     8    4   14 1   
     9    5   15 1   
    10    5   16 1   
    11    5   17 1   
    12    6    7 1   
    13    6   18 1   
    14    7    8 ar  
    15    7    9 ar  
    16    8   12 ar  
    17    9   10 ar  
    18    9   19 1   
    19   10   11 ar  
    20   10   20 1   
    21   11   12 ar  
    22   11   21 1   
    23   12   22 1   
@<TRIPOS>SUBSTRUCTURE
     1 0W8         1 TEMP              0 ****  ****    0 ROOT
