@<TRIPOS>MOLECULE
0W8
   22    23     1     0     0
SMALL
bcc


@<TRIPOS>ATOM
      1 O          -0.1260    0.2770    0.0330 o         1 0W8     -0.619500
      2 C8          1.1150    0.2330    0.0370 c         1 0W8      0.771500
      3 N           1.9640    0.3360    1.1980 n         1 0W8     -0.330000
      4 C1          1.5000   -0.0370    2.5060 c3        1 0W8      0.092000
      5 C           1.5720   -1.5160    2.8540 c3        1 0W8     -0.129100
      6 N1          1.9420    0.1940   -1.1300 ns        1 0W8     -0.436100
      7 C7          3.2780    0.0620   -0.6990 ca        1 0W8     -0.008400
      8 C2          3.2950    0.1440    0.7490 ca        1 0W8     -0.011400
      9 C6          4.4620   -0.0760   -1.4140 ca        1 0W8     -0.129000
     10 C5          5.6590   -0.1320   -0.6920 ca        1 0W8     -0.127000
     11 C4          5.6770   -0.0530    0.6980 ca        1 0W8     -0.130000
     12 C3          4.4990    0.0840    1.4400 ca        1 0W8     -0.122000
     13 H3          2.1190    0.5450    3.2480 h1        1 0W8      0.070200
     14 H4          0.4280    0.3100    2.5800 h1        1 0W8      0.070200
     15 H2          2.6200   -1.8950    2.7830 hc        1 0W8      0.047033
     16 H           0.9270   -2.1210    2.1730 hc        1 0W8      0.047033
     17 H1          1.2110   -1.6550    3.9010 hc        1 0W8      0.047033
     18 H9          1.6090   -0.1690   -1.9870 hn        1 0W8      0.340500
     19 H5          4.4630   -0.1350   -2.5100 ha        1 0W8      0.142000
     20 H6          6.6060   -0.2380   -1.2420 ha        1 0W8      0.136000
     21 H7          6.6390   -0.0980    1.2320 ha        1 0W8      0.136000
     22 H8          4.5280    0.1450    2.5370 ha        1 0W8      0.142000
@<TRIPOS>BOND
     1    1    2 2   
     2    2    3 1   
     3    2    6 1   
     4    3    4 1   
     5    3    8 1   
     6    4    5 1   
     7    4   13 1   
     8    4   14 1   
     9    5   15 1   
    10    5   16 1   
    11    5   17 1   
    12    6    7 1   
    13    6   18 1   
    14    7    8 ar  
    15    7    9 ar  
    16    8   12 ar  
    17    9   10 ar  
    18    9   19 1   
    19   10   11 ar  
    20   10   20 1   
    21   11   12 ar  
    22   11   21 1   
    23   12   22 1   
@<TRIPOS>SUBSTRUCTURE
     1 0W8         1 TEMP              0 ****  ****    0 ROOT
