@<TRIPOS>MOLECULE
0W8
   22    21     1     0     0
SMALL
bcc


@<TRIPOS>ATOM
      1 O          -2.9890   -0.3330   -0.7750 o         1 0W8     -0.344000
      2 C8         -1.7750   -0.2740   -0.7890 c1        1 0W8      0.362000
      3 N          -0.9350   -0.2340    0.3420 n3        1 0W8     -0.233000
      4 C1         -1.3580   -0.2800    1.7000 c3        1 0W8     -0.024000
      5 C          -2.0400    1.0220    2.0600 c3        1 0W8     -0.247000
      6 N1         -0.9600   -0.2680   -1.9380 n2        1 0W8     -0.290000
      7 C7          0.4150   -0.2240   -1.5080 c2        1 0W8     -0.001000
      8 C2          0.4300   -0.2040   -0.1190 c2        1 0W8     -0.004000
      9 C6          1.6200   -0.2110   -2.2200 c2        1 0W8     -0.129000
     10 C5          2.8310   -0.1770   -1.5380 c1        1 0W8     -0.127000
     11 C4          2.8470   -0.1560   -0.1430 c1        1 0W8     -0.130000
     12 C3          1.6500   -0.1700    0.5660 c2        1 0W8     -0.122000
     13 H3         -1.9860   -1.0220    1.8220 h1        1 0W8      0.109500
     14 H4         -0.5800   -0.4120    2.2800 h1        1 0W8      0.109500
     15 H2         -2.9360    1.0410    1.6650 hc        1 0W8      0.086333
     16 H          -2.1110    1.0950    3.0350 hc        1 0W8      0.086333
     17 H1         -1.5140    1.7730    1.7140 hc        1 0W8      0.086333
     18 H9         -1.2510   -0.2830   -2.8020 hn        1 0W8      0.254000
     19 H5          1.6100   -0.2250   -3.1960 ha        1 0W8      0.142000
     20 H6          3.6710   -0.1680   -2.0350 ha        1 0W8      0.136000
     21 H7          3.6970   -0.1330    0.3360 ha        1 0W8      0.136000
     22 H8          1.6610   -0.1550    1.5430 ha        1 0W8      0.142000
@<TRIPOS>BOND
     1    1    2 1   
     2    2    3 1   
     3    3    4 1   
     4    3    8 1   
     5    4    5 1   
     6    4   13 1   
     7    4   14 1   
     8    5   15 1   
     9    5   16 1   
    10    5   17 1   
    11    6    7 1   
    12    6   18 1   
    13    7    8 1   
    14    7    9 1   
    15    8   12 1   
    16    9   10 1   
    17    9   19 1   
    18   10   20 1   
    19   11   12 1   
    20   11   21 1   
    21   12   22 1   
@<TRIPOS>SUBSTRUCTURE
     1 0W8         1 TEMP              0 ****  ****    0 ROOT
