@<TRIPOS>MOLECULE
0WA
   30    24     1     0     0
SMALL
bcc


@<TRIPOS>ATOM
      1 C4         -2.7750   -1.5350   -4.4630 c1        1 0WA     -0.149000
      2 C5         -1.9510   -2.4250   -3.7920 c1        1 0WA      0.087000
      3 C7         -1.4930   -2.1220   -2.5200 c1        1 0WA     -0.172000
      4 C8         -1.8590   -0.9290   -1.9180 c1        1 0WA      0.043000
      5 C10        -0.4560   -0.2280   -0.0250 c1        1 0WA     -0.200000
      6 C13         1.5920    1.1520    0.1240 c1        1 0WA     -0.467000
      7 C15         2.1100    0.8540    2.6880 c1        1 0WA      0.027000
      8 C17         3.7900    0.1650    4.2300 c1        1 0WA     -0.123500
      9 C20         1.9060    1.9830    3.4270 c1        1 0WA     -0.148000
     10 O1         -3.0430    1.1800   -1.9830 oh        1 0WA     -0.259000
     11 C2         -2.6840   -0.0390   -2.5880 c2        1 0WA      0.031000
     12 C3         -3.1420   -0.3420   -3.8600 c1        1 0WA     -0.162000
     13 F6         -1.5780   -3.5680   -4.3830 f         1 0WA     -0.103000
     14 N9         -1.6410   -0.8340   -0.5190 n1        1 0WA     -0.183000
     15 N11         0.0010   -0.2590    1.3280 n2        1 0WA     -0.116000
     16 C12         1.3020    0.6140    1.4310 c2        1 0WA     -0.038000
     17 S14         0.5170    0.6540   -0.8360 ss        1 0WA      0.552000
     18 C16         3.0470   -0.0570    3.0810 c1        1 0WA     -0.123500
     19 N18         3.5850    1.2920    4.9670 n1        1 0WA     -0.134000
     20 C19         2.6500    2.2030    4.5750 c1        1 0WA     -0.078000
     21 H1         -3.0980   -1.7490   -5.3590 ha        1 0WA      0.154000
     22 H2         -0.9120   -2.7490   -2.0480 ha        1 0WA      0.157000
     23 H3          2.3440    1.7310   -0.1050 DU        1 0WA      0.186000
     24 H4          4.4600   -0.4870    4.5110 ha        1 0WA      0.151000
     25 H5          1.2360    2.6350    3.1470 ha        1 0WA      0.161000
     26 H6         -3.6310    1.6040   -2.4970 ho        1 0WA      0.228000
     27 H7         -3.7220    0.2850   -4.3320 ha        1 0WA      0.142000
     28 H8         -2.2560   -1.1730    0.0630 hn        1 0WA      0.227000
     29 H9          3.1940   -0.8650    2.5530 ha        1 0WA      0.151000
     30 H10         2.5040    3.0100    5.1040 ha        1 0WA      0.161000
@<TRIPOS>BOND
     1    1    2 1   
     2    1   21 1   
     3    2   13 1   
     4    3    4 1   
     5    3   22 1   
     6    4   11 1   
     7    5   15 1   
     8    5   17 1   
     9    6   16 1   
    10    6   17 1   
    11    7    9 1   
    12    7   16 1   
    13    8   18 1   
    14    8   24 1   
    15    9   25 1   
    16   10   11 1   
    17   10   26 1   
    18   11   12 1   
    19   12   27 1   
    20   14   28 1   
    21   15   16 1   
    22   18   29 1   
    23   19   20 1   
    24   20   30 1   
@<TRIPOS>SUBSTRUCTURE
     1 0WA         1 TEMP              0 ****  ****    0 ROOT
