@<TRIPOS>MOLECULE
0WA
   30    27     1     0     0
SMALL
bcc


@<TRIPOS>ATOM
      1 C4          1.6330    1.1810   -1.0780 c1        1 0WA      0.163000
      2 C5          2.6000    1.9420   -0.5770 c2        1 0WA     -0.303000
      3 C7          1.8480    1.0130    2.4350 c1        1 0WA      0.035000
      4 C8          1.0160    0.1900    3.1270 c2        1 0WA     -0.197000
      5 C10         2.5490    0.0400    4.9000 c2        1 0WA     -0.120000
      6 C13         4.7100    1.1740    4.8960 c2        1 0WA     -0.495000
      7 C15         5.6130   -0.2180    6.7570 c2        1 0WA     -0.449000
      8 C17         7.9710    0.9510    4.7690 c1        1 0WA      0.106000
      9 C20         5.5680   -1.1450    7.6970 c1        1 0WA      0.278000
     10 C2         -0.3190   -0.0880    2.5600 c2        1 0WA      0.083000
     11 C3         -0.5750   -0.1110    1.2430 c2        1 0WA     -0.296000
     12 F6          3.5450    2.6980   -1.1710 f         1 0WA     -0.087000
     13 N9          1.3970   -0.4760    4.3240 nu        1 0WA     -0.171000
     14 N11         3.3330   -0.5120    5.8340 n2        1 0WA     -0.143000
     15 C12         4.5640    0.1640    5.8380 c2        1 0WA      0.066000
     16 S14         3.2560    1.4770    4.1140 ss        1 0WA      0.510000
     17 C16         8.4710    0.1570    3.8720 c2        1 0WA     -0.506000
     18 N18         7.4710    3.3560    6.6630 n2        1 0WA     -0.399000
     19 C19         7.4160    4.3190    7.3400 c1        1 0WA      0.093000
     20 H1          0.2110    0.0500    0.4920 ha        1 0WA      0.142500
     21 H2          2.6350    1.9530    0.5500 h4        1 0WA      0.220000
     22 H3          5.6160    1.7620    4.7430 h4        1 0WA      0.194000
     23 H4          7.9020   -0.6510    3.3780 ha        1 0WA      0.207000
     24 H5          6.5600    0.3610    6.6430 ha        1 0WA      0.209000
     25 H6         -2.1160   -0.4780    3.1000 ho        1 0WA      0.230000
     26 H7         -1.5820   -0.2900    0.8480 ha        1 0WA      0.142500
     27 H8          0.6680   -0.8270    4.9130 hn        1 0WA      0.259000
     28 H9          9.5150    0.2130    3.5180 ha        1 0WA      0.207000
     29 H10         7.5200    2.5600    6.1000 hn        1 0WA      0.293000
     30 O1         -1.2720   -0.2970    3.5390 oh        1 0WA     -0.272000
@<TRIPOS>BOND
     1    1    2 1   
     2    2   12 1   
     3    2   21 1   
     4    3    4 1   
     5    4   10 1   
     6    4   13 1   
     7    5   13 1   
     8    5   14 1   
     9    5   16 1   
    10    6   15 1   
    11    6   16 1   
    12    6   22 1   
    13    7    9 1   
    14    7   15 1   
    15    7   24 1   
    16    8   17 1   
    17   10   11 1   
    18   10   30 1   
    19   11   20 1   
    20   11   26 1   
    21   13   27 1   
    22   14   15 1   
    23   17   23 1   
    24   17   28 1   
    25   18   19 1   
    26   18   29 1   
    27   25   30 1   
@<TRIPOS>SUBSTRUCTURE
     1 0WA         1 TEMP              0 ****  ****    0 ROOT
