@<TRIPOS>MOLECULE
0WA
   31    31     1     0     0
SMALL
bcc


@<TRIPOS>ATOM
      1 C4          2.7720    1.8910    1.2770 c1        1 0WA     -0.117900
      2 C5          3.2870    2.9140    0.6110 c2        1 0WA      0.173400
      3 C7          2.2640    0.9310    1.9040 c1        1 0WA      0.056100
      4 C8          1.7320   -0.0880    2.5590 ce        1 0WA     -0.000100
      5 C10         3.4610   -0.2960    4.2890 ce        1 0WA      0.378500
      6 C13         5.1480    0.9270    5.4900 cf        1 0WA     -0.443000
      7 C15         4.0360    0.6480    7.7260 ce        1 0WA      0.243300
      8 C17         7.5260    1.3170    3.0850 c1        1 0WA      0.086100
      9 C20         3.0580    0.2290    8.5020 cg        1 0WA     -0.575300
     10 C2          0.2900   -0.3800    2.5450 ce        1 0WA      0.088100
     11 C3         -0.6550    0.5470    2.3250 c2        1 0WA     -0.228000
     12 F6          4.5980    3.2070    0.6560 f         1 0WA     -0.147500
     13 N9          2.5950   -0.9930    3.3420 n4        1 0WA     -0.533800
     14 N11         3.1210   -0.2600    5.5940 nf        1 0WA     -0.476300
     15 C12         4.0990    0.4380    6.2850 cf        1 0WA      0.058600
     16 S14         4.9440    0.5400    3.8910 sx        1 0WA      0.376400
     17 C16         8.8030    1.1950    3.3080 c2        1 0WA     -0.236100
     18 N18         6.2790    1.3830    2.9370 n3        1 0WA     -0.319700
     19 C19         2.1090   -0.1740    9.2640 c1        1 0WA      0.249000
     20 H1         -0.4080    1.6040    2.1660 ha        1 0WA      0.151500
     21 H2          2.6820    3.5940   -0.0250 h4        1 0WA      0.203000
     22 H3          5.9840    1.4980    5.8970 h4        1 0WA      0.189000
     23 H4          9.3890    0.3570    2.8950 ha        1 0WA      0.196000
     24 H5          4.9010    1.2070    8.1390 ha        1 0WA      0.138000
     25 H6         -0.9280   -1.8420    2.8390 ho        1 0WA      0.459000
     26 H7         -1.7240    0.2950    2.3020 ha        1 0WA      0.151500
     27 H8          1.9770   -1.6630    3.8390 hn        1 0WA      0.470800
     28 H9          9.3580    1.9230    3.9230 ha        1 0WA      0.196000
     29 H10         5.9500    1.9090    2.1410 hn        1 0WA      0.277700
     30 O1          0.0320   -1.7220    2.7660 oh        1 0WA     -0.537100
     31 H92         3.1930   -1.5210    2.6960 hn        1 0WA      0.470800
@<TRIPOS>BOND
     1    1    2 2   
     2    1    3 2   
     3    2   12 1   
     4    2   21 1   
     5    3    4 2   
     6    4   10 1   
     7    4   13 1   
     8    5   13 1   
     9    5   14 2   
    10    5   16 1   
    11    6   15 1   
    12    6   16 2   
    13    6   22 1   
    14    7    9 1   
    15    7   15 2   
    16    7   24 1   
    17    8   17 2   
    18    8   18 2   
    19    9   19 3   
    20   10   11 2   
    21   10   30 1   
    22   11   20 1   
    23   11   26 1   
    24   13   27 1   
    25   13   31 1   
    26   14   15 1   
    27   16   18 1   
    28   17   23 1   
    29   17   28 1   
    30   18   29 1   
    31   25   30 1   
@<TRIPOS>SUBSTRUCTURE
     1 0WA         1 TEMP              0 ****  ****    0 ROOT
