@<TRIPOS>MOLECULE
0WA
   30    30     1     0     0
SMALL
bcc


@<TRIPOS>ATOM
      1 C4         -0.9930   -0.4810    1.0950 c1        1 0WA     -0.153100
      2 C5         -1.8340    0.0850    0.4630 c1        1 0WA     -0.014900
      3 C7          2.6780    0.3480    1.5860 ce        1 0WA     -0.871000
      4 C8          1.8320    0.3290    2.7720 ce        1 0WA      0.170000
      5 C10         3.7330    1.3130    3.5660 ce        1 0WA      0.740500
      6 C13         5.5850    0.8590    2.0370 ce        1 0WA     -0.293300
      7 C15         7.3060    1.1490    3.8170 cf        1 0WA     -0.119100
      8 C17         8.0530    1.7570    6.2050 c1        1 0WA     -0.072900
      9 C20         7.6750    1.4590    5.0370 c1        1 0WA     -0.005900
     10 C2          0.6420   -0.3230    2.8950 c2        1 0WA     -0.016100
     11 C3          0.0240   -1.1690    1.8330 c3        1 0WA      0.056900
     12 F6         -2.7520    0.6930   -0.2200 f         1 0WA      0.004900
     13 N9          2.3950    1.1100    3.8490 nh        1 0WA     -0.645000
     14 N11         4.8540    1.3330    4.2600 nf        1 0WA     -0.594300
     15 C12         5.9340    1.1260    3.3420 cf        1 0WA      0.217600
     16 S14         3.9660    1.2240    1.7160 sx        1 0WA      0.459700
     17 C16         8.4600    2.0650    7.4040 c2        1 0WA     -0.175100
     18 N18         4.9470    1.6170    7.4860 n1        1 0WA     -0.866200
     19 C19         4.1540    1.6620    8.3550 c1        1 0WA      0.408800
     20 H1          0.8190   -1.5320    1.1210 hc        1 0WA      0.080200
     21 H2          2.3210   -0.1440    0.6830 h4        1 0WA      0.182000
     22 H3          6.3180    0.6050    1.2720 h4        1 0WA      0.173000
     23 H4          9.5260    2.0620    7.6760 ha        1 0WA      0.140000
     24 H5          8.0660    0.8820    3.0590 ha        1 0WA      0.155000
     25 H6         -0.9530   -0.0420    3.8930 ho        1 0WA      0.419000
     26 H7         -0.4300   -2.0790    2.3250 hc        1 0WA      0.080200
     27 H8          2.0930    0.9060    4.7790 hn        1 0WA      0.461800
     28 H9          7.7590    2.3410    8.2070 ha        1 0WA      0.140000
     29 H10         5.5830    1.5760    6.7520 hn        1 0WA      0.453400
     30 O1         -0.0340   -0.2640    4.1020 oh        1 0WA     -0.517100
@<TRIPOS>BOND
     1    1    2 3   
     2    1   11 1   
     3    2   12 1   
     4    3    4 1   
     5    3   16 2   
     6    3   21 1   
     7    4   10 2   
     8    4   13 1   
     9    5   13 1   
    10    5   14 2   
    11    5   16 1   
    12    6   15 2   
    13    6   16 1   
    14    6   22 1   
    15    7    9 2   
    16    7   15 1   
    17    7   24 1   
    18    8    9 2   
    19    8   17 2   
    20   10   11 1   
    21   10   30 1   
    22   11   20 1   
    23   11   26 1   
    24   13   27 1   
    25   14   15 1   
    26   17   23 1   
    27   17   28 1   
    28   18   19 3   
    29   18   29 1   
    30   25   30 1   
@<TRIPOS>SUBSTRUCTURE
     1 0WA         1 TEMP              0 ****  ****    0 ROOT
