@<TRIPOS>MOLECULE
0WA
   30    32     1     0     0
SMALL
bcc


@<TRIPOS>ATOM
      1 C4         -4.4260    0.1030   -1.2720 ca        1 0WA     -0.175000
      2 C5         -3.2510    0.8670   -1.1720 ca        1 0WA      0.141900
      3 C7         -2.2010    0.4770   -0.3220 ca        1 0WA     -0.184000
      4 C8         -2.3210   -0.6890    0.4520 ca        1 0WA      0.110600
      5 C10        -0.0790   -0.4590    1.3510 cc        1 0WA      0.549300
      6 C13         1.8360    0.8850    1.9450 cc        1 0WA     -0.263400
      7 C15         3.2310    0.0920   -0.0040 ca        1 0WA     -0.081500
      8 C17         5.2640    1.1430   -0.7740 ca        1 0WA      0.389200
      9 C20         3.5830   -1.0240   -0.7770 ca        1 0WA     -0.225300
     10 C2         -3.5190   -1.4480    0.3460 ca        1 0WA      0.045100
     11 C3         -4.5510   -1.0510   -0.5080 ca        1 0WA     -0.093000
     12 F6         -3.1190    1.9970   -1.9080 f         1 0WA     -0.136900
     13 N9         -1.3430   -1.0900    1.4000 nh        1 0WA     -0.676300
     14 N11         0.9050   -0.6650    0.4550 nd        1 0WA     -0.630000
     15 C12         2.0090    0.1100    0.7930 cd        1 0WA      0.393800
     16 S14         0.3360    0.6680    2.6060 ss        1 0WA     -0.004300
     17 C16         4.0900    1.2020   -0.0060 ca        1 0WA     -0.225300
     18 N18         5.6180    0.0760   -1.5180 nb        1 0WA     -0.659000
     19 C19         4.7820   -0.9800   -1.5110 ca        1 0WA      0.389200
     20 H1         -5.2310    0.4210   -1.9490 ha        1 0WA      0.154000
     21 H2         -1.2890    1.0910   -0.2880 ha        1 0WA      0.159000
     22 H3          2.5980    1.5440    2.3600 h4        1 0WA      0.188000
     23 H4          5.9630    1.9980   -0.7990 h4        1 0WA      0.024100
     24 H5          2.9420   -1.9150   -0.8190 ha        1 0WA      0.151000
     25 H6         -3.6830   -2.4440    1.9610 ho        1 0WA      0.418000
     26 H7         -5.4580   -1.6720   -0.5730 ha        1 0WA      0.156000
     27 H8         -1.2550   -2.0950    1.4180 hn        1 0WA      0.418800
     28 H9          3.8510    2.1050    0.5710 ha        1 0WA      0.151000
     29 H10         5.0910   -1.8400   -2.1320 h4        1 0WA      0.024100
     30 O1         -3.6620   -2.6520    1.0140 oh        1 0WA     -0.511100
@<TRIPOS>BOND
     1    1    2 ar  
     2    1   11 ar  
     3    1   20 1   
     4    2    3 ar  
     5    2   12 1   
     6    3    4 ar  
     7    3   21 1   
     8    4   10 ar  
     9    4   13 1   
    10    5   13 1   
    11    5   14 2   
    12    5   16 1   
    13    6   15 2   
    14    6   16 1   
    15    6   22 1   
    16    7    9 ar  
    17    7   15 1   
    18    7   17 ar  
    19    8   17 ar  
    20    8   18 ar  
    21    8   23 1   
    22    9   19 ar  
    23    9   24 1   
    24   10   11 ar  
    25   10   30 1   
    26   11   26 1   
    27   13   27 1   
    28   14   15 1   
    29   17   28 1   
    30   18   19 ar  
    31   19   29 1   
    32   25   30 1   
@<TRIPOS>SUBSTRUCTURE
     1 0WA         1 TEMP              0 ****  ****    0 ROOT
