@<TRIPOS>MOLECULE
0WB
   32    25     1     0     0
SMALL
bcc


@<TRIPOS>ATOM
      1 C7          2.5160   -2.3310   -2.2870 c1        1 0WB     -0.157000
      2 C2          3.1150   -2.4060    0.0370 c1        1 0WB      0.114000
      3 C10         0.0730   -1.1580   -0.4650 c1        1 0WB     -0.176000
      4 C4          4.8280   -2.3170   -1.6420 c1        1 0WB     -0.128000
      5 O1          2.9750   -2.5580    1.4280 oh        1 0WB     -0.240000
      6 C3          4.4570   -2.3720   -0.3080 c1        1 0WB     -0.134000
      7 C5          3.8580   -2.2970   -2.6320 c1        1 0WB      0.062000
      8 F6          4.2170   -2.2730   -3.9220 f         1 0WB     -0.106000
      9 C8          2.1440   -2.3860   -0.9530 c1        1 0WB     -0.047000
     10 N9          0.7710   -2.3860   -0.5980 n1        1 0WB     -0.194000
     11 N11        -0.2530   -0.1570    0.4990 n2        1 0WB     -0.143000
     12 C12        -1.4620    0.6830   -0.0450 c1        1 0WB     -0.015000
     13 C13        -1.8340    0.1570   -1.3360 c1        1 0WB     -0.464000
     14 S14        -0.9010   -1.0060   -1.6540 ss        1 0WB      0.480000
     15 C15        -2.1300    1.8390    0.6660 c1        1 0WB     -0.017000
     16 C16        -3.2630    1.6180    1.4330 c2        1 0WB     -0.079000
     17 C17        -3.8980    2.6820    2.0540 c1        1 0WB     -0.019000
     18 C18        -3.3980    3.9670    1.9090 c1        1 0WB     -0.112000
     19 C19        -2.2650    4.1880    1.1430 c1        1 0WB     -0.112000
     20 C20        -1.6300    3.1230    0.5220 c1        1 0WB     -0.071000
     21 C21        -5.1280    2.4400    2.9010 c1        1 0WB     -0.096000
     22 N22        -6.0550    2.2570    3.5400 n1        1 0WB     -0.038000
     23 H1          1.8320   -2.3170   -2.9840 ha        1 0WB      0.147000
     24 H2          5.7730   -2.2940   -1.8850 ha        1 0WB      0.154000
     25 H3          2.9360   -3.4240    1.6290 ho        1 0WB      0.239000
     26 H4          5.1400   -2.3860    0.3890 ha        1 0WB      0.161000
     27 H5          0.3410   -3.1740   -0.4390 hn        1 0WB      0.209000
     28 H6         -2.5550    0.4870   -1.9050 DU        1 0WB      0.188000
     29 H7         -3.6150    0.7130    1.5350 ha        1 0WB      0.146000
     30 H8         -3.8450    4.7170    2.3470 ha        1 0WB      0.144500
     31 H9         -1.9130    5.0920    1.0410 ha        1 0WB      0.144500
     32 H10        -0.8320    3.2790   -0.0180 ha        1 0WB      0.159000
@<TRIPOS>BOND
     1    1    9 1   
     2    1   23 1   
     3    2    5 1   
     4    2    6 1   
     5    3   11 1   
     6    3   14 1   
     7    4    7 1   
     8    4   24 1   
     9    5   25 1   
    10    6   26 1   
    11    7    8 1   
    12   10   27 1   
    13   11   12 1   
    14   12   13 1   
    15   13   14 1   
    16   15   16 1   
    17   15   20 1   
    18   16   17 1   
    19   16   29 1   
    20   17   21 1   
    21   18   19 1   
    22   18   30 1   
    23   19   31 1   
    24   20   32 1   
    25   21   22 1   
@<TRIPOS>SUBSTRUCTURE
     1 0WB         1 TEMP              0 ****  ****    0 ROOT
