@<TRIPOS>MOLECULE
0WB
   32    35     1     0     0
SMALL
bcc


@<TRIPOS>ATOM
      1 C7          0.0000    0.0000    0.0000 c2        1 0WB     -0.184000
      2 C2          0.0060    0.0120    2.4060 c2        1 0WB      0.161000
      3 C10        -2.7880    0.6160    0.1710 c2        1 0WB     -0.217000
      4 C4          2.0770    0.0000    1.1980 c2        1 0WB     -0.090000
      5 O1         -0.6690    0.0240    3.5860 oh        1 0WB     -0.204000
      6 C3          1.3910    0.0120    2.3980 c2        1 0WB     -0.224000
      7 C5          1.3840    0.0000    0.0000 c2        1 0WB      0.066000
      8 F6          2.0590   -0.0020   -1.1700 f         1 0WB     -0.088000
      9 C8         -0.6940    0.0060    1.2010 c3        1 0WB     -0.114000
     10 N9         -2.0940    0.0060    1.2030 nu        1 0WB      0.038000
     11 N11        -4.0740    0.5700    0.0020 n2        1 0WB      0.004000
     12 C12        -4.5660    1.2200   -1.0520 c2        1 0WB     -0.040000
     13 C13        -3.6560    1.8490   -1.8150 c2        1 0WB     -0.307000
     14 S14        -2.0630    1.5810   -1.1120 ss        1 0WB      0.212000
     15 C15        -6.0160    1.2470   -1.3600 ca        1 0WB     -0.001000
     16 C16        -6.9160    0.5780   -0.5370 ca        1 0WB     -0.033000
     17 C17        -8.2790    0.6080   -0.8330 ca        1 0WB      0.012000
     18 C18        -8.7300    1.3090   -1.9540 ca        1 0WB     -0.072000
     19 C19        -7.8300    1.9700   -2.7660 ca        1 0WB     -0.124000
     20 C20        -6.4800    1.9460   -2.4730 ca        1 0WB     -0.068000
     21 C21        -9.2120   -0.0770    0.0080 c1        1 0WB     -0.100000
     22 N22        -9.9650   -0.6060    0.6750 n1        1 0WB     -0.050000
     23 H1         -0.7630   -0.1910   -0.7450 ha        1 0WB      0.154000
     24 H2          3.0980    0.3580    1.1390 ha        1 0WB      0.119000
     25 H3         -0.1440    0.1810    4.3530 ho        1 0WB      0.215000
     26 H4          1.8380    0.9740    2.6170 ha        1 0WB      0.148000
     27 H5         -1.5240   -0.5920    0.6380 DU        1 0WB      0.148000
     28 H6         -3.8080    2.3140   -2.7820 h4        1 0WB      0.166000
     29 H7         -6.8200   -0.1620    0.2480 ha        1 0WB      0.135000
     30 H8         -9.7520    1.3510   -2.3120 ha        1 0WB      0.114000
     31 H9         -8.2910    2.7610   -3.3450 ha        1 0WB      0.113000
     32 H10        -5.8650    2.5620   -3.1180 ha        1 0WB      0.110000
@<TRIPOS>BOND
     1    1    7 1   
     2    1    9 1   
     3    1   23 1   
     4    2    5 1   
     5    2    6 1   
     6    2    9 1   
     7    3   10 1   
     8    3   11 1   
     9    3   14 1   
    10    4    6 1   
    11    4    7 1   
    12    4   24 1   
    13    5   25 1   
    14    6   26 1   
    15    7    8 1   
    16    9   10 1   
    17    9   27 1   
    18   10   27 1   
    19   11   12 1   
    20   12   13 1   
    21   12   15 1   
    22   13   14 1   
    23   13   28 1   
    24   15   16 1   
    25   15   20 1   
    26   16   17 1   
    27   16   29 1   
    28   17   18 1   
    29   17   21 1   
    30   18   19 1   
    31   18   30 1   
    32   19   20 1   
    33   19   31 1   
    34   20   32 1   
    35   21   22 1   
@<TRIPOS>SUBSTRUCTURE
     1 0WB         1 TEMP              0 ****  ****    0 ROOT
