@<TRIPOS>MOLECULE
0WB
   32    34     1     0     0
SMALL
bcc


@<TRIPOS>ATOM
      1 C7         -2.6610    0.3370    0.4550 ca        1 0WB     -0.184000
      2 C2         -3.8450   -1.5850   -0.4370 ca        1 0WB      0.050100
      3 C10        -0.5990   -0.0910   -1.4750 cc        1 0WB      0.552300
      4 C4         -4.7790   -0.3860    1.4440 ca        1 0WB     -0.173000
      5 O1         -3.9290   -2.6840   -1.2720 oh        1 0WB     -0.510100
      6 C3         -4.8510   -1.4200    0.5190 ca        1 0WB     -0.094000
      7 C5         -3.6840    0.4940    1.4050 ca        1 0WB      0.139900
      8 F6         -3.6060    1.5100    2.2990 f         1 0WB     -0.137900
      9 C8         -2.7260   -0.7070   -0.4830 ca        1 0WB      0.105600
     10 N9         -1.7780   -0.8710   -1.5260 nh        1 0WB     -0.677300
     11 N11         0.4900   -0.3060   -0.7130 nd        1 0WB     -0.634000
     12 C12         1.4560    0.6490   -1.0070 cd        1 0WB      0.398800
     13 C13         1.0760    1.5690   -1.9900 cc        1 0WB     -0.269400
     14 S14        -0.4500    1.2640   -2.5510 ss        1 0WB     -0.004300
     15 C15         2.7490    0.6660   -0.3300 ca        1 0WB     -0.122500
     16 C16         3.3240   -0.5210    0.1430 ca        1 0WB     -0.058000
     17 C17         4.5740   -0.4850    0.7770 ca        1 0WB     -0.022000
     18 C18         5.2480    0.7330    0.9450 ca        1 0WB     -0.085000
     19 C19         4.6680    1.9100    0.4780 ca        1 0WB     -0.138000
     20 C20         3.4270    1.8810   -0.1550 ca        1 0WB     -0.096000
     21 C21         5.1600   -1.6900    1.2520 cg        1 0WB      0.233800
     22 N22         5.6410   -2.6750    1.6410 n1        1 0WB     -0.360800
     23 H1         -1.8090    1.0330    0.4710 ha        1 0WB      0.159000
     24 H2         -5.5650   -0.2510    2.2010 ha        1 0WB      0.154000
     25 H3         -3.9740   -2.3450   -2.1790 ho        1 0WB      0.419000
     26 H4         -5.6950   -2.1280    0.5330 ha        1 0WB      0.156000
     27 H5         -1.5710   -1.8490   -1.6690 hn        1 0WB      0.419800
     28 H6          1.7080    2.3790   -2.3510 h4        1 0WB      0.187000
     29 H7          2.8000   -1.4820    0.0220 ha        1 0WB      0.163000
     30 H8          6.2290    0.7570    1.4440 ha        1 0WB      0.147000
     31 H9          5.1920    2.8680    0.6120 ha        1 0WB      0.142000
     32 H10         2.9720    2.8190   -0.5100 ha        1 0WB      0.138000
@<TRIPOS>BOND
     1    1    7 ar  
     2    1    9 ar  
     3    1   23 1   
     4    2    5 1   
     5    2    6 ar  
     6    2    9 ar  
     7    3   10 1   
     8    3   11 2   
     9    3   14 1   
    10    4    6 ar  
    11    4    7 ar  
    12    4   24 1   
    13    5   25 1   
    14    6   26 1   
    15    7    8 1   
    16    9   10 1   
    17   10   27 1   
    18   11   12 1   
    19   12   13 2   
    20   12   15 1   
    21   13   14 1   
    22   13   28 1   
    23   15   16 ar  
    24   15   20 ar  
    25   16   17 ar  
    26   16   29 1   
    27   17   18 ar  
    28   17   21 1   
    29   18   19 ar  
    30   18   30 1   
    31   19   20 ar  
    32   19   31 1   
    33   20   32 1   
    34   21   22 3   
@<TRIPOS>SUBSTRUCTURE
     1 0WB         1 TEMP              0 ****  ****    0 ROOT
