@<TRIPOS>MOLECULE
0WB
   33    35     1     0     0
SMALL
bcc


@<TRIPOS>ATOM
      1 C7          0.7370    0.8810    0.1830 c2        1 0WB     -0.078000
      2 C2         -1.0950   -0.2240    1.4650 c2        1 0WB      0.251000
      3 C10        -2.3170    0.0040   -1.6030 c2        1 0WB     -0.300000
      4 C4          0.8700    0.6020    2.6140 c2        1 0WB      0.095000
      5 O1         -2.1870   -0.9690    1.4190 oh        1 0WB     -0.127000
      6 C3         -0.3600   -0.0040    2.6550 c2        1 0WB     -0.303000
      7 C5          1.4360    1.0200    1.3510 c2        1 0WB      0.032000
      8 F6          2.6880    1.5290    1.3630 f         1 0WB     -0.051000
      9 C8         -0.6890    0.4330    0.1600 c3        1 0WB      0.003000
     10 N9         -1.0230   -0.2430   -1.0790 nh        1 0WB     -0.195000
     11 N11        -3.3910    0.4300   -0.8980 n2        1 0WB     -0.151000
     12 C12        -4.4570    0.6230   -1.7630 c2        1 0WB     -0.009000
     13 C13        -4.1650    0.3240   -3.1010 c2        1 0WB     -0.473000
     14 S14        -2.5970   -0.1580   -3.2930 ss        1 0WB      0.676000
     15 C15        -5.7570    1.0900   -1.2920 ca        1 0WB     -0.035000
     16 C16        -6.2090    0.7610   -0.0090 ca        1 0WB     -0.067000
     17 C17        -7.4620    1.2140    0.4280 ca        1 0WB     -0.012000
     18 C18        -8.2670    1.9900   -0.4170 ca        1 0WB     -0.069000
     19 C19        -7.8110    2.3130   -1.6950 ca        1 0WB     -0.128000
     20 C20        -6.5650    1.8710   -2.1340 ca        1 0WB     -0.088000
     21 C21        -7.9050    0.8800    1.7360 c1        1 0WB     -0.107000
     22 N22        -8.2590    0.6050    2.8100 n1        1 0WB     -0.017000
     23 H1          1.1830    1.1720   -0.7880 ha        1 0WB      0.214000
     24 H2          1.4680    0.7560    3.5340 ha        1 0WB      0.206000
     25 H3         -2.4590   -1.2820    2.3110 ho        1 0WB      0.290000
     26 H4         -0.7700   -0.3620    3.6180 ha        1 0WB      0.195000
     27 H5         -0.8350   -1.2310   -1.0260 hn        1 0WB      0.211000
     28 H6         -4.8900    0.3890   -3.9150 h4        1 0WB      0.205000
     29 H7         -5.5910    0.1440    0.6600 ha        1 0WB      0.143000
     30 H8         -9.2520    2.3420   -0.0730 ha        1 0WB      0.159000
     31 H9         -8.4410    2.9240   -2.3610 ha        1 0WB      0.155000
     32 H10        -6.2110    2.1390   -3.1410 ha        1 0WB      0.143000
     33 H92        -1.2840    1.4290    0.2000 h1        1 0WB      0.232000
@<TRIPOS>BOND
     1    1    7 1   
     2    1    9 1   
     3    1   23 1   
     4    2    5 1   
     5    2    6 1   
     6    2    9 1   
     7    3   10 1   
     8    3   11 1   
     9    3   14 1   
    10    4    6 1   
    11    4    7 1   
    12    4   24 1   
    13    5   25 1   
    14    6   26 1   
    15    7    8 1   
    16    9   10 1   
    17    9   33 1   
    18   10   27 1   
    19   11   12 1   
    20   12   13 1   
    21   12   15 1   
    22   13   14 1   
    23   13   28 1   
    24   15   16 1   
    25   15   20 1   
    26   16   17 1   
    27   16   29 1   
    28   17   18 1   
    29   17   21 1   
    30   18   19 1   
    31   18   30 1   
    32   19   20 1   
    33   19   31 1   
    34   20   32 1   
    35   21   22 1   
@<TRIPOS>SUBSTRUCTURE
     1 0WB         1 TEMP              0 ****  ****    0 ROOT
