@<TRIPOS>MOLECULE
0WC
   44    47     1     0     0
SMALL
bcc


@<TRIPOS>ATOM
      1 C4          1.6810   -0.3960    0.9330 c1        1 0WC     -0.109100
      2 C5          2.8740   -0.5020    0.9510 cg        1 0WC     -0.119000
      3 C6          4.2770   -0.6070    0.9730 ca        1 0WC      0.045000
      4 C7          4.9390   -1.4930    0.1130 ca        1 0WC     -0.093000
      5 C8          6.3350   -1.5950    0.1290 ca        1 0WC     -0.093000
      6 C10         8.5310   -0.7380    1.2280 c3        1 0WC     -0.049100
      7 N12         7.3290    0.8090    2.7000 nh        1 0WC     -0.580700
      8 C13         6.3930    0.1250    1.8540 ca        1 0WC      0.076600
      9 C15         7.1920    2.1670    2.9800 ca        1 0WC      0.711200
     10 C17         6.0260    4.1790    2.7850 ca        1 0WC      0.719900
     11 C20         7.7550    4.1660    4.2760 ca        1 0WC      0.473200
     12 C21         8.0150    2.8160    3.9770 ca        1 0WC     -0.221200
     13 C26        -1.4380   -2.3910   -1.8780 cc        1 0WC     -0.255400
     14 C1         -0.3810   -0.8470    2.1880 c3        1 0WC     -0.097100
     15 C2          0.2320   -0.2520    0.9160 c3        1 0WC      0.228600
     16 O3         -0.1250    1.1300    0.9330 oh        1 0WC     -0.584800
     17 C9          7.0600   -0.7940    0.9900 ca        1 0WC     -0.094300
     18 C11         8.6760    0.2630    2.4030 c3        1 0WC      0.184800
     19 C14         5.0050    0.2050    1.8700 ca        1 0WC     -0.093000
     20 N16         6.1850    2.8930    2.3750 nb        1 0WC     -0.728000
     21 N18         4.9030    4.9250    2.1360 n4        1 0WC     -0.816300
     22 N19         6.7650    4.8790    3.7010 nb        1 0WC     -0.688000
     23 CL          9.2240    2.0220    4.8240 cl        1 0WC      0.019600
     24 C23        -0.3220   -0.9390   -0.3110 cc        1 0WC      0.311700
     25 N24        -0.0820   -0.5150   -1.5610 nd        1 0WC     -0.635000
     26 C25        -0.7250   -1.3460   -2.4560 cd        1 0WC      0.333200
     27 S27        -1.3130   -2.3330   -0.2190 ss        1 0WC     -0.009300
     28 H1          4.3540   -2.1190   -0.5800 ha        1 0WC      0.160000
     29 H2          6.8450   -2.3080   -0.5380 ha        1 0WC      0.157000
     30 H3          8.9410   -1.7380    1.5170 hc        1 0WC      0.083200
     31 H4          9.0820   -0.3780    0.3240 hc        1 0WC      0.083200
     32 H5          8.3590    4.7190    5.0270 h4        1 0WC      0.081100
     33 H6         -2.0040   -3.1420   -2.4270 h4        1 0WC      0.192000
     34 H7          0.0540   -0.3440    3.0840 hc        1 0WC      0.063033
     35 H8         -1.4840   -0.6750    2.1860 hc        1 0WC      0.063033
     36 H9         -0.1660   -1.9410    2.2370 hc        1 0WC      0.063033
     37 H10         0.1060    1.5080    0.0750 ho        1 0WC      0.423000
     38 H11         9.0260   -0.2710    3.3280 h1        1 0WC      0.077200
     39 H12         9.3990    1.0800    2.1450 h1        1 0WC      0.077200
     40 H13         4.4640    0.8630    2.5630 ha        1 0WC      0.144000
     41 H14         5.2750    5.7740    1.6950 hn        1 0WC      0.480800
     42 H15         4.4500    4.3340    1.4260 hn        1 0WC      0.480800
     43 H16        -0.6360   -1.1380   -3.5290 h4        1 0WC      0.052100
     44 H183        4.2190    5.1850    2.8570 hn        1 0WC      0.480800
@<TRIPOS>BOND
     1    1    2 3   
     2    1   15 1   
     3    2    3 1   
     4    3    4 ar  
     5    3   19 ar  
     6    4    5 ar  
     7    4   28 1   
     8    5   17 ar  
     9    5   29 1   
    10    6   17 1   
    11    6   18 1   
    12    6   30 1   
    13    6   31 1   
    14    7    8 1   
    15    7    9 1   
    16    7   18 1   
    17    8   17 ar  
    18    8   19 ar  
    19    9   12 ar  
    20    9   20 ar  
    21   10   20 ar  
    22   10   21 1   
    23   10   22 ar  
    24   11   12 ar  
    25   11   22 ar  
    26   11   32 1   
    27   12   23 1   
    28   13   26 2   
    29   13   27 1   
    30   13   33 1   
    31   14   15 1   
    32   14   34 1   
    33   14   35 1   
    34   14   36 1   
    35   15   16 1   
    36   15   24 1   
    37   16   37 1   
    38   18   38 1   
    39   18   39 1   
    40   19   40 1   
    41   21   41 1   
    42   21   42 1   
    43   21   44 1   
    44   24   25 2   
    45   24   27 1   
    46   25   26 1   
    47   26   43 1   
@<TRIPOS>SUBSTRUCTURE
     1 0WC         1 TEMP              0 ****  ****    0 ROOT
