@<TRIPOS>MOLECULE
0WC
   43    37     1     0     0
SMALL
bcc


@<TRIPOS>ATOM
      1 C4         -2.6090   -1.2290   -0.4840 c1        1 0WC     -0.126500
      2 C5         -1.4200   -1.1730   -0.4680 c1        1 0WC     -0.126500
      3 C6          0.0900   -1.1000   -0.4480 c1        1 0WC      0.034000
      4 C7          0.8340   -1.7300   -1.4540 c1        1 0WC     -0.109500
      5 C8          2.2270   -1.6770   -1.4280 c1        1 0WC     -0.109500
      6 C10         4.3230   -0.7820   -0.1050 c3        1 0WC     -0.133000
      7 N12         3.0880    0.1310    1.6460 n3        1 0WC     -0.155000
      8 C13         2.1350   -0.3680    0.6080 c1        1 0WC      0.017000
      9 C15         2.8600    1.5150    1.8720 c2        1 0WC      0.150000
     10 C17         2.6490    3.3280    3.3390 c1        1 0WC      0.163000
     11 C20         2.4060    3.6780    1.0360 c1        1 0WC      0.008000
     12 C21         2.6270    2.3490    0.8170 c2        1 0WC     -0.213000
     13 C26        -5.9460   -0.8450   -3.9650 c1        1 0WC     -0.470000
     14 C1         -4.5730   -2.5700    0.1860 c3        1 0WC     -0.196000
     15 C2         -4.1200   -1.3020   -0.5040 c2        1 0WC      0.279000
     16 O3         -4.6520   -0.1860    0.1680 oh        1 0WC     -0.317000
     17 C9          2.8800   -0.9980   -0.3990 c1        1 0WC     -0.096000
     18 C11         4.4150   -0.0590    1.1570 c3        1 0WC     -0.070000
     19 C14         0.7410   -0.4220    0.5800 c1        1 0WC     -0.111000
     20 N16         2.8710    2.0010    3.1220 n1        1 0WC     -0.251000
     21 N18         2.6480    3.8390    4.6630 n3        1 0WC     -0.324000
     22 N19         2.4170    4.1620    2.2870 n1        1 0WC     -0.214000
     23 CL          2.5200    2.6800   -0.8920 cl        1 0WC      0.033000
     24 C23        -4.6050   -1.3060   -1.9370 c2        1 0WC     -0.326000
     25 N24        -3.8760   -1.7820   -3.0690 n2        1 0WC     -0.096000
     26 C25        -4.7200   -1.4940   -4.3610 c1        1 0WC     -0.137000
     27 S27        -5.9300   -0.6990   -2.4480 ss        1 0WC      0.538000
     28 H1          0.3780   -2.2190   -2.1650 ha        1 0WC      0.144000
     29 H2          2.7450   -2.1160   -2.1290 ha        1 0WC      0.144000
     30 H3          4.7650   -1.6500   -0.0110 hc        1 0WC      0.103500
     31 H4          4.7190   -0.2400   -0.8160 hc        1 0WC      0.103500
     32 H5          2.2390    4.2760    0.2820 ha        1 0WC      0.178000
     33 H6         -6.6590   -0.5510   -4.5630 DU        1 0WC      0.181500
     34 H7         -4.2170   -2.5910    1.0990 hc        1 0WC      0.097667
     35 H8         -5.5530   -2.5930    0.2160 hc        1 0WC      0.097667
     36 H9         -4.2440   -3.3480   -0.3110 hc        1 0WC      0.097667
     37 H10        -4.2410    0.5520   -0.1110 ho        1 0WC      0.213000
     38 H11         4.9210   -0.5960    1.8000 h1        1 0WC      0.105500
     39 H12         4.8270    0.8150    0.9980 h1        1 0WC      0.105500
     40 H13         0.2220    0.0160    1.2820 ha        1 0WC      0.152000
     41 H14         2.3280    4.6790    4.8290 hn        1 0WC      0.227500
     42 H15         2.9490    3.3210    5.3540 hn        1 0WC      0.227500
     43 H16        -4.4590   -1.7160   -5.2750 DU        1 0WC      0.181500
@<TRIPOS>BOND
     1    1    2 1   
     2    3   19 1   
     3    4    5 1   
     4    4   28 1   
     5    5   29 1   
     6    6   17 1   
     7    6   18 1   
     8    6   30 1   
     9    6   31 1   
    10    7    8 1   
    11    7    9 1   
    12    7   18 1   
    13    8   17 1   
    14    9   12 1   
    15    9   20 1   
    16   10   21 1   
    17   10   22 1   
    18   11   12 1   
    19   11   32 1   
    20   12   23 1   
    21   13   26 1   
    22   13   27 1   
    23   14   15 1   
    24   14   34 1   
    25   14   35 1   
    26   14   36 1   
    27   15   16 1   
    28   15   24 1   
    29   16   37 1   
    30   18   38 1   
    31   18   39 1   
    32   19   40 1   
    33   21   41 1   
    34   21   42 1   
    35   24   25 1   
    36   24   27 1   
    37   25   26 1   
@<TRIPOS>SUBSTRUCTURE
     1 0WC         1 TEMP              0 ****  ****    0 ROOT
