@<TRIPOS>MOLECULE
0WC
   43    46     1     0     0
SMALL
bcc


@<TRIPOS>ATOM
      1 C4         -2.8420    0.3610   -0.2390 c1        1 0WC     -0.162100
      2 C5         -1.8280   -0.2750   -0.2910 cg        1 0WC     -0.070000
      3 C6         -0.6360   -1.0220   -0.3520 ca        1 0WC      0.026000
      4 C7         -0.6400   -2.2960   -0.9360 ca        1 0WC     -0.116000
      5 C8          0.5340   -3.0540   -1.0020 ca        1 0WC     -0.105000
      6 C10         3.0660   -3.1290   -0.4110 c3        1 0WC     -0.048100
      7 N12         3.0030   -0.9160    0.6520 nh        1 0WC     -0.592700
      8 C13         1.7190   -1.2270    0.1010 ca        1 0WC      0.109600
      9 C15         3.5690    0.3710    0.4330 ca        1 0WC      0.695200
     10 C17         3.5150    2.5070   -0.5480 ca        1 0WC      0.896900
     11 C20         5.2070    2.0750    0.9720 ca        1 0WC      0.486200
     12 C21         4.7170    0.7700    1.1860 ca        1 0WC     -0.303200
     13 C26        -7.0110   -1.0530    1.1650 cc        1 0WC     -0.260400
     14 C1         -3.9700    2.2180    0.9080 c3        1 0WC     -0.094100
     15 C2         -4.0700    1.1350   -0.1730 c3        1 0WC      0.233600
     16 O3         -4.3040    1.8400   -1.3890 oh        1 0WC     -0.577800
     17 C9          1.7040   -2.5270   -0.4900 ca        1 0WC     -0.109300
     18 C11         3.8870   -2.0710    0.3690 c3        1 0WC      0.177800
     19 C14         0.5510   -0.4730    0.1760 ca        1 0WC     -0.085000
     20 N16         2.9820    1.2330   -0.4450 nb        1 0WC     -0.789000
     21 N18         2.8420    3.4200   -1.3530 nh        1 0WC     -0.933500
     22 N19         4.6530    2.9500    0.1300 nb        1 0WC     -0.755000
     23 CL          5.4790   -0.2200    2.3210 cl        1 0WC     -0.063400
     24 C23        -5.2220    0.1980    0.1300 cc        1 0WC      0.349700
     25 N24        -5.7500   -0.6450   -0.7620 nd        1 0WC     -0.631000
     26 C25        -6.7760   -1.3590   -0.1700 cd        1 0WC      0.332200
     27 S27        -5.9570    0.1310    1.6840 ss        1 0WC     -0.057300
     28 H1         -1.5770   -2.7050   -1.3440 ha        1 0WC      0.144000
     29 H2          0.5200   -4.0540   -1.4570 ha        1 0WC      0.139000
     30 H3          3.0550   -4.1010    0.1410 hc        1 0WC      0.065200
     31 H4          3.4960   -3.3040   -1.4280 hc        1 0WC      0.065200
     32 H5          6.1020    2.4360    1.5160 h4        1 0WC      0.039100
     33 H6         -7.7730   -1.5130    1.7900 h4        1 0WC      0.182000
     34 H7         -3.0710    2.8510    0.7160 hc        1 0WC      0.058700
     35 H8         -4.8780    2.8660    0.8720 hc        1 0WC      0.058700
     36 H9         -3.8800    1.7430    1.9140 hc        1 0WC      0.058700
     37 H10        -4.3440    1.1910   -2.1040 ho        1 0WC      0.425000
     38 H11         4.2100   -2.4840    1.3630 h1        1 0WC      0.064700
     39 H12         4.7970   -1.7650   -0.2100 h1        1 0WC      0.064700
     40 H13         0.5400    0.5290    0.6280 ha        1 0WC      0.158000
     41 H14         3.3260    4.2460   -1.6140 hn        1 0WC      0.438300
     42 H15         2.1620    3.0670   -1.9840 hn        1 0WC      0.438300
     43 H16        -7.3190   -2.0970   -0.7720 h4        1 0WC      0.045100
@<TRIPOS>BOND
     1    1    2 3   
     2    1   15 1   
     3    2    3 1   
     4    3    4 ar  
     5    3   19 ar  
     6    4    5 ar  
     7    4   28 1   
     8    5   17 ar  
     9    5   29 1   
    10    6   17 1   
    11    6   18 1   
    12    6   30 1   
    13    6   31 1   
    14    7    8 1   
    15    7    9 1   
    16    7   18 1   
    17    8   17 ar  
    18    8   19 ar  
    19    9   12 ar  
    20    9   20 ar  
    21   10   20 ar  
    22   10   21 1   
    23   10   22 ar  
    24   11   12 ar  
    25   11   22 ar  
    26   11   32 1   
    27   12   23 1   
    28   13   26 2   
    29   13   27 1   
    30   13   33 1   
    31   14   15 1   
    32   14   34 1   
    33   14   35 1   
    34   14   36 1   
    35   15   16 1   
    36   15   24 1   
    37   16   37 1   
    38   18   38 1   
    39   18   39 1   
    40   19   40 1   
    41   21   41 1   
    42   21   42 1   
    43   24   25 2   
    44   24   27 1   
    45   25   26 1   
    46   26   43 1   
@<TRIPOS>SUBSTRUCTURE
     1 0WC         1 TEMP              0 ****  ****    0 ROOT
