@<TRIPOS>MOLECULE
0WC
   43    46     1     0     0
SMALL
bcc


@<TRIPOS>ATOM
      1 C4          1.3260    0.4580   -0.4130 c1        1 0WC     -0.162100
      2 C5          2.5060    0.6560   -0.4790 cg        1 0WC     -0.070000
      3 C6          3.8930    0.8910   -0.5580 ca        1 0WC      0.026000
      4 C7          4.6790    0.1310   -1.4350 ca        1 0WC     -0.116000
      5 C8          6.0590    0.3480   -1.5230 ca        1 0WC     -0.105000
      6 C10         8.0670    1.7340   -0.6250 c3        1 0WC     -0.048100
      7 N12         6.6500    2.9950    0.9350 nh        1 0WC     -0.592700
      8 C13         5.8420    2.1100    0.1510 ca        1 0WC      0.109600
      9 C15         6.2350    4.3430    1.1230 ca        1 0WC      0.695200
     10 C17         4.7570    6.1230    0.7050 ca        1 0WC      0.896900
     11 C20         6.4100    6.4620    2.2890 ca        1 0WC      0.486200
     12 C21         6.8940    5.1500    2.1030 ca        1 0WC     -0.303200
     13 C26        -0.8510   -3.5990   -0.0270 cc        1 0WC     -0.260400
     14 C1         -0.6640    0.7520    0.9960 c3        1 0WC     -0.094100
     15 C2         -0.1050    0.2190   -0.3280 c3        1 0WC      0.233600
     16 O3         -0.8090    0.9260   -1.3440 oh        1 0WC     -0.577800
     17 C9          6.6370    1.3270   -0.7390 ca        1 0WC     -0.109300
     18 C11         8.0530    2.8010    0.5000 c3        1 0WC      0.177800
     19 C14         4.4700    1.8930    0.2490 ca        1 0WC     -0.085000
     20 N16         5.1810    4.8370    0.4130 nb        1 0WC     -0.789000
     21 N18         3.6080    6.5790    0.0660 nv        1 0WC     -0.933500
     22 N19         5.3750    6.9760    1.6220 nb        1 0WC     -0.755000
     23 Cl          8.1780    4.6030    3.0500 cl        1 0WC     -0.063400
     24 C23        -0.3580   -1.2710   -0.4420 cc        1 0WC      0.349700
     25 N24        -0.2680   -1.9570   -1.5850 nd        1 0WC     -0.631000
     26 C25        -0.5530   -3.2890   -1.3470 cd        1 0WC      0.332200
     27 S27        -0.7830   -2.2290    0.9230 ss        1 0WC     -0.057300
     28 H1          4.2080   -0.6440   -2.0570 ha        1 0WC      0.144000
     29 H2          6.6700   -0.2560   -2.2090 ha        1 0WC      0.139000
     30 H3          8.7190    0.8730   -0.3380 hc        1 0WC      0.065200
     31 H4          8.4500    2.1640   -1.5830 hc        1 0WC      0.065200
     32 H5          6.8890    7.1380    3.0240 h4        1 0WC      0.039100
     33 H6         -1.0970   -4.5910    0.3450 h4        1 0WC      0.182000
     34 H7         -0.2300    0.1790    1.8500 hc        1 0WC      0.058700
     35 H8         -1.7760    0.6540    0.9970 hc        1 0WC      0.058700
     36 H9         -0.4010    1.8310    1.1030 hc        1 0WC      0.058700
     37 H10        -0.4620    0.6390   -2.1990 ho        1 0WC      0.425000
     38 H11         8.5140    3.7600    0.1460 h1        1 0WC      0.064700
     39 H12         8.6220    2.4320    1.3950 h1        1 0WC      0.064700
     40 H13         3.8400    2.4830    0.9300 ha        1 0WC      0.158000
     41 H14         3.4280    7.5540    0.0870 hn        1 0WC      0.438300
     42 H15         3.2820    6.0680   -0.7210 hn        1 0WC      0.438300
     43 H16        -0.5240   -3.9910   -2.1890 h4        1 0WC      0.045100
@<TRIPOS>BOND
     1    1    2 3   
     2    1   15 1   
     3    2    3 1   
     4    3    4 ar  
     5    3   19 ar  
     6    4    5 ar  
     7    4   28 1   
     8    5   17 ar  
     9    5   29 1   
    10    6   17 1   
    11    6   18 1   
    12    6   30 1   
    13    6   31 1   
    14    7    8 1   
    15    7    9 1   
    16    7   18 1   
    17    8   17 ar  
    18    8   19 ar  
    19    9   12 ar  
    20    9   20 ar  
    21   10   20 ar  
    22   10   21 1   
    23   10   22 ar  
    24   11   12 ar  
    25   11   22 ar  
    26   11   32 1   
    27   12   23 1   
    28   13   26 2   
    29   13   27 1   
    30   13   33 1   
    31   14   15 1   
    32   14   34 1   
    33   14   35 1   
    34   14   36 1   
    35   15   16 1   
    36   15   24 1   
    37   16   37 1   
    38   18   38 1   
    39   18   39 1   
    40   19   40 1   
    41   21   41 1   
    42   21   42 1   
    43   24   25 2   
    44   24   27 1   
    45   25   26 1   
    46   26   43 1   
@<TRIPOS>SUBSTRUCTURE
     1 0WC         1 TEMP              0 ****  ****    0 ROOT
