@<TRIPOS>MOLECULE
0WC
   43    46     1     0     0
SMALL
bcc


@<TRIPOS>ATOM
      1 C4          1.6610   -0.0340    0.0400 c1        1 0WC     -0.164100
      2 C5          2.8560   -0.0810   -0.0310 cg        1 0WC     -0.070000
      3 C6          4.2620   -0.1360   -0.1140 ca        1 0WC      0.026000
      4 C7          4.8730   -0.9010   -1.1150 ca        1 0WC     -0.116000
      5 C8          6.2680   -0.9690   -1.2080 ca        1 0WC     -0.105000
      6 C10         8.5210   -0.1880   -0.1680 c3        1 0WC     -0.048100
      7 N12         7.3940    1.0910    1.6010 nh        1 0WC     -0.592700
      8 C13         6.4220    0.5240    0.7160 ca        1 0WC      0.110600
      9 C15         7.2750    2.4550    1.9900 ca        1 0WC      0.692200
     10 C17         6.2450    4.5630    1.8360 ca        1 0WC      0.896900
     11 C20         7.8410    4.2750    3.4880 ca        1 0WC      0.485200
     12 C21         8.0580    2.9420    3.0830 ca        1 0WC     -0.300200
     13 C26        -1.3880   -3.2990   -1.1440 cc        1 0WC     -0.259400
     14 C1         -0.2380    0.0460    1.5950 c3        1 0WC     -0.094100
     15 C2          0.2120    0.0250    0.1300 c3        1 0WC      0.233600
     16 O3         -0.2920    1.2310   -0.4350 oh        1 0WC     -0.578800
     17 C9          7.0370   -0.2640   -0.3030 ca        1 0WC     -0.107300
     18 C11         8.7270    0.6780    1.1010 c3        1 0WC      0.176800
     19 C14         5.0350    0.5880    0.8180 ca        1 0WC     -0.087000
     20 N16         6.3720    3.2660    1.3680 nb        1 0WC     -0.787000
     21 N18         5.3860    5.4120    1.1440 nh        1 0WC     -0.934500
     22 N19         6.9620    5.0960    2.9100 nb        1 0WC     -0.754000
     23 CL          9.1760    1.9950    3.9190 cl        1 0WC     -0.063400
     24 C23        -0.3710   -1.1810   -0.5790 cc        1 0WC      0.349700
     25 N24        -0.4180   -1.3130   -1.9080 nd        1 0WC     -0.630000
     26 C25        -1.0030   -2.5250   -2.2310 cd        1 0WC      0.332200
     27 S27        -1.0280   -2.5160    0.2850 ss        1 0WC     -0.058300
     28 H1          4.2520   -1.4540   -1.8350 ha        1 0WC      0.144000
     29 H2          6.7400   -1.5760   -1.9940 ha        1 0WC      0.139000
     30 H3          8.9750   -1.1990   -0.0300 hc        1 0WC      0.065700
     31 H4          8.9900    0.2920   -1.0630 hc        1 0WC      0.065700
     32 H5          8.4080    4.7020    4.3380 h4        1 0WC      0.039100
     33 H6         -1.8600   -4.2770   -1.2050 h4        1 0WC      0.182000
     34 H7          0.2610    0.8920    2.1240 hc        1 0WC      0.058700
     35 H8         -1.3430    0.1960    1.6440 hc        1 0WC      0.058700
     36 H9          0.0390   -0.9140    2.0920 hc        1 0WC      0.058700
     37 H10        -0.0070    1.2680   -1.3570 ho        1 0WC      0.426000
     38 H11         9.2040    0.0680    1.9160 h1        1 0WC      0.065700
     39 H12         9.3800    1.5620    0.8800 h1        1 0WC      0.065700
     40 H13         4.5420    1.1860    1.5970 ha        1 0WC      0.154000
     41 H14         5.1280    6.2620    1.5850 hn        1 0WC      0.438300
     42 H15         4.7350    5.0010    0.5180 hn        1 0WC      0.438300
     43 H16        -1.1190   -2.7870   -3.2880 h4        1 0WC      0.045100
@<TRIPOS>BOND
     1    1    2 3   
     2    1   15 1   
     3    2    3 1   
     4    3    4 ar  
     5    3   19 ar  
     6    4    5 ar  
     7    4   28 1   
     8    5   17 ar  
     9    5   29 1   
    10    6   17 1   
    11    6   18 1   
    12    6   30 1   
    13    6   31 1   
    14    7    8 1   
    15    7    9 1   
    16    7   18 1   
    17    8   17 ar  
    18    8   19 ar  
    19    9   12 ar  
    20    9   20 ar  
    21   10   20 ar  
    22   10   21 1   
    23   10   22 ar  
    24   11   12 ar  
    25   11   22 ar  
    26   11   32 1   
    27   12   23 1   
    28   13   26 2   
    29   13   27 1   
    30   13   33 1   
    31   14   15 1   
    32   14   34 1   
    33   14   35 1   
    34   14   36 1   
    35   15   16 1   
    36   15   24 1   
    37   16   37 1   
    38   18   38 1   
    39   18   39 1   
    40   19   40 1   
    41   21   41 1   
    42   21   42 1   
    43   24   25 2   
    44   24   27 1   
    45   25   26 1   
    46   26   43 1   
@<TRIPOS>SUBSTRUCTURE
     1 0WC         1 TEMP              0 ****  ****    0 ROOT
