@<TRIPOS>MOLECULE
0WE
   52    55     1     0     0
SMALL
bcc


@<TRIPOS>ATOM
      1 O2          3.3830   -2.0010   -0.7130 o         1 0WE     -0.409100
      2 C1          3.3220   -0.9090   -0.1710 c         1 0WE      0.548100
      3 C17         3.4170   -0.6030    1.2940 c3        1 0WE     -0.163400
      4 C18         2.1080   -0.0580    1.8500 c3        1 0WE     -0.013100
      5 C19         2.1750    0.0340    3.3270 ca        1 0WE     -0.291600
      6 C24         2.2990    1.2640    3.9840 ca        1 0WE     -0.043000
      7 C23         2.3370    1.3080    5.3740 ca        1 0WE     -0.237600
      8 C26         2.5270    2.5860    6.1040 c3        1 0WE     -0.028100
      9 C25         1.8970    2.5670    7.4790 c3        1 0WE     -0.151400
     10 C20         2.0870   -1.1280    4.1230 ca        1 0WE      0.453200
     11 N21         2.1140   -1.1350    5.4580 nb        1 0WE     -0.696000
     12 C22         2.2350    0.0740    6.1020 ca        1 0WE      0.575200
     13 N36         2.2660    0.0900    7.4950 n         1 0WE     -0.546400
     14 C37         2.1390    1.2790    8.2280 c         1 0WE      0.703500
     15 O28         2.2000    1.2160    9.4630 o         1 0WE     -0.577500
     16 N3          3.1260    0.2910   -1.0880 n4        1 0WE     -0.603200
     17 C4          4.1540    0.3160   -2.1560 c3        1 0WE      0.083100
     18 C5          1.7300    0.2620   -1.6620 c3        1 0WE      0.212000
     19 C6          1.3640    1.5420   -2.2840 cc        1 0WE     -0.127100
     20 O10         1.4520    2.6590   -1.4120 os        1 0WE     -0.234200
     21 C9          0.9930    3.7460   -2.1620 ca        1 0WE      0.089100
     22 C8          0.6240    3.3250   -3.4750 ca        1 0WE     -0.139800
     23 C7          0.8760    1.8930   -3.5250 cd        1 0WE      0.022600
     24 C38         0.6250    1.0320   -4.6820 c3        1 0WE     -0.063900
     25 C14         0.8960    5.0650   -1.7280 ca        1 0WE     -0.131000
     26 C13         0.4050    5.9820   -2.6570 ca        1 0WE     -0.072000
     27 C12         0.0340    5.5920   -3.9540 ca        1 0WE     -0.138000
     28 C11         0.1370    4.2700   -4.3780 ca        1 0WE     -0.054000
     29 H1          3.6780   -1.5660    1.8200 hc        1 0WE      0.115700
     30 H2          4.2550    0.1220    1.4820 hc        1 0WE      0.115700
     31 H3          1.8940    0.9540    1.4120 hc        1 0WE      0.057200
     32 H4          1.2640   -0.7420    1.5560 hc        1 0WE      0.057200
     33 H5          2.3640    2.2010    3.4090 ha        1 0WE      0.137000
     34 H6          3.6320    2.7800    6.2010 hc        1 0WE      0.065200
     35 H7          2.0930    3.4390    5.5160 hc        1 0WE      0.065200
     36 H8          0.7830    2.7010    7.4030 hc        1 0WE      0.093200
     37 H9          2.3000    3.4120    8.0990 hc        1 0WE      0.093200
     38 H10         1.9790   -2.1260    3.6560 h4        1 0WE      0.026100
     39 H11         2.3070   -0.7740    7.9960 hn        1 0WE      0.354500
     40 H12         5.1650    0.4620   -1.6930 hx        1 0WE      0.107367
     41 H13         4.1340   -0.6590   -2.7160 hx        1 0WE      0.107367
     42 H14         3.9310    1.1620   -2.8610 hx        1 0WE      0.107367
     43 H15         1.6730   -0.5750   -2.4170 hx        1 0WE      0.116700
     44 H16         1.0320    0.0410   -0.7980 hx        1 0WE      0.116700
     45 H17        -0.4790    0.8770   -4.8090 hc        1 0WE      0.068700
     46 H18         1.1100    0.0320   -4.5670 hc        1 0WE      0.068700
     47 H19         1.0130    1.5140   -5.6170 hc        1 0WE      0.068700
     48 H20         1.1840    5.3620   -0.7120 ha        1 0WE      0.160000
     49 H21         0.3030    7.0400   -2.3640 ha        1 0WE      0.157000
     50 H22        -0.3500    6.3550   -4.6510 ha        1 0WE      0.157000
     51 H23        -0.1580    3.9750   -5.3960 ha        1 0WE      0.155000
     52 H31         3.2110    1.1520   -0.5290 hn        1 0WE      0.463800
@<TRIPOS>BOND
     1    1    2 2   
     2    2    3 1   
     3    2   16 1   
     4    3    4 1   
     5    3   29 1   
     6    3   30 1   
     7    4    5 1   
     8    4   31 1   
     9    4   32 1   
    10    5    6 ar  
    11    5   10 ar  
    12    6    7 ar  
    13    6   33 1   
    14    7    8 1   
    15    7   12 ar  
    16    8    9 1   
    17    8   34 1   
    18    8   35 1   
    19    9   14 1   
    20    9   36 1   
    21    9   37 1   
    22   10   11 ar  
    23   10   38 1   
    24   11   12 ar  
    25   12   13 1   
    26   13   14 1   
    27   13   39 1   
    28   14   15 2   
    29   16   17 1   
    30   16   18 1   
    31   16   52 1   
    32   17   40 1   
    33   17   41 1   
    34   17   42 1   
    35   18   19 1   
    36   18   43 1   
    37   18   44 1   
    38   19   20 1   
    39   19   23 2   
    40   20   21 1   
    41   21   22 ar  
    42   21   25 ar  
    43   22   23 1   
    44   22   28 ar  
    45   23   24 1   
    46   24   45 1   
    47   24   46 1   
    48   24   47 1   
    49   25   26 ar  
    50   25   48 1   
    51   26   27 ar  
    52   26   49 1   
    53   27   28 ar  
    54   27   50 1   
    55   28   51 1   
@<TRIPOS>SUBSTRUCTURE
     1 0WE         1 TEMP              0 ****  ****    0 ROOT
