@<TRIPOS>MOLECULE
0WE
   52    55     1     0     0
SMALL
bcc


@<TRIPOS>ATOM
      1 O2          3.4170   -1.9840   -0.7180 o         1 0WE     -0.409100
      2 C1          3.3450   -0.8940   -0.1720 c         1 0WE      0.548100
      3 C17         3.4270   -0.5940    1.2950 c3        1 0WE     -0.163400
      4 C18         2.1110   -0.0590    1.8440 c3        1 0WE     -0.013100
      5 C19         2.1670    0.0260    3.3220 ca        1 0WE     -0.291600
      6 C24         2.2820    1.2520    3.9860 ca        1 0WE     -0.043000
      7 C23         2.3110    1.2890    5.3770 ca        1 0WE     -0.237600
      8 C26         2.4900    2.5630    6.1150 c3        1 0WE     -0.028100
      9 C25         1.8510    2.5340    7.4850 c3        1 0WE     -0.151400
     10 C20         2.0780   -1.1410    4.1110 ca        1 0WE      0.453200
     11 N21         2.0960   -1.1560    5.4470 nb        1 0WE     -0.696000
     12 C22         2.2080    0.0510    6.0980 ca        1 0WE      0.575200
     13 N36         2.2300    0.0600    7.4910 n         1 0WE     -0.546400
     14 C37         2.0930    1.2440    8.2290 c         1 0WE      0.703500
     15 O28         2.1470    1.1740    9.4650 o         1 0WE     -0.577500
     16 N3          3.1460    0.3080   -1.0850 n4        1 0WE     -0.603200
     17 C4          4.1810    0.3460   -2.1450 c3        1 0WE      0.083100
     18 C5          1.7540    0.2700   -1.6700 c3        1 0WE      0.212000
     19 C6          1.3830    1.5480   -2.2920 cc        1 0WE     -0.127100
     20 O10         1.4560    2.6650   -1.4180 os        1 0WE     -0.234200
     21 C9          0.9950    3.7500   -2.1700 ca        1 0WE      0.089100
     22 C8          0.6390    3.3280   -3.4870 ca        1 0WE     -0.139800
     23 C7          0.9030    1.8970   -3.5370 cd        1 0WE      0.022600
     24 C38         0.6670    1.0370   -4.6980 c3        1 0WE     -0.063900
     25 C14         0.8840    5.0660   -1.7350 ca        1 0WE     -0.131000
     26 C13         0.3930    5.9810   -2.6650 ca        1 0WE     -0.072000
     27 C12         0.0350    5.5910   -3.9660 ca        1 0WE     -0.138000
     28 C11         0.1510    4.2710   -4.3920 ca        1 0WE     -0.054000
     29 H1          4.2590    0.1360    1.4910 hc        1 0WE      0.115700
     30 H2          3.6910   -1.5580    1.8180 hc        1 0WE      0.115700
     31 H3          1.2740   -0.7460    1.5410 hc        1 0WE      0.057200
     32 H4          1.8950    0.9540    1.4100 hc        1 0WE      0.057200
     33 H5          2.3470    2.1920    3.4170 ha        1 0WE      0.137000
     34 H6          2.0570    3.4180    5.5290 hc        1 0WE      0.065200
     35 H7          3.5940    2.7610    6.2210 hc        1 0WE      0.065200
     36 H8          2.2470    3.3780    8.1130 hc        1 0WE      0.093200
     37 H9          0.7380    2.6650    7.4030 hc        1 0WE      0.093200
     38 H10         1.9770   -2.1370    3.6390 h4        1 0WE      0.026100
     39 H11         2.2710   -0.8070    7.9880 hn        1 0WE      0.354500
     40 H12         3.9570    1.1930   -2.8480 hx        1 0WE      0.107367
     41 H13         5.1880    0.4990   -1.6740 hx        1 0WE      0.107367
     42 H14         4.1740   -0.6260   -2.7090 hx        1 0WE      0.107367
     43 H15         1.7090   -0.5660   -2.4270 hx        1 0WE      0.116700
     44 H16         1.0510    0.0420   -0.8120 hx        1 0WE      0.116700
     45 H17         1.1610    0.0410   -4.5820 hc        1 0WE      0.068700
     46 H18         1.0550    1.5250   -5.6290 hc        1 0WE      0.068700
     47 H19        -0.4350    0.8710   -4.8310 hc        1 0WE      0.068700
     48 H20         1.1620    5.3640   -0.7160 ha        1 0WE      0.160000
     49 H21         0.2810    7.0380   -2.3710 ha        1 0WE      0.157000
     50 H22        -0.3490    6.3530   -4.6650 ha        1 0WE      0.157000
     51 H23        -0.1330    3.9750   -5.4120 ha        1 0WE      0.155000
     52 H31         3.2190    1.1670   -0.5220 hn        1 0WE      0.463800
@<TRIPOS>BOND
     1    1    2 2   
     2    2    3 1   
     3    2   16 1   
     4    3    4 1   
     5    3   29 1   
     6    3   30 1   
     7    4    5 1   
     8    4   31 1   
     9    4   32 1   
    10    5    6 ar  
    11    5   10 ar  
    12    6    7 ar  
    13    6   33 1   
    14    7    8 1   
    15    7   12 ar  
    16    8    9 1   
    17    8   34 1   
    18    8   35 1   
    19    9   14 1   
    20    9   36 1   
    21    9   37 1   
    22   10   11 ar  
    23   10   38 1   
    24   11   12 ar  
    25   12   13 1   
    26   13   14 1   
    27   13   39 1   
    28   14   15 2   
    29   16   17 1   
    30   16   18 1   
    31   16   52 1   
    32   17   40 1   
    33   17   41 1   
    34   17   42 1   
    35   18   19 1   
    36   18   43 1   
    37   18   44 1   
    38   19   20 1   
    39   19   23 2   
    40   20   21 1   
    41   21   22 ar  
    42   21   25 ar  
    43   22   23 1   
    44   22   28 ar  
    45   23   24 1   
    46   24   45 1   
    47   24   46 1   
    48   24   47 1   
    49   25   26 ar  
    50   25   48 1   
    51   26   27 ar  
    52   26   49 1   
    53   27   28 ar  
    54   27   50 1   
    55   28   51 1   
@<TRIPOS>SUBSTRUCTURE
     1 0WE         1 TEMP              0 ****  ****    0 ROOT
