@<TRIPOS>MOLECULE
0WE
   52    55     1     0     0
SMALL
bcc


@<TRIPOS>ATOM
      1 O2          3.3720   -2.0100   -0.7220 o         1 0WE     -0.409100
      2 C1          3.3170   -0.9180   -0.1800 c         1 0WE      0.548100
      3 C17         3.4130   -0.6130    1.2860 c3        1 0WE     -0.163400
      4 C18         2.1070   -0.0620    1.8410 c3        1 0WE     -0.013100
      5 C19         2.1740    0.0290    3.3190 ca        1 0WE     -0.291600
      6 C24         2.3050    1.2580    3.9770 ca        1 0WE     -0.043000
      7 C23         2.3440    1.3000    5.3670 ca        1 0WE     -0.237600
      8 C26         2.5410    2.5760    6.0980 c3        1 0WE     -0.028100
      9 C25         1.9100    2.5600    7.4720 c3        1 0WE     -0.151400
     10 C20         2.0790   -1.1330    4.1130 ca        1 0WE      0.453200
     11 N21         2.1060   -1.1420    5.4490 nb        1 0WE     -0.696000
     12 C22         2.2330    0.0660    6.0930 ca        1 0WE      0.575200
     13 N36         2.2650    0.0810    7.4870 ns        1 0WE     -0.546400
     14 C37         2.1440    1.2700    8.2200 c         1 0WE      0.703500
     15 O28         2.2050    1.2050    9.4560 o         1 0WE     -0.577500
     16 N3          3.1270    0.2830   -1.0960 nx        1 0WE     -0.603200
     17 C4          4.1550    0.3030   -2.1640 c3        1 0WE      0.083100
     18 C5          1.7310    0.2620   -1.6700 c3        1 0WE      0.212000
     19 C6          1.3730    1.5440   -2.2920 cc        1 0WE     -0.127100
     20 O10         1.4660    2.6610   -1.4190 os        1 0WE     -0.234200
     21 C9          1.0140    3.7510   -2.1690 ca        1 0WE      0.089100
     22 C8          0.6420    3.3320   -3.4830 ca        1 0WE     -0.139800
     23 C7          0.8870    1.8980   -3.5340 cd        1 0WE      0.022600
     24 C38         0.6320    1.0400   -4.6910 c3        1 0WE     -0.063900
     25 C14         0.9230    5.0690   -1.7350 ca        1 0WE     -0.131000
     26 C13         0.4370    5.9900   -2.6630 ca        1 0WE     -0.072000
     27 C12         0.0650    5.6030   -3.9610 ca        1 0WE     -0.138000
     28 C11         0.1610    4.2800   -4.3850 ca        1 0WE     -0.054000
     29 H1          4.2550    0.1070    1.4730 hc        1 0WE      0.115700
     30 H2          3.6690   -1.5790    1.8100 hc        1 0WE      0.115700
     31 H3          1.8990    0.9520    1.4040 hc        1 0WE      0.057200
     32 H4          1.2600   -0.7400    1.5470 hc        1 0WE      0.057200
     33 H5          2.3760    2.1940    3.4020 ha        1 0WE      0.137000
     34 H6          2.1120    3.4320    5.5100 hc        1 0WE      0.065200
     35 H7          3.6470    2.7640    6.1950 hc        1 0WE      0.065200
     36 H8          2.3180    3.4020    8.0930 hc        1 0WE      0.093200
     37 H9          0.7970    2.7010    7.3970 hc        1 0WE      0.093200
     38 H10         1.9650   -2.1300    3.6460 h4        1 0WE      0.026100
     39 H11         2.3000   -0.7840    7.9870 hn        1 0WE      0.354500
     40 H12         4.1310   -0.6710   -2.7240 hx        1 0WE      0.107367
     41 H13         3.9380    1.1510   -2.8690 hx        1 0WE      0.107367
     42 H14         5.1680    0.4440   -1.7010 hx        1 0WE      0.107367
     43 H15         1.6700   -0.5740   -2.4260 hx        1 0WE      0.116700
     44 H16         1.0320    0.0440   -0.8070 hx        1 0WE      0.116700
     45 H17         1.1120    0.0370   -4.5770 hc        1 0WE      0.068700
     46 H18        -0.4730    0.8900   -4.8180 hc        1 0WE      0.068700
     47 H19         1.0220    1.5200   -5.6250 hc        1 0WE      0.068700
     48 H20         1.2120    5.3650   -0.7180 ha        1 0WE      0.160000
     49 H21         0.3410    7.0480   -2.3690 ha        1 0WE      0.157000
     50 H22        -0.3150    6.3680   -4.6570 ha        1 0WE      0.157000
     51 H23        -0.1360    3.9870   -5.4030 ha        1 0WE      0.155000
     52 H31         3.2170    1.1440   -0.5370 hn        1 0WE      0.463800
@<TRIPOS>BOND
     1    1    2 2   
     2    2    3 1   
     3    2   16 1   
     4    3    4 1   
     5    3   29 1   
     6    3   30 1   
     7    4    5 1   
     8    4   31 1   
     9    4   32 1   
    10    5    6 ar  
    11    5   10 ar  
    12    6    7 ar  
    13    6   33 1   
    14    7    8 1   
    15    7   12 ar  
    16    8    9 1   
    17    8   34 1   
    18    8   35 1   
    19    9   14 1   
    20    9   36 1   
    21    9   37 1   
    22   10   11 ar  
    23   10   38 1   
    24   11   12 ar  
    25   12   13 1   
    26   13   14 1   
    27   13   39 1   
    28   14   15 2   
    29   16   17 1   
    30   16   18 1   
    31   16   52 1   
    32   17   40 1   
    33   17   41 1   
    34   17   42 1   
    35   18   19 1   
    36   18   43 1   
    37   18   44 1   
    38   19   20 1   
    39   19   23 2   
    40   20   21 1   
    41   21   22 ar  
    42   21   25 ar  
    43   22   23 1   
    44   22   28 ar  
    45   23   24 1   
    46   24   45 1   
    47   24   46 1   
    48   24   47 1   
    49   25   26 ar  
    50   25   48 1   
    51   26   27 ar  
    52   26   49 1   
    53   27   28 ar  
    54   27   50 1   
    55   28   51 1   
@<TRIPOS>SUBSTRUCTURE
     1 0WE         1 TEMP              0 ****  ****    0 ROOT
