@<TRIPOS>MOLECULE
0WE
   51    46     1     0     0
SMALL
bcc


@<TRIPOS>ATOM
      1 O2         -1.8500    1.7920   -0.1160 o         1 0WE     -0.360000
      2 C1         -0.6290    1.8130   -0.1250 c1        1 0WE      0.305000
      3 C17         0.1450    1.7930    1.1940 c3        1 0WE     -0.173000
      4 C18        -0.7640    1.2780    2.3120 c3        1 0WE     -0.109000
      5 C19         0.0900    0.7790    3.4730 c2        1 0WE     -0.156000
      6 C24         0.6530   -0.4920    3.4230 c2        1 0WE     -0.057000
      7 C23         1.3250   -0.9840    4.5090 c1        1 0WE     -0.164000
      8 C26         2.0510   -2.3690    4.4780 c2        1 0WE     -0.112000
      9 C25         2.9130   -2.6710    5.5780 c3        1 0WE     -0.177000
     10 C20         0.2140    1.5690    4.6560 c1        1 0WE     -0.034000
     11 N21         0.8930    1.0730    5.7560 n1        1 0WE     -0.176000
     12 C22         1.4490   -0.1770    5.7120 c2        1 0WE      0.130000
     13 N36         2.1080   -0.7960    6.9120 n         1 0WE     -0.315000
     14 C37         2.4140   -2.1230    6.8560 c2        1 0WE      0.311000
     15 O28         2.5420   -2.7640    7.8850 o         1 0WE     -0.342000
     16 N3          0.0800    1.9130   -1.3730 n2        1 0WE     -0.335000
     17 C4          1.5160    1.8720   -1.3880 c3        1 0WE     -0.077000
     18 C5         -0.6450    2.1520   -2.5920 c3        1 0WE      0.035000
     19 C6         -0.8140    0.8320   -3.3540 c2        1 0WE     -0.043000
     20 O10        -1.9790    1.3790   -3.8420 os        1 0WE     -0.097000
     21 C9         -2.4900    0.5160   -4.8110 c1        1 0WE      0.020000
     22 C8         -1.6350   -0.5600   -4.9160 c1        1 0WE     -0.096000
     23 C7         -0.5940   -0.3700   -4.0150 c1        1 0WE     -0.115000
     24 C38         0.5790   -1.3260   -4.2480 c2        1 0WE     -0.155000
     25 C14        -3.6300    0.5920   -5.6350 c1        1 0WE     -0.123000
     26 C13        -3.8930   -0.4190   -6.5550 c1        1 0WE     -0.130000
     27 C12        -3.0290   -1.5070   -6.6610 c1        1 0WE     -0.130000
     28 C11        -1.9020   -1.5830   -5.8470 c1        1 0WE     -0.082000
     29 H1          0.9250    1.2010    1.1070 hc        1 0WE      0.108000
     30 H2          0.4480    2.7040    1.4110 hc        1 0WE      0.108000
     31 H3         -1.3470    2.0060    2.6220 hc        1 0WE      0.109500
     32 H4         -1.3160    0.5390    1.9700 hc        1 0WE      0.109500
     33 H5          0.5220   -1.0560    2.6290 ha        1 0WE      0.144000
     34 H6          2.5860   -2.4130    3.6540 ha        1 0WE      0.101000
     35 H7          1.3620   -3.0710    4.4320 ha        1 0WE      0.101000
     36 H8          3.0480   -3.6460    5.5990 hc        1 0WE      0.122500
     37 H9          3.8200   -2.3210    5.4260 hc        1 0WE      0.122500
     38 H10        -0.1600    2.4780    4.6800 ha        1 0WE      0.162000
     39 H11         2.0840   -0.3640    7.7220 hn        1 0WE      0.259000
     40 H12         1.8700    2.6220   -0.8600 h1        1 0WE      0.080667
     41 H13         1.8350    1.9430   -2.3150 h1        1 0WE      0.080667
     42 H14         1.8240    1.0230   -1.0000 h1        1 0WE      0.080667
     43 H15        -0.1460    2.7910   -3.1500 h1        1 0WE      0.125500
     44 H16        -1.5300    2.5230   -2.3800 h1        1 0WE      0.125500
     45 H17         0.2970   -2.2470   -4.0490 ha        1 0WE      0.086000
     46 H18         1.3260   -1.0780   -3.6590 ha        1 0WE      0.086000
     47 H19         0.8690   -1.2670   -5.1870 ha        1 0WE      0.086000
     48 H20        -4.2390    1.3600   -5.5610 ha        1 0WE      0.152000
     49 H21        -4.6870   -0.3650   -7.1290 ha        1 0WE      0.135000
     50 H22        -3.2150   -2.2200   -7.3100 ha        1 0WE      0.135000
     51 H23        -1.2940   -2.3500   -5.9220 ha        1 0WE      0.138000
@<TRIPOS>BOND
     1    1    2 1   
     2    2    3 1   
     3    3    4 1   
     4    3   29 1   
     5    3   30 1   
     6    4    5 1   
     7    4   31 1   
     8    4   32 1   
     9    5    6 1   
    10    5   10 1   
    11    6    7 1   
    12    6   33 1   
    13    7   12 1   
    14    8    9 1   
    15    8   34 1   
    16    8   35 1   
    17    9   14 1   
    18    9   36 1   
    19    9   37 1   
    20   10   38 1   
    21   11   12 1   
    22   12   13 1   
    23   13   14 1   
    24   13   39 1   
    25   14   15 1   
    26   16   17 1   
    27   16   18 1   
    28   17   40 1   
    29   17   41 1   
    30   17   42 1   
    31   18   19 1   
    32   18   43 1   
    33   18   44 1   
    34   19   20 1   
    35   19   23 1   
    36   20   21 1   
    37   21   25 1   
    38   22   28 1   
    39   24   45 1   
    40   24   46 1   
    41   24   47 1   
    42   25   48 1   
    43   26   27 1   
    44   26   49 1   
    45   27   50 1   
    46   28   51 1   
@<TRIPOS>SUBSTRUCTURE
     1 0WE         1 TEMP              0 ****  ****    0 ROOT
