@<TRIPOS>MOLECULE
0WE
   51    54     1     0     0
SMALL
bcc


@<TRIPOS>ATOM
      1 O2         -0.9590   -1.5970    1.9770 o         1 0WE     -0.599100
      2 C1         -0.7860   -1.5140    0.7450 c         1 0WE      0.661100
      3 C17         0.5730   -1.1960    0.1500 c3        1 0WE     -0.144400
      4 C18         1.6140   -1.0490    1.2440 c3        1 0WE     -0.022100
      5 C19         2.9500   -0.7350    0.6800 ca        1 0WE     -0.228600
      6 C24         3.5110    0.5400    0.7870 ca        1 0WE     -0.057000
      7 C23         4.7750    0.7910    0.2530 ca        1 0WE     -0.236600
      8 C26         5.3800    2.1440    0.3010 c3        1 0WE     -0.026100
      9 C25         6.8920    2.0980    0.3350 c3        1 0WE     -0.148400
     10 C20         3.7080   -1.7300    0.0260 ca        1 0WE      0.431200
     11 N21         4.9260   -1.5380   -0.4960 nb        1 0WE     -0.702000
     12 C22         5.4700   -0.2830   -0.3860 ca        1 0WE      0.538200
     13 N36         6.7450   -0.0540   -0.9290 n         1 0WE     -0.548400
     14 C37         7.4780    1.0900   -0.6260 c         1 0WE      0.703500
     15 O28         8.6030    1.2300   -1.1380 o         1 0WE     -0.616500
     16 N3         -1.8400   -1.7530   -0.1350 n         1 0WE     -0.476800
     17 C4         -1.6630   -1.5950   -1.5490 c3        1 0WE      0.078300
     18 C5         -3.1810   -1.9380    0.3670 c3        1 0WE      0.154200
     19 C6         -4.1380   -0.8560    0.0090 cc        1 0WE     -0.003100
     20 O10        -4.1180    0.2660    0.8620 os        1 0WE     -0.186200
     21 C9         -5.1070    1.1230    0.3790 ca        1 0WE      0.065100
     22 C8         -5.7430    0.5530   -0.7660 ca        1 0WE     -0.107800
     23 C7         -5.0890   -0.7290   -0.9820 cd        1 0WE     -0.107400
     24 C38        -5.4060   -1.6690   -2.0590 c3        1 0WE     -0.032900
     25 C14        -5.4580    2.3630    0.9050 ca        1 0WE     -0.123000
     26 C13        -6.4840    3.0430    0.2530 ca        1 0WE     -0.110000
     27 C12        -7.1250    2.5020   -0.8730 ca        1 0WE     -0.150000
     28 C11        -6.7670    1.2610   -1.3920 ca        1 0WE     -0.082000
     29 H1          0.8760   -2.0140   -0.5550 hc        1 0WE      0.068700
     30 H2          0.4980   -0.2440   -0.4390 hc        1 0WE      0.068700
     31 H3          1.2890   -0.2440    1.9570 hc        1 0WE      0.070200
     32 H4          1.6630   -2.0030    1.8370 hc        1 0WE      0.070200
     33 H5          2.9600    1.3490    1.2900 ha        1 0WE      0.143000
     34 H6          5.0420    2.7190   -0.6060 hc        1 0WE      0.061200
     35 H7          5.0110    2.7040    1.2020 hc        1 0WE      0.061200
     36 H8          7.3150    3.1060    0.0840 hc        1 0WE      0.083700
     37 H9          7.2520    1.8210    1.3630 hc        1 0WE      0.083700
     38 H10         3.3100   -2.7560   -0.0810 h4        1 0WE      0.026100
     39 H11         7.1740   -0.7680   -1.4790 hn        1 0WE      0.345500
     40 H12        -0.9130   -2.3420   -1.9270 h1        1 0WE      0.041700
     41 H13        -2.6400   -1.7630   -2.0760 h1        1 0WE      0.041700
     42 H14        -1.2960   -0.5630   -1.8010 h1        1 0WE      0.041700
     43 H15        -3.5870   -2.9030   -0.0580 h1        1 0WE      0.086200
     44 H16        -3.1390   -2.0250    1.4950 h1        1 0WE      0.086200
     45 H17        -4.9170   -1.3430   -3.0140 hc        1 0WE      0.046700
     46 H18        -5.0460   -2.7000   -1.8150 hc        1 0WE      0.046700
     47 H19        -6.5110   -1.7080   -2.2310 hc        1 0WE      0.046700
     48 H20        -4.9520    2.7750    1.7870 ha        1 0WE      0.152000
     49 H21        -6.8010    4.0270    0.6300 ha        1 0WE      0.136000
     50 H22        -7.9320    3.0760   -1.3540 ha        1 0WE      0.134000
     51 H23        -7.2760    0.8460   -2.2730 ha        1 0WE      0.138000
@<TRIPOS>BOND
     1    1    2 2   
     2    2    3 1   
     3    2   16 1   
     4    3    4 1   
     5    3   29 1   
     6    3   30 1   
     7    4    5 1   
     8    4   31 1   
     9    4   32 1   
    10    5    6 ar  
    11    5   10 ar  
    12    6    7 ar  
    13    6   33 1   
    14    7    8 1   
    15    7   12 ar  
    16    8    9 1   
    17    8   34 1   
    18    8   35 1   
    19    9   14 1   
    20    9   36 1   
    21    9   37 1   
    22   10   11 ar  
    23   10   38 1   
    24   11   12 ar  
    25   12   13 1   
    26   13   14 1   
    27   13   39 1   
    28   14   15 2   
    29   16   17 1   
    30   16   18 1   
    31   17   40 1   
    32   17   41 1   
    33   17   42 1   
    34   18   19 1   
    35   18   43 1   
    36   18   44 1   
    37   19   20 1   
    38   19   23 2   
    39   20   21 1   
    40   21   22 ar  
    41   21   25 ar  
    42   22   23 1   
    43   22   28 ar  
    44   23   24 1   
    45   24   45 1   
    46   24   46 1   
    47   24   47 1   
    48   25   26 ar  
    49   25   48 1   
    50   26   27 ar  
    51   26   49 1   
    52   27   28 ar  
    53   27   50 1   
    54   28   51 1   
@<TRIPOS>SUBSTRUCTURE
     1 0WE         1 TEMP              0 ****  ****    0 ROOT
