@<TRIPOS>MOLECULE
0WF
   53    51     1     0     0
SMALL
bcc


@<TRIPOS>ATOM
      1 C1         -1.8180    0.0810    0.5470 c3        1 0WF     -0.216000
      2 C2         -0.3310    0.1400    0.6600 c3        1 0WF      0.004000
      3 C3          0.2670   -1.0230   -0.0700 c2        1 0WF      0.140000
      4 N1          0.6820   -2.1740    0.6490 n         1 0WF     -0.314000
      5 C4          1.1280   -3.3130   -0.0470 c2        1 0WF      0.383000
      6 O1          1.4900   -4.3270    0.5830 o         1 0WF     -0.344000
      7 C5          1.1590   -3.3080   -1.5780 c2        1 0WF     -0.290000
      8 C6          1.5690   -4.2400   -2.4910 c1        1 0WF     -0.014000
      9 N2          1.4120   -3.7070   -3.7360 n2        1 0WF     -0.089000
     10 N3          0.9100   -2.4590   -3.5980 n2        1 0WF     -0.089000
     11 C7          0.7530   -2.2090   -2.2590 c1        1 0WF     -0.014000
     12 N4          0.3060   -1.0200   -1.5320 n1        1 0WF     -0.207000
     13 C8          0.6330   -1.5360   -4.5310 c2        1 0WF      0.050000
     14 C9          1.9810   -0.9600   -5.1650 c3        1 0WF     -0.170000
     15 C10         2.0350   -1.4800   -6.3980 c3        1 0WF     -0.158000
     16 C11         0.4940   -1.7620   -6.8380 c3        1 0WF     -0.158000
     17 C12        -0.1500   -2.1810   -5.7190 c3        1 0WF     -0.170000
     18 N5          0.0550    0.0870    2.0470 n3        1 0WF     -0.233000
     19 C13         0.9230    1.2410    2.3500 cy        1 0WF     -0.112500
     20 C14        -0.1360    1.8410    3.1450 cy        1 0WF     -0.014000
     21 C15        -0.9960    0.6900    2.8770 cy        1 0WF     -0.112500
     22 O2          0.2000    1.9610    4.4940 os        1 0WF     -0.193000
     23 C16        -0.6380    2.9260    5.1040 c1        1 0WF      0.070000
     24 C17        -0.0730    3.9870    5.7970 c1        1 0WF     -0.126250
     25 C18        -0.8690    4.8240    6.5460 c1        1 0WF     -0.126250
     26 C19        -2.2370    4.6080    6.6090 c1        1 0WF     -0.126250
     27 C20        -2.8020    3.5500    5.9190 c1        1 0WF     -0.126250
     28 C21        -2.0020    2.7100    5.1670 c1        1 0WF     -0.197000
     29 H3         -2.0700   -0.0310   -0.4040 hc        1 0WF      0.092000
     30 H4         -2.1550   -0.6740    1.0640 hc        1 0WF      0.092000
     31 H2         -2.2060    0.9140    0.8920 hc        1 0WF      0.092000
     32 H5         -0.0050    0.9830    0.2600 h1        1 0WF      0.103000
     33 H1          0.6120   -2.1940    1.5680 hn        1 0WF      0.265000
     34 H6          1.9140   -5.1300   -2.2880 DU        1 0WF      0.195000
     35 H7          0.1120   -0.8150   -4.1430 ha        1 0WF      0.123000
     36 H8          1.9450    0.0290   -5.2100 hc        1 0WF      0.099500
     37 H9          2.7650   -1.2540   -4.6320 hc        1 0WF      0.099500
     38 H10         2.4510   -0.8400   -7.0160 hc        1 0WF      0.085000
     39 H11         2.5450   -2.3250   -6.3890 hc        1 0WF      0.085000
     40 H12         0.4630   -2.4570   -7.5200 hc        1 0WF      0.085000
     41 H13         0.0780   -0.9270   -7.1820 hc        1 0WF      0.085000
     42 H15        -0.1180   -3.1790   -5.6550 hc        1 0WF      0.099500
     43 H14        -1.1000   -1.8610   -5.7230 hc        1 0WF      0.099500
     44 H17         1.6990    0.9990    2.8810 h1        1 0WF      0.113750
     45 H16         1.1380    1.7610    1.5630 h1        1 0WF      0.113750
     46 H18        -0.4790    2.6670    2.7540 h1        1 0WF      0.110000
     47 H19        -1.7800    0.9220    2.3710 h1        1 0WF      0.113750
     48 H20        -1.1890    0.1650    3.6840 h1        1 0WF      0.113750
     49 H21         0.8990    4.1420    5.7530 ha        1 0WF      0.138750
     50 H22        -0.4650    5.5790    7.0400 ha        1 0WF      0.138750
     51 H23        -2.8200    5.2210    7.1570 ha        1 0WF      0.138750
     52 H24        -3.7760    3.3950    5.9640 ha        1 0WF      0.138750
     53 H25        -2.4030    1.9600    4.6780 ha        1 0WF      0.134000
@<TRIPOS>BOND
     1    1    2 1   
     2    1   29 1   
     3    1   30 1   
     4    1   31 1   
     5    2    3 1   
     6    2   18 1   
     7    2   32 1   
     8    3    4 1   
     9    3   12 1   
    10    4    5 1   
    11    4   33 1   
    12    5    6 1   
    13    5    7 1   
    14    7    8 1   
    15    7   11 1   
    16    8    9 1   
    17    9   10 1   
    18   10   11 1   
    19   13   14 1   
    20   13   17 1   
    21   13   35 1   
    22   14   15 1   
    23   14   36 1   
    24   14   37 1   
    25   15   16 1   
    26   15   38 1   
    27   15   39 1   
    28   16   17 1   
    29   16   40 1   
    30   16   41 1   
    31   17   42 1   
    32   17   43 1   
    33   18   19 1   
    34   18   21 1   
    35   19   20 1   
    36   19   44 1   
    37   19   45 1   
    38   20   21 1   
    39   20   22 1   
    40   20   46 1   
    41   21   47 1   
    42   21   48 1   
    43   22   23 1   
    44   23   28 1   
    45   24   25 1   
    46   24   49 1   
    47   25   50 1   
    48   26   27 1   
    49   26   51 1   
    50   27   52 1   
    51   28   53 1   
@<TRIPOS>SUBSTRUCTURE
     1 0WF         1 TEMP              0 ****  ****    0 ROOT
