@<TRIPOS>MOLECULE
0WF
   53    57     1     0     0
SMALL
bcc


@<TRIPOS>ATOM
      1 C1          1.9100   -1.2820    2.1570 c3        1 0WF     -0.089100
      2 C2          3.0850   -0.5880    1.4740 c3        1 0WF      0.148200
      3 C3          3.8220   -1.5630    0.5100 cc        1 0WF      0.517900
      4 N1          4.6710   -0.9530   -0.4150 n         1 0WF     -0.492400
      5 C4          5.4310   -1.6940   -1.3590 c         1 0WF      0.750100
      6 O1          6.1740   -1.0710   -2.1360 o         1 0WF     -0.626500
      7 C5          5.2220   -3.1170   -1.2830 cc        1 0WF     -0.375900
      8 C6          5.7190   -4.2680   -1.9860 cc        1 0WF      0.378200
      9 N2          5.1720   -5.3920   -1.4680 nd        1 0WF     -0.509800
     10 N3          4.3390   -5.0430   -0.4640 na        1 0WF      0.112400
     11 C7          4.3240   -3.6510   -0.2920 cd        1 0WF      0.176100
     12 N4          3.6160   -2.8720    0.6190 nd        1 0WF     -0.616100
     13 C8          3.5870   -5.9950    0.3450 c3        1 0WF      0.070000
     14 C9          2.6110   -6.8800   -0.4580 c3        1 0WF     -0.091900
     15 C10         2.4530   -8.1590    0.3510 c3        1 0WF     -0.079400
     16 C11         3.6050   -8.2240    1.3460 c3        1 0WF     -0.079400
     17 C12         4.4640   -6.9840    1.1430 c3        1 0WF     -0.091900
     18 N5          4.0770   -0.0450    2.3880 n3        1 0WF     -0.715600
     19 C13         4.7470    1.2110    1.9760 cy        1 0WF      0.127300
     20 C14         4.4170    1.8420    3.3630 cy        1 0WF      0.100100
     21 C15         3.6220    0.5360    3.6700 cy        1 0WF      0.127300
     22 O2          3.5070    2.9260    3.3000 os        1 0WF     -0.324900
     23 C16         4.0760    4.1890    3.2280 ca        1 0WF      0.112100
     24 C17         3.2360    5.2470    3.6140 ca        1 0WF     -0.171000
     25 C18         3.7130    6.5510    3.5230 ca        1 0WF     -0.099500
     26 C19         5.0080    6.8030    3.0630 ca        1 0WF     -0.155000
     27 C20         5.8320    5.7450    2.6840 ca        1 0WF     -0.099500
     28 C21         5.3730    4.4300    2.7600 ca        1 0WF     -0.171000
     29 H3          1.2760   -1.7850    1.3870 hc        1 0WF      0.054700
     30 H4          1.2780   -0.5300    2.6880 hc        1 0WF      0.054700
     31 H2          2.2570   -2.0480    2.8910 hc        1 0WF      0.054700
     32 H5          2.6420    0.2250    0.8120 h1        1 0WF      0.044700
     33 H1          4.8000    0.0340   -0.3830 hn        1 0WF      0.333500
     34 H6          6.4290   -4.2890   -2.8160 h4        1 0WF      0.058100
     35 H7          2.9880   -5.3790    1.0790 h1        1 0WF      0.085700
     36 H8          1.6340   -6.3560   -0.5920 hc        1 0WF      0.060450
     37 H9          3.0150   -7.1160   -1.4750 hc        1 0WF      0.060450
     38 H10         1.4730   -8.1600    0.8920 hc        1 0WF      0.045200
     39 H11         2.4610   -9.0500   -0.3240 hc        1 0WF      0.045200
     40 H12         3.2120   -8.2580    2.3940 hc        1 0WF      0.045200
     41 H13         4.2150   -9.1490    1.1900 hc        1 0WF      0.045200
     42 H15         5.3950   -7.2490    0.5820 hc        1 0WF      0.060450
     43 H14         4.7690   -6.5320    2.1180 hc        1 0WF      0.060450
     44 H17         5.8330    1.0400    1.7870 h1        1 0WF      0.071450
     45 H16         4.2840    1.7590    1.1190 h1        1 0WF      0.071450
     46 H18         5.2870    2.0580    4.0200 h1        1 0WF      0.081700
     47 H19         4.0190   -0.0510    4.5320 h1        1 0WF      0.071450
     48 H20         2.5250    0.7050    3.7840 h1        1 0WF      0.071450
     49 H21         2.2200    5.0330    3.9730 ha        1 0WF      0.143500
     50 H22         3.0640    7.3890    3.8200 ha        1 0WF      0.135500
     51 H23         5.3760    7.8370    3.0000 ha        1 0WF      0.136000
     52 H24         6.8500    5.9440    2.3190 ha        1 0WF      0.135500
     53 H25         6.0200    3.5980    2.4480 ha        1 0WF      0.143500
@<TRIPOS>BOND
     1    1    2 1   
     2    1   29 1   
     3    1   30 1   
     4    1   31 1   
     5    2    3 1   
     6    2   18 1   
     7    2   32 1   
     8    3    4 1   
     9    3   12 2   
    10    4    5 1   
    11    4   33 1   
    12    5    6 2   
    13    5    7 1   
    14    7    8 1   
    15    7   11 2   
    16    8    9 2   
    17    8   34 1   
    18    9   10 1   
    19   10   11 1   
    20   10   13 1   
    21   11   12 1   
    22   13   14 1   
    23   13   17 1   
    24   13   35 1   
    25   14   15 1   
    26   14   36 1   
    27   14   37 1   
    28   15   16 1   
    29   15   38 1   
    30   15   39 1   
    31   16   17 1   
    32   16   40 1   
    33   16   41 1   
    34   17   42 1   
    35   17   43 1   
    36   18   19 1   
    37   18   21 1   
    38   19   20 1   
    39   19   44 1   
    40   19   45 1   
    41   20   21 1   
    42   20   22 1   
    43   20   46 1   
    44   21   47 1   
    45   21   48 1   
    46   22   23 1   
    47   23   24 ar  
    48   23   28 ar  
    49   24   25 ar  
    50   24   49 1   
    51   25   26 ar  
    52   25   50 1   
    53   26   27 ar  
    54   26   51 1   
    55   27   28 ar  
    56   27   52 1   
    57   28   53 1   
@<TRIPOS>SUBSTRUCTURE
     1 0WF         1 TEMP              0 ****  ****    0 ROOT
