@<TRIPOS>MOLECULE
0WF
   53    57     1     0     0
SMALL
bcc


@<TRIPOS>ATOM
      1 C1          1.8670   -1.2380    2.0440 c3        1 0WF     -0.089100
      2 C2          3.0910   -0.5690    1.4240 c3        1 0WF      0.148200
      3 C3          3.8590   -1.5620    0.5030 cc        1 0WF      0.517900
      4 N1          4.7670   -0.9720   -0.3770 ns        1 0WF     -0.492400
      5 C4          5.5610   -1.7310   -1.2780 c         1 0WF      0.750100
      6 O1          6.3570   -1.1250   -2.0160 o         1 0WF     -0.626500
      7 C5          5.3210   -3.1500   -1.2090 cc        1 0WF     -0.375900
      8 C6          5.8320   -4.3120   -1.8820 cc        1 0WF      0.378200
      9 N2          5.2370   -5.4240   -1.3900 nd        1 0WF     -0.509800
     10 N3          4.3580   -5.0550   -0.4320 na        1 0WF      0.112400
     11 C7          4.3620   -3.6620   -0.2660 cd        1 0WF      0.176100
     12 N4          3.6220   -2.8670    0.6040 nd        1 0WF     -0.616100
     13 C8          3.5470   -5.9890    0.3390 c3        1 0WF      0.070000
     14 C9          2.6000   -6.8610   -0.5120 c3        1 0WF     -0.091900
     15 C10         2.3760   -8.1330    0.2930 c3        1 0WF     -0.079400
     16 C11         3.4720   -8.2130    1.3490 c3        1 0WF     -0.079400
     17 C12         4.3620   -6.9900    1.1860 c3        1 0WF     -0.091900
     18 N5          4.0430   -0.0440    2.3890 n3        1 0WF     -0.715600
     19 C13         4.7630    1.1950    2.0110 cy        1 0WF      0.127300
     20 C14         4.3710    1.8390    3.3750 cy        1 0WF      0.100100
     21 C15         3.5310    0.5520    3.6420 cy        1 0WF      0.127300
     22 O2          3.4910    2.9430    3.2590 os        1 0WF     -0.324900
     23 C16         4.0910    4.1920    3.2130 ca        1 0WF      0.112100
     24 C17         3.2550    5.2710    3.5480 ca        1 0WF     -0.171000
     25 C18         3.7650    6.5640    3.4790 ca        1 0WF     -0.099500
     26 C19         5.0890    6.7840    3.0910 ca        1 0WF     -0.155000
     27 C20         5.9090    5.7060    2.7620 ca        1 0WF     -0.099500
     28 C21         5.4170    4.4020    2.8170 ca        1 0WF     -0.171000
     29 H3          1.2230   -0.4710    2.5390 hc        1 0WF      0.054700
     30 H4          1.2660   -1.7300    1.2420 hc        1 0WF      0.054700
     31 H2          2.1580   -2.0080    2.7970 hc        1 0WF      0.054700
     32 H5          2.7010    0.2500    0.7380 h1        1 0WF      0.044700
     33 H1          4.9130    0.0120   -0.3410 hn        1 0WF      0.333500
     34 H6          6.5840   -4.3500   -2.6730 h4        1 0WF      0.058100
     35 H7          2.9210   -5.3590    1.0370 h1        1 0WF      0.085700
     36 H8          1.6410   -6.3200   -0.7000 hc        1 0WF      0.060450
     37 H9          3.0530   -7.1090   -1.5050 hc        1 0WF      0.060450
     38 H10         1.3680   -8.1140    0.7800 hc        1 0WF      0.045200
     39 H11         2.4030   -9.0270   -0.3780 hc        1 0WF      0.045200
     40 H12         4.0710   -9.1500    1.2280 hc        1 0WF      0.045200
     41 H13         3.0230   -8.2360    2.3730 hc        1 0WF      0.045200
     42 H15         4.6240   -6.5390    2.1740 hc        1 0WF      0.060450
     43 H14         5.3170   -7.2740    0.6770 hc        1 0WF      0.060450
     44 H17         4.3590    1.7490    1.1280 h1        1 0WF      0.071450
     45 H16         5.8530    0.9990    1.8830 h1        1 0WF      0.071450
     46 H18         5.2080    2.0380    4.0790 h1        1 0WF      0.081700
     47 H19         3.8660   -0.0390    4.5260 h1        1 0WF      0.071450
     48 H20         2.4330    0.7470    3.6950 h1        1 0WF      0.071450
     49 H21         2.2160    5.0820    3.8510 ha        1 0WF      0.143500
     50 H22         3.1190    7.4170    3.7360 ha        1 0WF      0.135500
     51 H23         5.4830    7.8100    3.0440 ha        1 0WF      0.136000
     52 H24         6.9500    5.8800    2.4530 ha        1 0WF      0.135500
     53 H25         6.0610    3.5540    2.5450 ha        1 0WF      0.143500
@<TRIPOS>BOND
     1    1    2 1   
     2    1   29 1   
     3    1   30 1   
     4    1   31 1   
     5    2    3 1   
     6    2   18 1   
     7    2   32 1   
     8    3    4 1   
     9    3   12 2   
    10    4    5 1   
    11    4   33 1   
    12    5    6 2   
    13    5    7 1   
    14    7    8 1   
    15    7   11 2   
    16    8    9 2   
    17    8   34 1   
    18    9   10 1   
    19   10   11 1   
    20   10   13 1   
    21   11   12 1   
    22   13   14 1   
    23   13   17 1   
    24   13   35 1   
    25   14   15 1   
    26   14   36 1   
    27   14   37 1   
    28   15   16 1   
    29   15   38 1   
    30   15   39 1   
    31   16   17 1   
    32   16   40 1   
    33   16   41 1   
    34   17   42 1   
    35   17   43 1   
    36   18   19 1   
    37   18   21 1   
    38   19   20 1   
    39   19   44 1   
    40   19   45 1   
    41   20   21 1   
    42   20   22 1   
    43   20   46 1   
    44   21   47 1   
    45   21   48 1   
    46   22   23 1   
    47   23   24 ar  
    48   23   28 ar  
    49   24   25 ar  
    50   24   49 1   
    51   25   26 ar  
    52   25   50 1   
    53   26   27 ar  
    54   26   51 1   
    55   27   28 ar  
    56   27   52 1   
    57   28   53 1   
@<TRIPOS>SUBSTRUCTURE
     1 0WF         1 TEMP              0 ****  ****    0 ROOT
