@<TRIPOS>MOLECULE
0WF
   53    57     1     0     0
SMALL
bcc


@<TRIPOS>ATOM
      1 C1          0.3610    0.6860    2.1390 c3        1 0WF     -0.089100
      2 C2          0.6720    0.6530    0.6450 c3        1 0WF      0.148200
      3 C3         -0.5490    0.1280   -0.1650 cc        1 0WF      0.517900
      4 N1         -0.5070    0.3870   -1.5350 n         1 0WF     -0.492400
      5 C4         -1.5330   -0.0350   -2.4240 c         1 0WF      0.750100
      6 O1         -1.4070    0.2240   -3.6330 o         1 0WF     -0.626500
      7 C5         -2.6160   -0.7250   -1.7740 cc        1 0WF     -0.375900
      8 C6         -3.8520   -1.3260   -2.1960 cc        1 0WF      0.378200
      9 N2         -4.4900   -1.8580   -1.1270 nd        1 0WF     -0.509800
     10 N3         -3.7420   -1.6360   -0.0240 na        1 0WF      0.112400
     11 C7         -2.5670   -0.9440   -0.3520 cd        1 0WF      0.176100
     12 N4         -1.5250   -0.5180    0.4670 nd        1 0WF     -0.616100
     13 C8         -4.1030   -2.0880    1.3150 c3        1 0WF      0.070000
     14 C9         -5.4420   -1.5270    1.8360 c3        1 0WF     -0.091900
     15 C10        -5.9550   -2.5480    2.8400 c3        1 0WF     -0.079400
     16 C11        -5.1990   -3.8510    2.6040 c3        1 0WF     -0.079400
     17 C12        -4.2260   -3.6200    1.4570 c3        1 0WF     -0.091900
     18 N5          1.8180   -0.1650    0.2860 n3        1 0WF     -0.715600
     19 C13         2.6440    0.3040   -0.8510 cy        1 0WF      0.127300
     20 C14         3.9290    0.1550    0.0190 cy        1 0WF      0.100100
     21 C15         2.9790   -0.2060    1.2030 cy        1 0WF      0.127300
     22 O2          4.5730    1.3820    0.3100 os        1 0WF     -0.324900
     23 C16         5.5960    1.7470   -0.5530 ca        1 0WF      0.112100
     24 C17         6.5080    2.6840   -0.0390 ca        1 0WF     -0.171000
     25 C18         7.5360    3.1410   -0.8580 ca        1 0WF     -0.099500
     26 C19         7.6630    2.6700   -2.1670 ca        1 0WF     -0.155000
     27 C20         6.7530    1.7400   -2.6650 ca        1 0WF     -0.099500
     28 C21         5.7100    1.2720   -1.8650 ca        1 0WF     -0.171000
     29 H3          0.2820   -0.3430    2.5640 hc        1 0WF      0.054700
     30 H4          1.1620    1.2430    2.6830 hc        1 0WF      0.054700
     31 H2         -0.6060    1.2190    2.3060 hc        1 0WF      0.054700
     32 H5          0.8160    1.7340    0.3200 h1        1 0WF      0.044700
     33 H1          0.2940    0.8330   -1.9240 hn        1 0WF      0.333500
     34 H6         -4.2610   -1.3740   -3.2070 h4        1 0WF      0.058100
     35 H7         -3.2770   -1.7330    1.9990 h1        1 0WF      0.085700
     36 H8         -5.2850   -0.5280    2.3110 hc        1 0WF      0.060450
     37 H9         -6.1830   -1.3970    1.0060 hc        1 0WF      0.060450
     38 H10        -5.7870   -2.1860    3.8850 hc        1 0WF      0.045200
     39 H11        -7.0560   -2.6990    2.7140 hc        1 0WF      0.045200
     40 H12        -4.6470   -4.1520    3.5300 hc        1 0WF      0.045200
     41 H13        -5.9060   -4.6810    2.3540 hc        1 0WF      0.045200
     42 H15        -4.6200   -4.0880    0.5190 hc        1 0WF      0.060450
     43 H14        -3.2270   -4.0720    1.6690 hc        1 0WF      0.060450
     44 H17         2.5780   -0.4040   -1.7110 h1        1 0WF      0.071450
     45 H16         2.4610    1.3510   -1.1940 h1        1 0WF      0.071450
     46 H18         4.6440   -0.6340   -0.2980 h1        1 0WF      0.081700
     47 H19         2.9960    0.5470    2.0260 h1        1 0WF      0.071450
     48 H20         3.1230   -1.2350    1.6100 h1        1 0WF      0.071450
     49 H21         6.3940    3.0450    0.9920 ha        1 0WF      0.143500
     50 H22         8.2550    3.8770   -0.4670 ha        1 0WF      0.135500
     51 H23         8.4820    3.0340   -2.8040 ha        1 0WF      0.136000
     52 H24         6.8510    1.3710   -3.6970 ha        1 0WF      0.135500
     53 H25         4.9850    0.5490   -2.2640 ha        1 0WF      0.143500
@<TRIPOS>BOND
     1    1    2 1   
     2    1   29 1   
     3    1   30 1   
     4    1   31 1   
     5    2    3 1   
     6    2   18 1   
     7    2   32 1   
     8    3    4 1   
     9    3   12 2   
    10    4    5 1   
    11    4   33 1   
    12    5    6 2   
    13    5    7 1   
    14    7    8 1   
    15    7   11 2   
    16    8    9 2   
    17    8   34 1   
    18    9   10 1   
    19   10   11 1   
    20   10   13 1   
    21   11   12 1   
    22   13   14 1   
    23   13   17 1   
    24   13   35 1   
    25   14   15 1   
    26   14   36 1   
    27   14   37 1   
    28   15   16 1   
    29   15   38 1   
    30   15   39 1   
    31   16   17 1   
    32   16   40 1   
    33   16   41 1   
    34   17   42 1   
    35   17   43 1   
    36   18   19 1   
    37   18   21 1   
    38   19   20 1   
    39   19   44 1   
    40   19   45 1   
    41   20   21 1   
    42   20   22 1   
    43   20   46 1   
    44   21   47 1   
    45   21   48 1   
    46   22   23 1   
    47   23   24 ar  
    48   23   28 ar  
    49   24   25 ar  
    50   24   49 1   
    51   25   26 ar  
    52   25   50 1   
    53   26   27 ar  
    54   26   51 1   
    55   27   28 ar  
    56   27   52 1   
    57   28   53 1   
@<TRIPOS>SUBSTRUCTURE
     1 0WF         1 TEMP              0 ****  ****    0 ROOT
