@<TRIPOS>MOLECULE
0WF
   53    57     1     0     0
SMALL
bcc


@<TRIPOS>ATOM
      1 C1          1.9150   -1.2820    2.1630 c3        1 0WF     -0.089100
      2 C2          3.0870   -0.5890    1.4760 c3        1 0WF      0.148200
      3 C3          3.8230   -1.5650    0.5120 cc        1 0WF      0.517900
      4 N1          4.6690   -0.9570   -0.4150 n         1 0WF     -0.492400
      5 C4          5.4270   -1.7000   -1.3600 c         1 0WF      0.750100
      6 O1          6.1690   -1.0780   -2.1390 o         1 0WF     -0.626500
      7 C5          5.2190   -3.1230   -1.2810 cc        1 0WF     -0.375900
      8 C6          5.7150   -4.2740   -1.9830 cc        1 0WF      0.378200
      9 N2          5.1680   -5.3980   -1.4620 nd        1 0WF     -0.509800
     10 N3          4.3370   -5.0470   -0.4570 na        1 0WF      0.112400
     11 C7          4.3230   -3.6540   -0.2880 cd        1 0WF      0.176100
     12 N4          3.6160   -2.8740    0.6240 nd        1 0WF     -0.616100
     13 C8          3.5860   -5.9980    0.3550 c3        1 0WF      0.070000
     14 C9          2.6080   -6.8830   -0.4460 c3        1 0WF     -0.091900
     15 C10         2.4500   -8.1610    0.3650 c3        1 0WF     -0.079400
     16 C11         3.6050   -8.2260    1.3580 c3        1 0WF     -0.079400
     17 C12         4.4630   -6.9870    1.1510 c3        1 0WF     -0.091900
     18 N5          4.0810   -0.0420    2.3860 n3        1 0WF     -0.715600
     19 C13         4.7480    1.2130    1.9700 cy        1 0WF      0.127300
     20 C14         4.4210    1.8470    3.3560 cy        1 0WF      0.100100
     21 C15         3.6290    0.5400    3.6680 cy        1 0WF      0.127300
     22 O2          3.5100    2.9290    3.2940 os        1 0WF     -0.324900
     23 C16         4.0770    4.1930    3.2170 ca        1 0WF      0.112100
     24 C17         3.2360    5.2510    3.6020 ca        1 0WF     -0.171000
     25 C18         3.7110    6.5560    3.5070 ca        1 0WF     -0.099500
     26 C19         5.0050    6.8080    3.0450 ca        1 0WF     -0.155000
     27 C20         5.8300    5.7500    2.6670 ca        1 0WF     -0.099500
     28 C21         5.3730    4.4350    2.7470 ca        1 0WF     -0.171000
     29 H3          1.2830   -0.5290    2.6950 hc        1 0WF      0.054700
     30 H4          2.2640   -2.0460    2.8990 hc        1 0WF      0.054700
     31 H2          1.2790   -1.7870    1.3970 hc        1 0WF      0.054700
     32 H5          2.6410    0.2220    0.8140 h1        1 0WF      0.044700
     33 H1          4.7980    0.0300   -0.3850 hn        1 0WF      0.333500
     34 H6          6.4220   -4.2970   -2.8140 h4        1 0WF      0.058100
     35 H7          2.9890   -5.3800    1.0890 h1        1 0WF      0.085700
     36 H8          1.6300   -6.3580   -0.5790 hc        1 0WF      0.060450
     37 H9          3.0090   -7.1200   -1.4640 hc        1 0WF      0.060450
     38 H10         2.4560   -9.0530   -0.3100 hc        1 0WF      0.045200
     39 H11         1.4710   -8.1610    0.9070 hc        1 0WF      0.045200
     40 H12         4.2130   -9.1510    1.2010 hc        1 0WF      0.045200
     41 H13         3.2130   -8.2590    2.4060 hc        1 0WF      0.045200
     42 H15         4.7720   -6.5340    2.1250 hc        1 0WF      0.060450
     43 H14         5.3940   -7.2530    0.5890 hc        1 0WF      0.060450
     44 H17         4.2820    1.7590    1.1130 h1        1 0WF      0.071450
     45 H16         5.8340    1.0430    1.7790 h1        1 0WF      0.071450
     46 H18         5.2930    2.0640    4.0110 h1        1 0WF      0.081700
     47 H19         2.5320    0.7090    3.7850 h1        1 0WF      0.071450
     48 H20         4.0280   -0.0450    4.5300 h1        1 0WF      0.071450
     49 H21         2.2210    5.0360    3.9640 ha        1 0WF      0.143500
     50 H22         3.0610    7.3930    3.8030 ha        1 0WF      0.135500
     51 H23         5.3710    7.8420    2.9780 ha        1 0WF      0.136000
     52 H24         6.8470    5.9490    2.2990 ha        1 0WF      0.135500
     53 H25         6.0200    3.6020    2.4360 ha        1 0WF      0.143500
@<TRIPOS>BOND
     1    1    2 1   
     2    1   29 1   
     3    1   30 1   
     4    1   31 1   
     5    2    3 1   
     6    2   18 1   
     7    2   32 1   
     8    3    4 1   
     9    3   12 2   
    10    4    5 1   
    11    4   33 1   
    12    5    6 2   
    13    5    7 1   
    14    7    8 1   
    15    7   11 2   
    16    8    9 2   
    17    8   34 1   
    18    9   10 1   
    19   10   11 1   
    20   10   13 1   
    21   11   12 1   
    22   13   14 1   
    23   13   17 1   
    24   13   35 1   
    25   14   15 1   
    26   14   36 1   
    27   14   37 1   
    28   15   16 1   
    29   15   38 1   
    30   15   39 1   
    31   16   17 1   
    32   16   40 1   
    33   16   41 1   
    34   17   42 1   
    35   17   43 1   
    36   18   19 1   
    37   18   21 1   
    38   19   20 1   
    39   19   44 1   
    40   19   45 1   
    41   20   21 1   
    42   20   22 1   
    43   20   46 1   
    44   21   47 1   
    45   21   48 1   
    46   22   23 1   
    47   23   24 ar  
    48   23   28 ar  
    49   24   25 ar  
    50   24   49 1   
    51   25   26 ar  
    52   25   50 1   
    53   26   27 ar  
    54   26   51 1   
    55   27   28 ar  
    56   27   52 1   
    57   28   53 1   
@<TRIPOS>SUBSTRUCTURE
     1 0WF         1 TEMP              0 ****  ****    0 ROOT
