@<TRIPOS>MOLECULE
0WG
   42    44     1     0     0
SMALL
bcc


@<TRIPOS>ATOM
      1 C1         -0.0650    0.0570   -0.0310 c3        1 0WG      0.056300
      2 N2          1.3850   -0.0030   -0.0030 n         1 0WG     -0.395300
      3 C3          2.0790   -0.0280    1.1780 ca        1 0WG      0.654200
      4 N4          1.3790    0.0510    2.3680 nb        1 0WG     -0.735000
      5 C5          2.0640    0.0420    3.5190 ca        1 0WG      0.591200
      6 N6          1.1900    0.2020    4.7150 n4        1 0WG     -0.840300
      7 C7          3.4680   -0.0600    3.6410 ca        1 0WG     -0.349600
      8 C8          4.2060   -0.0090    4.9330 c3        1 0WG      0.184100
      9 N9          5.0500   -1.2190    5.1860 n4        1 0WG     -0.850600
     10 C10         4.2000   -0.0930    2.4150 cp        1 0WG      0.155000
     11 C11         5.6710   -0.0790    2.4790 cp        1 0WG     -0.133000
     12 C12         6.3850   -1.2770    2.3170 ca        1 0WG     -0.142000
     13 C13         7.7790   -1.2710    2.3100 ca        1 0WG     -0.097000
     14 C14         8.4720   -0.0680    2.4530 ca        1 0WG     -0.080000
     15 C15         7.7700    1.1290    2.6070 ca        1 0WG     -0.080000
     16 C16         6.3710    1.1330    2.6250 ca        1 0WG     -0.025900
     17 BR1         5.4720    2.7680    2.7930 br        1 0WG     -0.041100
     18 C18         3.5260   -0.1200    1.1970 ca        1 0WG     -0.259900
     19 C19         4.2440   -0.2300   -0.1060 c         1 0WG      0.718100
     20 O20         5.4580   -0.4600   -0.1830 o         1 0WG     -0.540500
     21 N21         3.4880   -0.0720   -1.2740 n         1 0WG     -0.469400
     22 C22         4.1550   -0.0990   -2.5660 c3        1 0WG      0.069300
     23 C23         2.0880    0.0250   -1.2700 c         1 0WG      0.806500
     24 O24         1.4220    0.1350   -2.3070 o         1 0WG     -0.519500
     25 H1         -0.4140    1.0130    0.4440 h1        1 0WG      0.091367
     26 H2         -0.4890   -0.8230    0.5230 h1        1 0WG      0.091367
     27 H3         -0.4270    0.0260   -1.0970 h1        1 0WG      0.091367
     28 H4          1.3010   -0.6020    5.3390 hn        1 0WG      0.482467
     29 H5          1.4430    1.0700    5.2010 hn        1 0WG      0.482467
     30 H6          3.5290    0.1010    5.8260 hx        1 0WG      0.112200
     31 H7          4.9100    0.8860    4.9170 hx        1 0WG      0.112200
     32 H8          4.4860   -2.0740    5.1650 hn        1 0WG      0.472800
     33 H9          5.7830   -1.2960    4.4560 hn        1 0WG      0.472800
     34 H11         5.8440   -2.2130    2.1050 ha        1 0WG      0.152000
     35 H12         8.3330   -2.2130    2.1540 ha        1 0WG      0.177000
     36 H13         9.5760   -0.0560    2.4180 ha        1 0WG      0.183000
     37 H14         8.3290    2.0790    2.6940 ha        1 0WG      0.187000
     38 H15         5.1970    0.3030   -2.4460 h1        1 0WG      0.088033
     39 H16         4.2010   -1.1560   -2.9420 h1        1 0WG      0.088033
     40 H17         3.5840    0.5350   -3.2960 h1        1 0WG      0.088033
     41 H63         0.1940    0.2630    4.4310 hn        1 0WG      0.482467
     42 H93         5.5050   -1.1380    6.1030 hn        1 0WG      0.472800
@<TRIPOS>BOND
     1    1    2 1   
     2    1   25 1   
     3    1   26 1   
     4    1   27 1   
     5    2    3 1   
     6    2   23 1   
     7    3    4 ar  
     8    3   18 ar  
     9    4    5 ar  
    10    5    6 1   
    11    5    7 ar  
    12    6   28 1   
    13    6   29 1   
    14    6   41 1   
    15    7    8 1   
    16    7   10 ar  
    17    8    9 1   
    18    8   30 1   
    19    8   31 1   
    20    9   32 1   
    21    9   33 1   
    22    9   42 1   
    23   10   11 1   
    24   10   18 ar  
    25   11   12 ar  
    26   11   16 ar  
    27   12   13 ar  
    28   12   34 1   
    29   13   14 ar  
    30   13   35 1   
    31   14   15 ar  
    32   14   36 1   
    33   15   16 ar  
    34   15   37 1   
    35   16   17 1   
    36   18   19 1   
    37   19   20 2   
    38   19   21 1   
    39   21   22 1   
    40   21   23 1   
    41   22   38 1   
    42   22   39 1   
    43   22   40 1   
    44   23   24 2   
@<TRIPOS>SUBSTRUCTURE
     1 0WG         1 TEMP              0 ****  ****    0 ROOT
