@<TRIPOS>MOLECULE
0WG
   40    35     1     0     0
SMALL
bcc


@<TRIPOS>ATOM
      1 C1         -3.9020    0.0020   -1.8330 c3        1 0WG     -0.068000
      2 N2         -2.5190   -0.0130   -1.8410 n         1 0WG     -0.259000
      3 C3         -1.8010   -0.0200   -0.6020 c2        1 0WG      0.217000
      4 N4         -2.5080   -0.0360    0.6250 n2        1 0WG     -0.262000
      5 C5         -1.8270   -0.0240    1.8110 c1        1 0WG      0.192000
      6 N6         -3.0780    0.0970    2.6100 n3        1 0WG     -0.334000
      7 C7         -0.4370    0.0040    1.8160 c1        1 0WG     -0.254000
      8 C8          0.0200    0.1840    3.2810 c3        1 0WG     -0.034000
      9 N9         -0.1750   -1.0160    3.9820 n3        1 0WG     -0.338000
     10 C10         0.2740    0.0200    0.5920 c1        1 0WG      0.129000
     11 C11         1.8110    0.0410    0.6600 c1        1 0WG     -0.022000
     12 C12         2.5170   -1.1440    0.7110 c1        1 0WG     -0.108000
     13 C13         3.9030   -1.1220    0.7430 c1        1 0WG     -0.108000
     14 C14         4.5690    0.0790    0.7220 c1        1 0WG     -0.108000
     15 C15         3.8570    1.2560    0.6710 c1        1 0WG     -0.108000
     16 C16         2.4750    1.2310    0.6400 c1        1 0WG     -0.142000
     17 BR1         1.5090    2.8520    0.6240 br        1 0WG      0.054000
     18 C18        -0.4160    0.0080   -0.6060 c1        1 0WG     -0.257000
     19 C19         0.3370    0.0530   -1.9270 c1        1 0WG      0.371000
     20 O20         1.5760    0.0460   -1.9370 o         1 0WG     -0.327000
     21 N21        -0.3500    0.0710   -3.0970 n2        1 0WG     -0.318000
     22 C22         0.3510    0.1350   -4.3230 c3        1 0WG     -0.074000
     23 C23        -1.8040   -0.0260   -3.0900 c2        1 0WG      0.406000
     24 O24        -2.4060   -0.0970   -4.1270 o         1 0WG     -0.362000
     25 H1         -4.2400   -0.0540   -2.7600 h1        1 0WG      0.103000
     26 H2         -4.2140    0.8350   -1.4180 h1        1 0WG      0.103000
     27 H3         -4.2230   -0.7310   -1.3370 h1        1 0WG      0.103000
     28 H4         -3.0350    0.3750    3.5200 hn        1 0WG      0.219000
     29 H5         -3.8720   -0.1770    2.2540 hn        1 0WG      0.219000
     30 H6          0.9020    0.4050    3.2960 h1        1 0WG      0.101500
     31 H7         -0.5310    0.9380    3.7250 h1        1 0WG      0.101500
     32 H8          0.3820   -1.6050    3.7000 hn        1 0WG      0.147000
     33 H9         -1.0200   -1.3090    3.8480 hn        1 0WG      0.147000
     34 H11         2.0710   -1.9430    0.7250 ha        1 0WG      0.141500
     35 H12         4.4570   -2.0420    0.7800 ha        1 0WG      0.141500
     36 H13         5.5420    0.1020    0.7460 ha        1 0WG      0.141500
     37 H14         4.3380    2.1300    0.6570 ha        1 0WG      0.141500
     38 H15         0.9910    0.8520   -4.2910 h1        1 0WG      0.101667
     39 H16        -0.3080    0.3020   -5.0840 h1        1 0WG      0.101667
     40 H17         0.7850   -0.6560   -4.4650 h1        1 0WG      0.101667
@<TRIPOS>BOND
     1    1    2 1   
     2    1   25 1   
     3    1   26 1   
     4    1   27 1   
     5    2    3 1   
     6    2   23 1   
     7    3    4 1   
     8    3   18 1   
     9    4    5 1   
    10    5    6 1   
    11    6   28 1   
    12    6   29 1   
    13    7    8 1   
    14    7   10 1   
    15    8    9 1   
    16    8   30 1   
    17    8   31 1   
    18    9   32 1   
    19    9   33 1   
    20   10   11 1   
    21   11   16 1   
    22   12   13 1   
    23   12   34 1   
    24   13   35 1   
    25   14   15 1   
    26   14   36 1   
    27   15   37 1   
    28   16   17 1   
    29   19   20 1   
    30   21   22 1   
    31   21   23 1   
    32   22   38 1   
    33   22   39 1   
    34   22   40 1   
    35   23   24 1   
@<TRIPOS>SUBSTRUCTURE
     1 0WG         1 TEMP              0 ****  ****    0 ROOT
