@<TRIPOS>MOLECULE
0WG
   41    43     1     0     0
SMALL
bcc


@<TRIPOS>ATOM
      1 C1         -0.0280   -0.0840    0.0710 c3        1 0WG      0.074300
      2 N2          1.4200   -0.0670    0.0300 n         1 0WG     -0.425300
      3 C3          2.1670   -0.0680    1.1990 ca        1 0WG      0.647200
      4 N4          1.4940   -0.0840    2.3960 nb        1 0WG     -0.760000
      5 C5          2.2050   -0.0700    3.5450 ca        1 0WG      0.688200
      6 N6          1.5180   -0.1690    4.7870 nh        1 0WG     -0.940500
      7 C7          3.6370   -0.0400    3.5650 ca        1 0WG     -0.382600
      8 C8          4.3630    0.0070    4.8570 c3        1 0WG      0.203100
      9 N9          4.2710   -1.3130    5.5720 n4        1 0WG     -0.844600
     10 C10         4.3290   -0.0220    2.3380 cp        1 0WG      0.167000
     11 C11         5.8020    0.0030    2.3580 cp        1 0WG     -0.074000
     12 C12         6.5060   -1.2040    2.2470 ca        1 0WG     -0.117000
     13 C13         7.8990   -1.2100    2.2600 ca        1 0WG     -0.107000
     14 C14         8.6000   -0.0100    2.3830 ca        1 0WG     -0.102000
     15 C15         7.9080    1.1950    2.4940 ca        1 0WG     -0.092000
     16 C16         6.5090    1.2100    2.4880 ca        1 0WG     -0.014900
     17 BR1         5.6190    2.8530    2.6270 br        1 0WG     -0.061100
     18 C18         3.6070   -0.0470    1.1390 ca        1 0WG     -0.316900
     19 C19         4.2810   -0.0390   -0.1790 c         1 0WG      0.727100
     20 O20         5.5130   -0.0730   -0.3220 o         1 0WG     -0.575500
     21 N21         3.4620   -0.0050   -1.3200 n         1 0WG     -0.481400
     22 C22         4.0640    0.0720   -2.6360 c3        1 0WG      0.074300
     23 C23         2.0580    0.0020   -1.2480 c         1 0WG      0.811500
     24 O24         1.3570    0.0540   -2.2750 o         1 0WG     -0.582500
     25 H1         -0.4390   -0.0940   -0.9750 h1        1 0WG      0.076700
     26 H2         -0.4030    0.8290    0.6050 h1        1 0WG      0.076700
     27 H3         -0.3770   -1.0040    0.6120 h1        1 0WG      0.076700
     28 H4          0.5420   -0.3840    4.6850 hn        1 0WG      0.407300
     29 H5          1.6340    0.6720    5.3240 hn        1 0WG      0.407300
     30 H6          5.4610    0.2310    4.7040 hx        1 0WG      0.111700
     31 H7          3.9350    0.7910    5.5480 hx        1 0WG      0.111700
     32 H8          4.7840   -1.2710    6.4560 hn        1 0WG      0.458133
     33 H9          3.2890   -1.5470    5.7610 hn        1 0WG      0.458133
     34 H11         5.9560   -2.1450    2.1010 ha        1 0WG      0.138000
     35 H12         8.4450   -2.1600    2.1500 ha        1 0WG      0.154000
     36 H13         9.7020   -0.0100    2.3760 ha        1 0WG      0.159000
     37 H14         8.4710    2.1400    2.5740 ha        1 0WG      0.166000
     38 H15         5.0880   -0.3870   -2.6000 h1        1 0WG      0.074700
     39 H16         4.1470    1.1470   -2.9490 h1        1 0WG      0.074700
     40 H17         3.4250   -0.4800   -3.3760 h1        1 0WG      0.074700
     41 H93         4.6710   -2.0500    4.9840 hn        1 0WG      0.458133
@<TRIPOS>BOND
     1    1    2 1   
     2    1   25 1   
     3    1   26 1   
     4    1   27 1   
     5    2    3 1   
     6    2   23 1   
     7    3    4 ar  
     8    3   18 ar  
     9    4    5 ar  
    10    5    6 1   
    11    5    7 ar  
    12    6   28 1   
    13    6   29 1   
    14    7    8 1   
    15    7   10 ar  
    16    8    9 1   
    17    8   30 1   
    18    8   31 1   
    19    9   32 1   
    20    9   33 1   
    21    9   41 1   
    22   10   11 1   
    23   10   18 ar  
    24   11   12 ar  
    25   11   16 ar  
    26   12   13 ar  
    27   12   34 1   
    28   13   14 ar  
    29   13   35 1   
    30   14   15 ar  
    31   14   36 1   
    32   15   16 ar  
    33   15   37 1   
    34   16   17 1   
    35   18   19 1   
    36   19   20 2   
    37   19   21 1   
    38   21   22 1   
    39   21   23 1   
    40   22   38 1   
    41   22   39 1   
    42   22   40 1   
    43   23   24 2   
@<TRIPOS>SUBSTRUCTURE
     1 0WG         1 TEMP              0 ****  ****    0 ROOT
