@<TRIPOS>MOLECULE
0WG
   41    43     1     0     0
SMALL
bcc


@<TRIPOS>ATOM
      1 C1         -0.0270   -0.0880    0.0690 c3        1 0WG      0.074300
      2 N2          1.4220   -0.0700    0.0280 n         1 0WG     -0.425300
      3 C3          2.1670   -0.0690    1.1980 ca        1 0WG      0.647200
      4 N4          1.4940   -0.0840    2.3940 nb        1 0WG     -0.760000
      5 C5          2.2050   -0.0690    3.5440 ca        1 0WG      0.688200
      6 N6          1.5170   -0.1660    4.7860 nv        1 0WG     -0.940500
      7 C7          3.6370   -0.0380    3.5640 ca        1 0WG     -0.382600
      8 C8          4.3620    0.0100    4.8560 c3        1 0WG      0.203100
      9 N9          4.2700   -1.3090    5.5730 nz        1 0WG     -0.844600
     10 C10         4.3290   -0.0210    2.3370 cp        1 0WG      0.167000
     11 C11         5.8020    0.0040    2.3590 cp        1 0WG     -0.074000
     12 C12         6.5070   -1.2030    2.2480 ca        1 0WG     -0.117000
     13 C13         7.9000   -1.2090    2.2620 ca        1 0WG     -0.107000
     14 C14         8.6000   -0.0090    2.3850 ca        1 0WG     -0.102000
     15 C15         7.9080    1.1960    2.4950 ca        1 0WG     -0.092000
     16 C16         6.5090    1.2110    2.4880 ca        1 0WG     -0.014900
     17 Br1         5.6180    2.8540    2.6250 br        1 0WG     -0.061100
     18 C18         3.6080   -0.0480    1.1390 ca        1 0WG     -0.316900
     19 C19         4.2820   -0.0410   -0.1790 c         1 0WG      0.727100
     20 O20         5.5140   -0.0750   -0.3220 o         1 0WG     -0.575500
     21 N21         3.4650   -0.0080   -1.3210 n         1 0WG     -0.481400
     22 C22         4.0670    0.0680   -2.6370 c3        1 0WG      0.074300
     23 C23         2.0610   -0.0020   -1.2500 c         1 0WG      0.811500
     24 O24         1.3600    0.0490   -2.2770 o         1 0WG     -0.582500
     25 H1         -0.4020    0.8260    0.6010 h1        1 0WG      0.076700
     26 H2         -0.4370   -0.0990   -0.9780 h1        1 0WG      0.076700
     27 H3         -0.3760   -1.0070    0.6110 h1        1 0WG      0.076700
     28 H4          0.5410   -0.3810    4.6830 hn        1 0WG      0.407300
     29 H5          1.6320    0.6750    5.3210 hn        1 0WG      0.407300
     30 H6          3.9330    0.7950    5.5460 hx        1 0WG      0.111700
     31 H7          5.4600    0.2340    4.7040 hx        1 0WG      0.111700
     32 H8          4.7820   -1.2660    6.4570 hn        1 0WG      0.458133
     33 H9          4.6700   -2.0470    4.9860 hn        1 0WG      0.458133
     34 H11         5.9560   -2.1450    2.1030 ha        1 0WG      0.138000
     35 H12         8.4450   -2.1600    2.1540 ha        1 0WG      0.154000
     36 H13         9.7020   -0.0090    2.3790 ha        1 0WG      0.159000
     37 H14         8.4710    2.1410    2.5740 ha        1 0WG      0.166000
     38 H15         5.0920   -0.3890   -2.6000 h1        1 0WG      0.074700
     39 H16         3.4290   -0.4880   -3.3750 h1        1 0WG      0.074700
     40 H17         4.1470    1.1420   -2.9520 h1        1 0WG      0.074700
     41 H93         3.2880   -1.5430    5.7610 hn        1 0WG      0.458133
@<TRIPOS>BOND
     1    1    2 1   
     2    1   25 1   
     3    1   26 1   
     4    1   27 1   
     5    2    3 1   
     6    2   23 1   
     7    3    4 ar  
     8    3   18 ar  
     9    4    5 ar  
    10    5    6 1   
    11    5    7 ar  
    12    6   28 1   
    13    6   29 1   
    14    7    8 1   
    15    7   10 ar  
    16    8    9 1   
    17    8   30 1   
    18    8   31 1   
    19    9   32 1   
    20    9   33 1   
    21    9   41 1   
    22   10   11 1   
    23   10   18 ar  
    24   11   12 ar  
    25   11   16 ar  
    26   12   13 ar  
    27   12   34 1   
    28   13   14 ar  
    29   13   35 1   
    30   14   15 ar  
    31   14   36 1   
    32   15   16 ar  
    33   15   37 1   
    34   16   17 1   
    35   18   19 1   
    36   19   20 2   
    37   19   21 1   
    38   21   22 1   
    39   21   23 1   
    40   22   38 1   
    41   22   39 1   
    42   22   40 1   
    43   23   24 2   
@<TRIPOS>SUBSTRUCTURE
     1 0WG         1 TEMP              0 ****  ****    0 ROOT
