@<TRIPOS>MOLECULE
0WG
   40    42     1     0     0
SMALL
bcc


@<TRIPOS>ATOM
      1 C1          4.4730    1.2580    0.3260 c3        1 0WG      0.088300
      2 N2          3.3630    0.3840    0.0240 n         1 0WG     -0.444300
      3 C3          2.0630    0.9000   -0.1040 ca        1 0WG      0.633200
      4 N4          1.8990    2.2440    0.0550 nb        1 0WG     -0.803000
      5 C5          0.6380    2.7640   -0.0390 ca        1 0WG      0.748200
      6 N6          0.4930    4.1140    0.2090 nh        1 0WG     -0.942500
      7 C7         -0.5120    1.9390   -0.3220 ca        1 0WG     -0.298600
      8 C8         -1.8750    2.5600   -0.3810 c3        1 0WG      0.207100
      9 N9         -2.0220    3.5120   -1.4630 n3        1 0WG     -0.930800
     10 C10        -0.3210    0.5710   -0.4990 cp        1 0WG      0.128000
     11 C11        -1.4840   -0.2850   -0.7960 cp        1 0WG     -0.017000
     12 C12        -1.8450   -0.4970   -2.1340 ca        1 0WG     -0.103000
     13 C13        -2.9510   -1.2820   -2.4510 ca        1 0WG     -0.115000
     14 C14        -3.7080   -1.8620   -1.4340 ca        1 0WG     -0.122000
     15 C15        -3.3580   -1.6580   -0.1010 ca        1 0WG     -0.103000
     16 C16        -2.2500   -0.8690    0.2250 ca        1 0WG     -0.001900
     17 BR1        -1.8200   -0.6260    2.0350 br        1 0WG     -0.082100
     18 C18         0.9760    0.0180   -0.4070 ca        1 0WG     -0.356900
     19 C19         1.2280   -1.4140   -0.6140 c         1 0WG      0.737100
     20 O20         0.3720   -2.2430   -0.9670 o         1 0WG     -0.608500
     21 N21         2.5450   -1.8740   -0.4000 n         1 0WG     -0.490400
     22 C22         2.8490   -3.2780   -0.5470 c3        1 0WG      0.081300
     23 C23         3.6080   -1.0050   -0.0970 c         1 0WG      0.814500
     24 O24         4.7680   -1.4480    0.0620 o         1 0WG     -0.640500
     25 H1          4.2960    1.7730    1.3070 h1        1 0WG      0.063033
     26 H2          5.4230    0.6620    0.3880 h1        1 0WG      0.063033
     27 H3          4.5750    2.0300   -0.4830 h1        1 0WG      0.063033
     28 H4          1.3090    4.6760    0.2820 hn        1 0WG      0.442300
     29 H5         -0.3380    4.5590   -0.0980 hn        1 0WG      0.442300
     30 H6         -2.6520    1.7390   -0.4310 h1        1 0WG      0.046200
     31 H7         -2.0670    3.1150    0.5850 h1        1 0WG      0.046200
     32 H8         -1.7350    3.1130   -2.3350 hn        1 0WG      0.354800
     33 H9         -2.9770    3.8040   -1.5350 hn        1 0WG      0.354800
     34 H11        -1.2360   -0.0540   -2.9360 ha        1 0WG      0.140000
     35 H12        -3.2200   -1.4500   -3.5050 ha        1 0WG      0.137000
     36 H13        -4.5790   -2.4870   -1.6810 ha        1 0WG      0.138000
     37 H14        -3.9570   -2.1260    0.6960 ha        1 0WG      0.147000
     38 H15         3.6560   -3.5680    0.1760 h1        1 0WG      0.061700
     39 H16         1.9220   -3.8790   -0.3460 h1        1 0WG      0.061700
     40 H17         3.2030   -3.4820   -1.5930 h1        1 0WG      0.061700
@<TRIPOS>BOND
     1    1    2 1   
     2    1   25 1   
     3    1   26 1   
     4    1   27 1   
     5    2    3 1   
     6    2   23 1   
     7    3    4 ar  
     8    3   18 ar  
     9    4    5 ar  
    10    5    6 1   
    11    5    7 ar  
    12    6   28 1   
    13    6   29 1   
    14    7    8 1   
    15    7   10 ar  
    16    8    9 1   
    17    8   30 1   
    18    8   31 1   
    19    9   32 1   
    20    9   33 1   
    21   10   11 1   
    22   10   18 ar  
    23   11   12 ar  
    24   11   16 ar  
    25   12   13 ar  
    26   12   34 1   
    27   13   14 ar  
    28   13   35 1   
    29   14   15 ar  
    30   14   36 1   
    31   15   16 ar  
    32   15   37 1   
    33   16   17 1   
    34   18   19 1   
    35   19   20 2   
    36   19   21 1   
    37   21   22 1   
    38   21   23 1   
    39   22   38 1   
    40   22   39 1   
    41   22   40 1   
    42   23   24 2   
@<TRIPOS>SUBSTRUCTURE
     1 0WG         1 TEMP              0 ****  ****    0 ROOT
