@<TRIPOS>MOLECULE
0WH
   53    57     1     0     0
SMALL
bcc


@<TRIPOS>ATOM
      1 C           6.1910   -1.1370    0.0240 ca        1 0WH      0.469800
      2 F          -6.8890   -3.1080   -0.1980 f         1 0WH     -0.237967
      3 N           6.9290   -2.2690    0.2590 nb        1 0WH     -0.737000
      4 O          -2.9760    3.1000   -0.0960 o         1 0WH     -0.587100
      5 C01         7.9850    0.4790   -0.6880 c3        1 0WH      0.029600
      6 F01        -5.9660   -2.5090    1.6680 f         1 0WH     -0.237967
      7 N01         6.6410    0.1340   -0.3590 na        1 0WH     -0.162100
      8 C02         5.5240    0.9700   -0.4790 cc        1 0WH     -0.107100
      9 F02        -4.7790   -3.4740    0.1350 f         1 0WH     -0.237967
     10 N02        -0.7560    2.6830   -0.1530 n         1 0WH     -0.373000
     11 C03         4.3530    0.2740   -0.1640 cd        1 0WH     -0.057400
     12 N03         2.7110   -2.3060    0.7150 nh        1 0WH     -0.946500
     13 C04         3.0210    0.8360   -0.1880 ca        1 0WH     -0.049800
     14 N04         4.8300   -3.3990    0.8510 nb        1 0WH     -0.790000
     15 C05         2.0180    0.2700   -0.9790 ca        1 0WH     -0.099000
     16 C06         0.7280    0.8090   -1.0320 ca        1 0WH     -0.170000
     17 C07         0.4350    1.9340   -0.2610 ca        1 0WH      0.058600
     18 C08        -0.5020    3.8730    0.6770 c3        1 0WH      0.085000
     19 C09         0.9560    3.7700    1.1880 c3        1 0WH     -0.045100
     20 C10         1.4740    2.5370    0.5220 ca        1 0WH     -0.128300
     21 C11         2.7410    1.9980    0.5620 ca        1 0WH     -0.081000
     22 C13        -2.3580    0.9300   -0.9860 c3        1 0WH     -0.101100
     23 C14        -3.7840    0.5160   -0.8780 ca        1 0WH     -0.088300
     24 C15        -4.8160    1.3430   -1.3370 ca        1 0WH     -0.068000
     25 C16        -6.1420    0.9180   -1.2710 ca        1 0WH     -0.135000
     26 C17        -6.4530   -0.3360   -0.7470 ca        1 0WH     -0.076000
     27 C18        -5.4250   -1.1590   -0.2850 ca        1 0WH     -0.171300
     28 C19        -4.0950   -0.7400   -0.3450 ca        1 0WH     -0.077000
     29 C20        -5.7550   -2.5220    0.3100 c3        1 0WH      0.688200
     30 C21         4.7450   -1.0740    0.1680 ca        1 0WH     -0.361400
     31 C22         4.0900   -2.2710    0.6010 ca        1 0WH      0.725200
     32 C23         6.1760   -3.3170    0.6530 ca        1 0WH      0.679900
     33 H01         8.2140    0.1920   -1.7510 h1        1 0WH      0.057700
     34 H01A        8.1260    1.5860   -0.5680 h1        1 0WH      0.057700
     35 H01B        8.6930   -0.0660   -0.0070 h1        1 0WH      0.057700
     36 H02         5.6450    2.0120   -0.7820 h4        1 0WH      0.173000
     37 HN03        2.2570   -1.4270    0.8000 hn        1 0WH      0.428800
     38 HN0A        2.2980   -3.0760    1.1860 hn        1 0WH      0.428800
     39 H05         2.2480   -0.6180   -1.5910 ha        1 0WH      0.152000
     40 H06        -0.0110    0.3480   -1.7010 ha        1 0WH      0.140000
     41 H08        -0.6460    4.7870    0.0420 h1        1 0WH      0.067200
     42 H09         1.5430    4.6730    0.8930 hc        1 0WH      0.066200
     43 H11         3.5320    2.4620    1.1690 ha        1 0WH      0.144000
     44 H13        -2.0760    0.9790   -2.0750 hc        1 0WH      0.081700
     45 H13A       -1.7080    0.1580   -0.4890 hc        1 0WH      0.081700
     46 H15        -4.5750    2.3460   -1.7280 ha        1 0WH      0.158000
     47 H16        -6.9480    1.5760   -1.6300 ha        1 0WH      0.145000
     48 H17        -7.4980   -0.6800   -0.6970 ha        1 0WH      0.152000
     49 H19        -3.2980   -1.4050    0.0240 ha        1 0WH      0.147000
     50 H23         6.7320   -4.2580    0.8560 h5        1 0WH      0.050100
     51 H191       -1.2360    3.9100    1.5260 h1        1 0WH      0.067200
     52 H20         0.9840    3.6780    2.3020 hc        1 0WH      0.066200
     53 C12        -2.0740    2.2880   -0.3750 c         1 0WH      0.669100
@<TRIPOS>BOND
     1    1    3 ar  
     2    1    7 1   
     3    1   30 ar  
     4    2   29 1   
     5    3   32 ar  
     6    4   53 2   
     7    5    7 1   
     8    5   33 1   
     9    5   34 1   
    10    5   35 1   
    11    6   29 1   
    12    7    8 1   
    13    8   11 2   
    14    8   36 1   
    15    9   29 1   
    16   10   17 1   
    17   10   18 1   
    18   10   53 1   
    19   11   13 1   
    20   11   30 1   
    21   12   31 1   
    22   12   37 1   
    23   12   38 1   
    24   13   15 ar  
    25   13   21 ar  
    26   14   31 ar  
    27   14   32 ar  
    28   15   16 ar  
    29   15   39 1   
    30   16   17 ar  
    31   16   40 1   
    32   17   20 ar  
    33   18   19 1   
    34   18   41 1   
    35   18   51 1   
    36   19   20 1   
    37   19   42 1   
    38   19   52 1   
    39   20   21 ar  
    40   21   43 1   
    41   22   23 1   
    42   22   44 1   
    43   22   45 1   
    44   22   53 1   
    45   23   24 ar  
    46   23   28 ar  
    47   24   25 ar  
    48   24   46 1   
    49   25   26 ar  
    50   25   47 1   
    51   26   27 ar  
    52   26   48 1   
    53   27   28 ar  
    54   27   29 1   
    55   28   49 1   
    56   30   31 ar  
    57   32   50 1   
@<TRIPOS>SUBSTRUCTURE
     1 0WH         1 TEMP              0 ****  ****    0 ROOT
