@<TRIPOS>MOLECULE
0WH
   53    55     1     0     0
SMALL
bcc


@<TRIPOS>ATOM
      1 C          -0.2160    0.6370    2.1170 c2        1 0WH      0.146000
      2 F          -1.8980   -0.2760    9.4730 f         1 0WH     -0.163667
      3 N           1.0120    0.7080    2.7120 n2        1 0WH     -0.262000
      4 O          -8.9170   -2.7810    4.7880 o         1 0WH     -0.360000
      5 C01         0.1370    1.9560   -0.0010 c3        1 0WH     -0.070000
      6 F01        -1.4920   -1.0750    7.4980 f         1 0WH     -0.163667
      7 N01        -0.6440    1.1690    0.8950 na        1 0WH     -0.162000
      8 C02        -2.0080    0.8650    0.7280 c2        1 0WH     -0.078000
      9 F02        -2.5730   -2.2720    8.9470 f         1 0WH     -0.163667
     10 N02        -7.6040   -1.8570    3.1940 ns        1 0WH     -0.318000
     11 C03        -2.4750    0.1220    1.8070 c2        1 0WH     -0.090000
     12 N03        -2.1810   -1.4380    4.5400 n8        1 0WH     -0.357000
     13 C04        -3.8200   -0.3650    2.0300 ca        1 0WH     -0.014000
     14 N04         0.0850   -0.5550    4.5380 n7        1 0WH     -0.228000
     15 C05        -4.1140   -1.7300    1.9050 ca        1 0WH     -0.110000
     16 C06        -5.3690   -2.2160    2.2510 ca        1 0WH     -0.149000
     17 C07        -6.3640   -1.3490    2.7500 ca        1 0WH      0.044000
     18 C08        -8.2930    1.1800    2.6000 c2        1 0WH     -0.205000
     19 C09        -7.1120    1.0140    3.1940 c2        1 0WH     -0.136000
     20 C10        -6.1020    0.0450    2.7770 ca        1 0WH     -0.071000
     21 C11        -4.8330    0.5140    2.4250 ca        1 0WH     -0.097000
     22 C13        -6.5890   -3.3480    4.9790 c3        1 0WH     -0.104000
     23 C14        -5.9610   -2.5000    6.0340 c2        1 0WH     -0.387000
     24 C15        -6.7770   -2.3000    7.2690 c3        1 0WH     -0.069000
     25 C16        -6.1470   -1.3830    8.2550 c2        1 0WH     -0.074000
     26 C17        -4.9480   -0.8910    8.1040 c1        1 0WH     -0.146000
     27 C18        -3.7680   -0.3730    7.9350 c2        1 0WH     -0.143000
     28 C19        -4.7460   -1.9950    5.8750 c1        1 0WH      0.161000
     29 C20        -2.4770   -0.9960    8.4580 c3        1 0WH      0.460000
     30 C21        -1.3610   -0.0500    2.7150 c2        1 0WH     -0.274000
     31 C22        -1.1790   -0.6870    3.9700 c2        1 0WH      0.226000
     32 C23         1.1320    0.1190    3.9040 c1        1 0WH     -0.046000
     33 H01        -0.1030    1.6700   -1.0600 h1        1 0WH      0.096333
     34 H01A       -0.0900    3.0480    0.1420 h1        1 0WH      0.096333
     35 H01B        1.2290    1.7830    0.1950 h1        1 0WH      0.096333
     36 H02        -2.5370    1.1990   -0.1660 h4        1 0WH      0.172000
     37 HN03       -3.0980   -1.3430    4.1630 hn        1 0WH      0.236000
     38 HN0A       -2.1270   -1.7050    5.4970 hn        1 0WH      0.236000
     39 H05        -3.3400   -2.4220    1.5390 ha        1 0WH      0.153000
     40 H06        -5.5820   -3.2900    2.1280 ha        1 0WH      0.144000
     41 H08        -8.4070   -1.3280    2.9150 hn        1 0WH      0.241000
     42 H09        -9.0130    1.9350    2.9440 ha        1 0WH      0.120500
     43 H11        -4.6250    1.5950    2.4780 ha        1 0WH      0.149000
     44 H13        -6.9930   -4.2840    5.4590 hc        1 0WH      0.124500
     45 H13A       -5.8310   -3.6570    4.2130 hc        1 0WH      0.124500
     46 H15        -6.9450   -3.2990    7.7620 hc        1 0WH      0.129000
     47 H16        -7.7890   -1.8990    6.9740 hc        1 0WH      0.129000
     48 H17        -6.7580   -1.1370    9.1430 ha        1 0WH      0.167000
     49 H19        -3.6020    0.5830    7.4090 ha        1 0WH      0.181000
     50 H23         0.2740   -0.9590    5.4290 hn        1 0WH      0.251000
     51 H191       -6.8130    1.6460    4.0500 ha        1 0WH      0.133000
     52 H20        -8.6180    0.5930    1.7300 ha        1 0WH      0.120500
     53 C12        -7.7660   -2.6360    4.3320 c2        1 0WH      0.303000
@<TRIPOS>BOND
     1    1    3 1   
     2    1    7 1   
     3    1   30 1   
     4    2   29 1   
     5    3   32 1   
     6    4   53 1   
     7    5    7 1   
     8    5   33 1   
     9    5   34 1   
    10    5   35 1   
    11    6   29 1   
    12    7    8 1   
    13    8   11 1   
    14    8   36 1   
    15    9   29 1   
    16   10   17 1   
    17   10   41 1   
    18   10   53 1   
    19   11   13 1   
    20   11   30 1   
    21   12   31 1   
    22   12   37 1   
    23   12   38 1   
    24   13   15 1   
    25   13   21 1   
    26   14   31 1   
    27   14   32 1   
    28   14   50 1   
    29   15   16 1   
    30   15   39 1   
    31   16   17 1   
    32   16   40 1   
    33   17   20 1   
    34   18   19 1   
    35   18   42 1   
    36   18   52 1   
    37   19   20 1   
    38   19   51 1   
    39   20   21 1   
    40   21   43 1   
    41   22   23 1   
    42   22   44 1   
    43   22   45 1   
    44   22   53 1   
    45   23   24 1   
    46   23   28 1   
    47   24   25 1   
    48   24   46 1   
    49   24   47 1   
    50   25   26 1   
    51   25   48 1   
    52   26   27 1   
    53   27   29 1   
    54   27   49 1   
    55   30   31 1   
@<TRIPOS>SUBSTRUCTURE
     1 0WH         1 TEMP              0 ****  ****    0 ROOT
