@<TRIPOS>MOLECULE
0WH
   54    55     1     0     0
SMALL
bcc


@<TRIPOS>ATOM
      1 C          -0.5540    0.0880    1.5100 c2        1 0WH      0.328000
      2 F          -2.9730    0.2650    8.6990 f         1 0WH     -0.165000
      3 N           0.5340   -0.5280    2.1140 n2        1 0WH     -0.380000
      4 O          -8.3580   -2.8780    5.4540 o         1 0WH     -0.331000
      5 C01         0.6610    0.1670   -0.6520 c3        1 0WH     -0.097000
      6 F01        -3.1390    0.7410    6.5900 f         1 0WH     -0.165000
      7 N01        -0.4570    0.4760    0.1920 n3        1 0WH     -0.297000
      8 C02        -2.8690    2.0230    0.9180 c1        1 0WH      0.276000
      9 F02        -2.0540   -1.0070    7.1840 f         1 0WH     -0.165000
     10 N02        -7.5450   -1.4090    3.9440 n         1 0WH     -0.332000
     11 C03        -2.9030    0.9600    1.7250 c2        1 0WH     -0.320000
     12 N03        -0.9680    0.5880    4.5740 n3        1 0WH     -0.309500
     13 C04        -4.2110    0.4290    2.1430 ca        1 0WH     -0.059000
     14 N04        -2.5770   -1.0720    4.0660 n3        1 0WH     -0.309500
     15 C05        -4.6470   -0.8230    1.6900 ca        1 0WH     -0.121000
     16 C06        -5.7770   -1.4090    2.2470 ca        1 0WH     -0.144000
     17 C07        -6.4970   -0.7530    3.2710 ca        1 0WH      0.067000
     18 C08        -8.2390    1.6340    4.4110 c2        1 0WH     -0.167000
     19 C09        -6.9360    1.3820    4.5380 c2        1 0WH     -0.171000
     20 C10        -6.1510    0.5820    3.6030 ca        1 0WH     -0.053000
     21 C11        -5.0000    1.1490    3.0430 ca        1 0WH     -0.094000
     22 C13        -6.0900   -3.3070    4.7920 c3        1 0WH     -0.146000
     23 C14        -5.3320   -3.1570    6.1070 c3        1 0WH     -0.164000
     24 C15        -6.1890   -3.4020    7.3070 c2        1 0WH     -0.062000
     25 C16        -5.9340   -2.7710    8.4760 c2        1 0WH     -0.259000
     26 C17        -4.8710   -1.8300    8.6150 c1        1 0WH      0.044000
     27 C18        -4.5200   -1.1270    7.3550 c3        1 0WH     -0.286000
     28 C19        -4.5030   -1.9500    6.1440 c1        1 0WH     -0.057000
     29 C20        -3.2000   -0.3080    7.4860 c3        1 0WH      0.459000
     30 C21        -1.7080    0.3260    2.2610 c2        1 0WH     -0.304000
     31 C22        -1.7640   -0.0640    3.6930 c2        1 0WH      0.360000
     32 C23         1.4820   -1.0660    2.5910 c1        1 0WH      0.278000
     33 H01         0.4900    0.6500   -1.6520 h1        1 0WH      0.107667
     34 H01A        0.7780   -0.9410   -0.7980 h1        1 0WH      0.107667
     35 H01B        1.6090    0.5800   -0.2130 h1        1 0WH      0.107667
     36 H02        -1.3080    0.7420   -0.2610 hn        1 0WH      0.260000
     37 HN03       -2.8140   -1.2830    5.0260 hn        1 0WH      0.275000
     38 HN0A       -1.0110    0.4160    5.5580 hn        1 0WH      0.275000
     39 H05        -4.0930   -1.3480    0.8960 ha        1 0WH      0.151000
     40 H06        -6.1120   -2.3950    1.8820 ha        1 0WH      0.160000
     41 H08        -8.3980   -0.8950    4.0500 hn        1 0WH      0.257000
     42 H09        -8.7790    2.2640    5.1330 ha        1 0WH      0.131500
     43 H11        -4.7110    2.1730    3.3350 ha        1 0WH      0.158000
     44 H13        -5.4050   -3.0340    3.9490 hc        1 0WH      0.129500
     45 H13A       -6.3810   -4.3880    4.6680 hc        1 0WH      0.129500
     46 H15        -4.5370   -3.9870    6.1020 hc        1 0WH      0.184000
     47 H16        -7.0010   -4.1400    7.1890 ha        1 0WH      0.182000
     48 H17        -6.5150   -2.9960    9.3890 ha        1 0WH      0.193000
     49 H19        -5.3490   -0.3510    7.1960 hc        1 0WH      0.228000
     50 H23        -3.1500   -1.4960    3.3650 hn        1 0WH      0.275000
     51 H191       -6.3530    1.8190    5.3690 ha        1 0WH      0.134000
     52 H20        -8.8510    1.2550    3.5800 ha        1 0WH      0.131500
     53 H033       -0.4040    1.3410    4.2500 hn        1 0WH      0.275000
     54 C12        -7.3860   -2.5180    4.7640 c2        1 0WH      0.294000
@<TRIPOS>BOND
     1    1    3 1   
     2    1    7 1   
     3    1   30 1   
     4    2   29 1   
     5    3   32 1   
     6    4   54 1   
     7    5    7 1   
     8    5   33 1   
     9    5   34 1   
    10    5   35 1   
    11    6   29 1   
    12    7   36 1   
    13    8   11 1   
    14    9   29 1   
    15   10   17 1   
    16   10   41 1   
    17   10   54 1   
    18   11   13 1   
    19   11   30 1   
    20   12   31 1   
    21   12   38 1   
    22   12   53 1   
    23   13   15 1   
    24   13   21 1   
    25   14   31 1   
    26   14   37 1   
    27   14   50 1   
    28   15   16 1   
    29   15   39 1   
    30   16   17 1   
    31   16   40 1   
    32   17   20 1   
    33   18   19 1   
    34   18   42 1   
    35   18   52 1   
    36   19   20 1   
    37   19   51 1   
    38   20   21 1   
    39   21   43 1   
    40   22   23 1   
    41   22   44 1   
    42   22   45 1   
    43   22   54 1   
    44   23   24 1   
    45   23   28 1   
    46   23   46 1   
    47   24   25 1   
    48   24   47 1   
    49   25   26 1   
    50   25   48 1   
    51   26   27 1   
    52   27   28 1   
    53   27   29 1   
    54   27   49 1   
    55   30   31 1   
@<TRIPOS>SUBSTRUCTURE
     1 0WH         1 TEMP              0 ****  ****    0 ROOT
