@<TRIPOS>MOLECULE
0WH
   53    55     1     0     0
SMALL
bcc


@<TRIPOS>ATOM
      1 C          -0.9550    0.3930   -0.4360 c2        1 0WH      0.007000
      2 F          -6.7760    0.3190   11.2330 f         1 0WH     -0.163333
      3 N          -0.0610    0.9860   -1.2400 n2        1 0WH     -0.221000
      4 O          -7.8470   -4.6520    4.2990 o         1 0WH     -0.358000
      5 C01        -2.7960   -0.3320   -1.9120 c3        1 0WH     -0.144000
      6 F01        -4.8960    0.3380   10.1530 f         1 0WH     -0.163333
      7 N01        -1.9030   -0.7040   -0.8000 n4        1 0WH      0.036000
      8 C02        -2.6780   -1.0000    0.4530 c1        1 0WH     -0.157000
      9 F02        -5.7880   -1.5500   10.7460 f         1 0WH     -0.163333
     10 N02        -6.1630   -3.4480    3.3860 n         1 0WH     -0.239000
     11 C03        -2.2420   -0.1620    1.4580 c2        1 0WH     -0.260000
     12 N03        -0.3360    1.9530    2.8820 n3        1 0WH     -0.364000
     13 C04        -2.7960   -0.1280    2.7950 c2        1 0WH      0.042000
     14 N04         0.5850    2.3000    0.6580 n3        1 0WH     -0.209000
     15 C05        -2.7520   -1.4160    3.5630 c3        1 0WH     -0.005000
     16 C06        -3.9800   -2.1480    3.4940 c1        1 0WH     -0.133000
     17 C07        -5.0090   -2.7630    3.4560 c1        1 0WH     -0.091000
     18 C08        -4.4120    2.1400    5.5710 cx        1 0WH     -0.157000
     19 C09        -4.3050    0.6690    5.7600 cu        1 0WH     -0.175000
     20 C10        -3.8680    1.1450    4.6030 cu        1 0WH     -0.134000
     21 C11        -3.3190    1.0080    3.3120 c2        1 0WH     -0.132000
     22 C13        -5.9950   -4.1830    5.7870 c3        1 0WH     -0.097000
     23 C14        -6.5080   -3.1510    6.7340 c2        1 0WH     -0.405000
     24 C15        -7.8870   -3.3870    7.2570 c3        1 0WH     -0.068000
     25 C16        -8.3940   -2.2760    8.1040 c2        1 0WH     -0.076000
     26 C17        -7.6300   -1.3030    8.5170 c1        1 0WH     -0.151000
     27 C18        -6.8560   -0.3290    8.8970 c2        1 0WH     -0.133000
     28 C19        -5.7630   -2.1100    7.0860 c1        1 0WH      0.192000
     29 C20        -6.0990   -0.3210   10.2220 c3        1 0WH      0.458000
     30 C21        -1.1680    0.7020    0.9560 c2        1 0WH     -0.188000
     31 C22        -0.3210    1.6800    1.5320 c2        1 0WH      0.181000
     32 C23         0.7010    1.9590   -0.6730 c1        1 0WH     -0.024000
     33 H01        -3.5110   -1.1790   -2.0870 hx        1 0WH      0.122000
     34 H01A       -3.3740    0.5860   -1.6310 hx        1 0WH      0.122000
     35 H01B       -2.1910   -0.1290   -2.8340 hx        1 0WH      0.122000
     36 H02        -1.3690   -1.5410   -1.0500 hn        1 0WH      0.243000
     37 HN03       -1.0690    1.5490    3.4210 hn        1 0WH      0.238500
     38 HN0A        0.0770    2.7880    3.2210 hn        1 0WH      0.238500
     39 H05        -2.5310   -1.1900    4.6480 hc        1 0WH      0.108500
     40 H06        -1.9150   -2.0570    3.1650 hc        1 0WH      0.108500
     41 H08        -6.6630   -3.4160    2.5210 hn        1 0WH      0.259000
     42 H09        -3.7290    2.8240    6.1090 hc        1 0WH      0.087500
     43 H11        -3.3490    1.9240    2.6920 ha        1 0WH      0.133000
     44 H13        -6.1820   -5.2050    6.2190 hc        1 0WH      0.124000
     45 H13A       -4.8880   -4.0690    5.6350 hc        1 0WH      0.124000
     46 H15        -7.8960   -4.3370    7.8620 hc        1 0WH      0.126500
     47 H16        -8.5820   -3.5420    6.3820 hc        1 0WH      0.126500
     48 H17        -9.4660   -2.3170    8.3670 ha        1 0WH      0.163000
     49 H19        -6.6960    0.5830    8.2970 ha        1 0WH      0.183000
     50 H23         1.2020    3.0050    1.0000 hn        1 0WH      0.255000
     51 H191       -4.5120   -0.1460    6.4280 ha        1 0WH      0.209000
     52 H20        -5.3960    2.6120    5.3920 hc        1 0WH      0.087500
     53 C12        -6.7370   -4.1120    4.4640 c2        1 0WH      0.314000
@<TRIPOS>BOND
     1    1    3 1   
     2    1    7 1   
     3    1   30 1   
     4    2   29 1   
     5    3   32 1   
     6    4   53 1   
     7    5    7 1   
     8    5   33 1   
     9    5   34 1   
    10    5   35 1   
    11    6   29 1   
    12    7    8 1   
    13    7   36 1   
    14    8   11 1   
    15    9   29 1   
    16   10   17 1   
    17   10   41 1   
    18   10   53 1   
    19   11   13 1   
    20   11   30 1   
    21   12   31 1   
    22   12   37 1   
    23   12   38 1   
    24   13   15 1   
    25   13   21 1   
    26   14   31 1   
    27   14   32 1   
    28   14   50 1   
    29   15   16 1   
    30   15   39 1   
    31   15   40 1   
    32   16   17 1   
    33   18   19 1   
    34   18   20 1   
    35   18   42 1   
    36   18   52 1   
    37   19   20 1   
    38   19   51 1   
    39   20   21 1   
    40   21   43 1   
    41   22   23 1   
    42   22   44 1   
    43   22   45 1   
    44   22   53 1   
    45   23   24 1   
    46   23   28 1   
    47   24   25 1   
    48   24   46 1   
    49   24   47 1   
    50   25   26 1   
    51   25   48 1   
    52   26   27 1   
    53   27   29 1   
    54   27   49 1   
    55   30   31 1   
@<TRIPOS>SUBSTRUCTURE
     1 0WH         1 TEMP              0 ****  ****    0 ROOT
