@<TRIPOS>MOLECULE
0WH
   53    48     1     0     0
SMALL
bcc


@<TRIPOS>ATOM
      1 C           4.6900    0.5650   -3.9680 c1        1 0WH      0.078000
      2 F          -6.7510   -3.5550    4.6480 f         1 0WH     -0.165000
      3 N           5.6840    0.4980   -4.9510 n1        1 0WH     -0.212000
      4 O          -1.2980   -1.2590    2.0280 o         1 0WH     -0.356000
      5 C01         5.8440    1.0530   -1.7440 c3        1 0WH     -0.069000
      6 F01        -6.7470   -2.1220    2.9680 f         1 0WH     -0.165000
      7 N01         4.7590    0.6730   -2.5600 n2        1 0WH     -0.146000
      8 C02         3.4850    0.5940   -2.0610 c1        1 0WH     -0.082000
      9 F02        -7.2170   -1.4590    5.0370 f         1 0WH     -0.165000
     10 N02        -1.1960    0.8010    1.1190 n         1 0WH     -0.276000
     11 C03         2.6170    0.4370   -3.1290 c1        1 0WH     -0.078000
     12 N03         2.0190   -0.1980   -6.6220 n3        1 0WH     -0.345000
     13 C04         1.4070    0.4820   -2.2090 c1        1 0WH     -0.044000
     14 N04         4.0090    0.1400   -6.6130 n1        1 0WH     -0.266000
     15 C05         1.0290   -0.7230   -1.6220 c2        1 0WH     -0.100000
     16 C06         0.1400   -0.7290   -0.5660 c1        1 0WH     -0.141000
     17 C07        -0.3870    0.4890   -0.0790 c2        1 0WH      0.066000
     18 C08        -1.5140    2.2320    1.0870 c3        1 0WH     -0.029000
     19 C09        -0.7660    2.8140    0.0290 c3        1 0WH     -0.123000
     20 C10        -0.0080    1.6970   -0.6680 c2        1 0WH     -0.130000
     21 C11         0.8820    1.7000   -1.7250 c2        1 0WH     -0.087000
     22 C12        -1.6180   -0.1400    2.1170 c2        1 0WH      0.319000
     23 C13        -2.2900    0.3600    3.3960 c3        1 0WH     -0.143000
     24 C14        -2.9880   -0.8050    4.0920 c2        1 0WH     -0.086000
     25 C15        -2.3050   -1.5750    4.9910 c2        1 0WH     -0.088000
     26 C16        -2.9850   -2.6140    5.7070 c1        1 0WH     -0.130000
     27 C17        -4.3050   -2.8340    5.4920 c2        1 0WH     -0.077000
     28 C18        -5.0150   -2.0370    4.5590 c1        1 0WH     -0.161000
     29 C19        -4.3660   -1.0370    3.8690 c1        1 0WH     -0.083000
     30 C20        -6.4690   -2.3040    4.3050 c3        1 0WH      0.466000
     31 C21         3.3840    0.4200   -4.3140 c1        1 0WH     -0.219000
     32 C22         3.0340    0.2040   -5.6570 c1        1 0WH      0.204000
     33 C23         5.3420    0.2880   -6.2580 c1        1 0WH      0.016000
     34 H01         6.4350    0.3230   -1.6470 h1        1 0WH      0.096000
     35 H01A        6.3050    1.7800   -2.1490 h1        1 0WH      0.096000
     36 H01B        5.5130    1.3240   -0.8660 h1        1 0WH      0.096000
     37 H02         3.2480    0.5420   -1.1300 DU        1 0WH      0.164667
     38 HN03        2.2520   -0.2790   -7.5710 hn        1 0WH      0.224000
     39 HN0A        1.1470   -0.2820   -6.3570 hn        1 0WH      0.224000
     40 H05         1.3110   -1.5950   -2.0420 ha        1 0WH      0.140000
     41 H06        -0.1310   -1.6000   -0.1460 DU        1 0WH      0.164667
     42 H08        -1.2600    2.6230    1.8950 h1        1 0WH      0.091500
     43 H09        -0.1510    3.4280    0.3870 hc        1 0WH      0.106500
     44 H11         1.1270    2.6020   -2.1980 ha        1 0WH      0.152000
     45 H13        -1.5790    0.7640    4.0220 hc        1 0WH      0.122500
     46 H13A       -2.9850    1.0780    3.1590 hc        1 0WH      0.122500
     47 H15        -1.3790   -1.4200    5.1430 ha        1 0WH      0.161000
     48 H16        -2.5320   -3.1250    6.3040 DU        1 0WH      0.164667
     49 H17        -4.7930   -3.5820    6.0060 ha        1 0WH      0.154000
     50 H19        -4.8900   -0.4530    3.1880 ha        1 0WH      0.149000
     51 H23         6.0970    0.2390   -7.0000 ha        1 0WH      0.186000
     52 H191       -2.4520    2.3430    0.9090 h1        1 0WH      0.091500
     53 H20        -1.3830    3.2340   -0.6050 hc        1 0WH      0.106500
@<TRIPOS>BOND
     1    1   31 1   
     2    2   30 1   
     3    3   33 1   
     4    4   22 1   
     5    5    7 1   
     6    5   34 1   
     7    5   35 1   
     8    5   36 1   
     9    6   30 1   
    10    7    8 1   
    11    8   11 1   
    12    9   30 1   
    13   10   17 1   
    14   10   18 1   
    15   10   22 1   
    16   11   31 1   
    17   12   32 1   
    18   12   38 1   
    19   12   39 1   
    20   13   15 1   
    21   13   21 1   
    22   14   32 1   
    23   15   16 1   
    24   15   40 1   
    25   16   17 1   
    26   17   20 1   
    27   18   19 1   
    28   18   42 1   
    29   18   52 1   
    30   19   20 1   
    31   19   43 1   
    32   19   53 1   
    33   20   21 1   
    34   21   44 1   
    35   22   23 1   
    36   23   24 1   
    37   23   45 1   
    38   23   46 1   
    39   24   25 1   
    40   24   29 1   
    41   25   26 1   
    42   25   47 1   
    43   26   27 1   
    44   27   28 1   
    45   27   49 1   
    46   28   30 1   
    47   29   50 1   
    48   33   51 1   
@<TRIPOS>SUBSTRUCTURE
     1 0WH         1 TEMP              0 ****  ****    0 ROOT
