@<TRIPOS>MOLECULE
0WK
   26    26     1     0     0
SMALL
bcc


@<TRIPOS>ATOM
      1 C1         -0.2720    0.1060   -1.9160 c3        1 0WK      0.108400
      2 C2          1.2420    0.1280   -1.9670 c3        1 0WK      0.097100
      3 C3          1.6760    0.1430   -0.5610 c3        1 0WK      0.149100
      4 C4          1.0720   -0.9210    0.2990 c3        1 0WK      0.037100
      5 C5         -0.4330   -0.9360    0.3370 c3        1 0WK      0.073100
      6 C6         -0.9350    0.2570    1.0160 c3        1 0WK      0.201400
      7 O2          1.7250   -1.0220   -2.6130 oh        1 0WK     -0.636800
      8 O3          1.3270    1.4560    0.0160 oh        1 0WK     -0.671800
      9 O4          1.5290   -2.2170   -0.1910 oh        1 0WK     -0.652800
     10 O5         -0.8580   -0.9390   -1.0600 os        1 0WK     -0.446600
     11 O6         -2.2900    0.0700    1.3520 os        1 0WK     -0.569200
     12 P          -2.9020    0.9400    2.5210 p5        1 0WK      1.327900
     13 O1P        -2.5760    2.3960    2.2890 o         1 0WK     -0.924500
     14 O2P        -2.3150    0.4960    3.8400 o         1 0WK     -0.924500
     15 O3P        -4.4010    0.7580    2.5510 o         1 0WK     -0.924500
     16 H1         -0.6070   -0.0200   -2.8260 h1        1 0WK      0.035700
     17 H2         -0.5800    0.9750   -1.5910 h1        1 0WK      0.035700
     18 H3          1.5540    0.9330   -2.4270 h1        1 0WK      0.051700
     19 H4          2.6460    0.0440   -0.5370 h1        1 0WK      0.027700
     20 H5          1.4010   -0.8020    1.2120 h1        1 0WK      0.179700
     21 H6         -0.7510   -1.7410    0.7880 h1        1 0WK      0.068700
     22 H7         -0.4140    0.4110    1.8310 h1        1 0WK      0.003200
     23 H8         -0.8490    1.0310    0.4220 h1        1 0WK      0.003200
     24 H9          2.1260   -0.7890   -3.3720 ho        1 0WK      0.425000
     25 H10         2.0620    1.9490    0.0970 ho        1 0WK      0.508000
     26 H11         1.8230   -2.7050    0.4920 ho        1 0WK      0.418000
@<TRIPOS>BOND
     1    1    2 1   
     2    1   10 1   
     3    1   16 1   
     4    1   17 1   
     5    2    3 1   
     6    2    7 1   
     7    2   18 1   
     8    3    4 1   
     9    3    8 1   
    10    3   19 1   
    11    4    5 1   
    12    4    9 1   
    13    4   20 1   
    14    5    6 1   
    15    5   10 1   
    16    5   21 1   
    17    6   11 1   
    18    6   22 1   
    19    6   23 1   
    20    7   24 1   
    21    8   25 1   
    22    9   26 1   
    23   11   12 1   
    24   12   13 1   
    25   12   14 1   
    26   12   15 1   
@<TRIPOS>SUBSTRUCTURE
     1 0WK         1 TEMP              0 ****  ****    0 ROOT
