@<TRIPOS>MOLECULE
0WK
   26    26     1     0     0
SMALL
bcc


@<TRIPOS>ATOM
      1 C1         -2.5210   -1.9180    0.1700 c3        1 0WK      0.118400
      2 C2         -3.4430   -0.7220    0.3900 c3        1 0WK      0.057100
      3 C3         -2.8630    0.5430   -0.2600 c3        1 0WK      0.103100
      4 C4         -1.3630    0.7490    0.0580 c3        1 0WK      0.179100
      5 C5         -0.5820   -0.5730   -0.0560 c3        1 0WK      0.047100
      6 C6          0.8460   -0.4670    0.5490 c3        1 0WK      0.242400
      7 O2         -4.7500   -0.9840   -0.1160 oh        1 0WK     -0.628800
      8 O3         -3.5710    1.6740    0.2320 oh        1 0WK     -0.581800
      9 O4         -0.8940    1.6620   -0.8980 oh        1 0WK     -0.688800
     10 O5         -1.2290   -1.6410    0.6600 os        1 0WK     -0.415600
     11 O6          1.7500   -0.2380   -0.4520 os        1 0WK     -0.564200
     12 P           2.7310    1.1750   -0.2030 p5        1 0WK      1.329900
     13 O1P         1.6270    2.2110   -0.1100 o         1 0WK     -0.916500
     14 O2P         3.3970    0.8660    1.1050 o         1 0WK     -0.916500
     15 O3P         3.5810    1.2160   -1.4350 o         1 0WK     -0.916500
     16 H1         -2.8790   -2.8050    0.7560 h1        1 0WK      0.022200
     17 H2         -2.4900   -2.1800   -0.9220 h1        1 0WK      0.022200
     18 H3         -3.6030   -0.5450    1.4890 h1        1 0WK      0.084700
     19 H4         -2.9930    0.4820   -1.3780 h1        1 0WK      0.030700
     20 H5         -1.2660    1.1680    1.0970 h1        1 0WK      0.045700
     21 H6         -0.5000   -0.8580   -1.1410 h1        1 0WK      0.051700
     22 H7          0.8650    0.3510    1.3220 h1        1 0WK      0.007700
     23 H8          1.0550   -1.4570    1.0540 h1        1 0WK      0.007700
     24 H9         -4.6550   -1.1290   -1.0640 ho        1 0WK      0.387000
     25 H10        -4.4980    1.5160    0.0160 ho        1 0WK      0.370000
     26 H11         0.0860    1.8370   -0.6960 ho        1 0WK      0.526000
@<TRIPOS>BOND
     1    1    2 1   
     2    1   10 1   
     3    1   16 1   
     4    1   17 1   
     5    2    3 1   
     6    2    7 1   
     7    2   18 1   
     8    3    4 1   
     9    3    8 1   
    10    3   19 1   
    11    4    5 1   
    12    4    9 1   
    13    4   20 1   
    14    5    6 1   
    15    5   10 1   
    16    5   21 1   
    17    6   11 1   
    18    6   22 1   
    19    6   23 1   
    20    7   24 1   
    21    8   25 1   
    22    9   26 1   
    23   11   12 1   
    24   12   13 1   
    25   12   14 1   
    26   12   15 1   
@<TRIPOS>SUBSTRUCTURE
     1 0WK         1 TEMP              0 ****  ****    0 ROOT
