@<TRIPOS>MOLECULE
0WK
   26    26     1     0     0
SMALL
bcc


@<TRIPOS>ATOM
      1 C1          0.2600   -0.0270   -0.1550 c3        1 0WK      0.110400
      2 C2          1.7380   -0.0850    0.2300 c3        1 0WK      0.058100
      3 C3          1.9290    0.2420    1.7210 c3        1 0WK      0.118100
      4 C4          1.1810    1.5470    2.0990 c3        1 0WK      0.172100
      5 C5         -0.2690    1.4690    1.5960 c3        1 0WK      0.044100
      6 C6         -1.0420    2.7970    1.8350 c3        1 0WK      0.236400
      7 O2          2.2860   -1.3850    0.0130 oh        1 0WK     -0.624800
      8 O3          3.3150    0.4360    1.9640 oh        1 0WK     -0.588800
      9 O4          1.2740    1.7110    3.4860 oh        1 0WK     -0.670800
     10 O5         -0.2870    1.2300    0.1760 os        1 0WK     -0.410600
     11 O6         -2.2570    2.5660    2.4170 os        1 0WK     -0.560200
     12 P          -2.2790    2.8730    4.1320 p5        1 0WK      1.326900
     13 O1P        -1.2650    1.8220    4.5430 o         1 0WK     -0.919500
     14 O2P        -1.7680    4.2830    4.1940 o         1 0WK     -0.919500
     15 O3P        -3.7020    2.6220    4.5220 o         1 0WK     -0.919500
     16 H1         -0.2990   -0.8560    0.3550 h1        1 0WK      0.024700
     17 H2          0.1370   -0.1210   -1.2670 h1        1 0WK      0.024700
     18 H3          2.3240    0.6530   -0.3870 h1        1 0WK      0.040700
     19 H4          1.5440   -0.6060    2.3500 h1        1 0WK      0.051700
     20 H5          1.7190    2.4070    1.6100 h1        1 0WK      0.026700
     21 H6         -0.8020    0.6280    2.1210 h1        1 0WK      0.083700
     22 H7         -0.4030    3.4650    2.4830 h1        1 0WK      0.011700
     23 H8         -1.1880    3.2840    0.8270 h1        1 0WK      0.011700
     24 H9          1.9460   -1.6880   -0.8350 ho        1 0WK      0.381000
     25 H10         3.7230   -0.4300    1.8530 ho        1 0WK      0.376000
     26 H11         0.3510    1.8020    3.8820 ho        1 0WK      0.520000
@<TRIPOS>BOND
     1    1    2 1   
     2    1   10 1   
     3    1   16 1   
     4    1   17 1   
     5    2    3 1   
     6    2    7 1   
     7    2   18 1   
     8    3    4 1   
     9    3    8 1   
    10    3   19 1   
    11    4    5 1   
    12    4    9 1   
    13    4   20 1   
    14    5    6 1   
    15    5   10 1   
    16    5   21 1   
    17    6   11 1   
    18    6   22 1   
    19    6   23 1   
    20    7   24 1   
    21    8   25 1   
    22    9   26 1   
    23   11   12 1   
    24   12   13 1   
    25   12   14 1   
    26   12   15 1   
@<TRIPOS>SUBSTRUCTURE
     1 0WK         1 TEMP              0 ****  ****    0 ROOT
