@<TRIPOS>MOLECULE
0WK
   26    26     1     0     0
SMALL
bcc


@<TRIPOS>ATOM
      1 C1          0.3040   -0.0820   -0.1200 c3        1 0WK      0.110400
      2 C2          1.7730   -0.1280    0.3010 c3        1 0WK      0.058100
      3 C3          1.9300    0.2410    1.7860 c3        1 0WK      0.118100
      4 C4          1.1740    1.5560    2.1090 c3        1 0WK      0.172100
      5 C5         -0.2650    1.4640    1.5750 c3        1 0WK      0.044100
      6 C6         -1.0420    2.7980    1.7570 c3        1 0WK      0.236400
      7 O2          2.3250   -1.4340    0.1350 oh        1 0WK     -0.624800
      8 O3          3.3100    0.4430    2.0560 oh        1 0WK     -0.588800
      9 O4          1.2340    1.7610    3.4920 oh        1 0WK     -0.670800
     10 O5         -0.2500    1.1840    0.1620 os        1 0WK     -0.410600
     11 O6         -2.2710    2.5840    2.3170 os        1 0WK     -0.560200
     12 P          -2.3320    2.9400    4.0210 p5        1 0WK      1.326900
     13 O1P        -1.3290    1.9020    4.4860 o         1 0WK     -0.919500
     14 O2P        -1.8230    4.3520    4.0540 o         1 0WK     -0.919500
     15 O3P        -3.7650    2.7000    4.3850 o         1 0WK     -0.919500
     16 H1          0.2070   -0.2080   -1.2310 h1        1 0WK      0.024700
     17 H2         -0.2670   -0.8960    0.4010 h1        1 0WK      0.024700
     18 H3          2.3730    0.5920   -0.3230 h1        1 0WK      0.040700
     19 H4          1.5290   -0.5880    2.4300 h1        1 0WK      0.051700
     20 H5          1.7230    2.4020    1.6070 h1        1 0WK      0.026700
     21 H6         -0.8100    0.6380    2.1110 h1        1 0WK      0.083700
     22 H7         -0.4180    3.4850    2.4000 h1        1 0WK      0.011700
     23 H8         -1.1640    3.2560    0.7320 h1        1 0WK      0.011700
     24 H9          2.0050   -1.7620   -0.7120 ho        1 0WK      0.381000
     25 H10         3.7190   -0.4260    1.9780 ho        1 0WK      0.376000
     26 H11         0.3020    1.8630    3.8640 ho        1 0WK      0.520000
@<TRIPOS>BOND
     1    1    2 1   
     2    1   10 1   
     3    1   16 1   
     4    1   17 1   
     5    2    3 1   
     6    2    7 1   
     7    2   18 1   
     8    3    4 1   
     9    3    8 1   
    10    3   19 1   
    11    4    5 1   
    12    4    9 1   
    13    4   20 1   
    14    5    6 1   
    15    5   10 1   
    16    5   21 1   
    17    6   11 1   
    18    6   22 1   
    19    6   23 1   
    20    7   24 1   
    21    8   25 1   
    22    9   26 1   
    23   11   12 1   
    24   12   13 1   
    25   12   14 1   
    26   12   15 1   
@<TRIPOS>SUBSTRUCTURE
     1 0WK         1 TEMP              0 ****  ****    0 ROOT
