@<TRIPOS>MOLECULE
0WL
   50    46     1     0     0
SMALL
bcc


@<TRIPOS>ATOM
      1 C1         -3.6710    5.6290   -3.4710 c1        1 0WL     -0.132500
      2 C2         -2.9830    4.8220   -4.3300 c1        1 0WL     -0.033000
      3 C3         -3.6930    5.3430   -2.1370 c1        1 0WL     -0.132500
      4 C4         -0.0590   -2.4410    3.8260 c1        1 0WL     -0.088000
      5 C5         -0.2840   -1.3570    3.0010 c1        1 0WL     -0.290000
      6 C6          0.4960   -1.5020    1.8970 c1        1 0WL      0.057000
      7 C7         -2.3520    3.4640   -2.5290 c1        1 0WL      0.031000
      8 C8         -1.1870   -0.1580    3.1330 c1        1 0WL      0.386000
      9 C9         -0.4030    0.6520    0.9660 c1        1 0WL      0.137000
     10 C10         2.9590   -5.5240    0.7290 c3        1 0WL     -0.158000
     11 C11         4.0780   -4.6890    1.4930 c3        1 0WL     -0.158000
     12 C12         1.8030   -4.8720    0.9780 c3        1 0WL     -0.170500
     13 C13         3.3780   -3.3280    1.9220 c3        1 0WL     -0.170500
     14 C14        -0.3030    2.0930   -2.4360 cy        1 0WL     -0.088000
     15 C15        -2.0050    1.1500   -1.7470 cy        1 0WL     -0.088000
     16 C16        -1.7150    2.1240   -2.7900 cv        1 0WL     -0.097000
     17 C17         2.2090   -3.3050    1.2460 c3        1 0WL      0.049000
     18 C18         0.9150    2.4580   -0.0820 c3        1 0WL     -0.205000
     19 C19        -0.4030    1.7180   -0.1070 c2        1 0WL      0.017000
     20 N20        -2.3290    3.7480   -3.8610 n2        1 0WL     -0.161000
     21 N21        -3.0380    4.2690   -1.6710 n1        1 0WL     -0.185000
     22 N22         0.8530   -3.2400    3.2260 n2        1 0WL     -0.077000
     23 N23         0.4590   -0.4960    0.8410 n1        1 0WL     -0.171000
     24 N24         1.2020   -2.6640    2.0290 n3        1 0WL     -0.099000
     25 N25        -1.2190    0.8060    2.1200 n2        1 0WL     -0.337000
     26 N26        -0.5810    1.1100   -1.3780 n3        1 0WL     -0.216000
     27 O27        -1.8650   -0.0140    4.1300 o         1 0WL     -0.352000
     28 H1         -4.1470    6.4110   -3.8110 ha        1 0WL      0.163000
     29 H2         -2.9670    5.0260   -5.2840 ha        1 0WL      0.169000
     30 H3         -4.1850    5.9200   -1.5220 ha        1 0WL      0.163000
     31 H4         -0.4830   -2.6030    4.6900 DU        1 0WL      0.194000
     32 H5          2.9170   -6.4370    1.0800 hc        1 0WL      0.084750
     33 H6          3.1420   -5.5360   -0.2330 hc        1 0WL      0.084750
     34 H7          4.3820   -5.1770    2.2840 hc        1 0WL      0.084750
     35 H8          4.8310   -4.5090    0.8960 hc        1 0WL      0.084750
     36 H9          1.3690   -5.2470    1.7720 hc        1 0WL      0.099750
     37 H10         1.2060   -4.9370    0.2040 hc        1 0WL      0.099750
     38 H11         3.9350   -2.5640    1.6660 hc        1 0WL      0.099750
     39 H12         3.2120   -3.3200    2.8880 hc        1 0WL      0.099750
     40 H13         0.0170    2.9470   -2.0820 h1        1 0WL      0.107250
     41 H14         0.2580    1.7310   -3.1500 h1        1 0WL      0.107250
     42 H15        -2.3270    0.2990   -2.1040 h1        1 0WL      0.107250
     43 H16        -2.5680    1.5150   -1.0360 h1        1 0WL      0.107250
     44 H17        -1.8870    1.7780   -3.6870 ha        1 0WL      0.140000
     45 H18         2.3220   -2.8360    0.3940 h1        1 0WL      0.128000
     46 H19         1.4020    2.2310    0.7380 hc        1 0WL      0.091667
     47 H20         0.7480    3.4230   -0.1060 hc        1 0WL      0.091667
     48 H21         1.4490    2.1990   -0.8620 hc        1 0WL      0.091667
     49 H22        -1.1330    2.3470    0.0590 h4        1 0WL      0.085000
     50 H23        -1.7520    1.5420    2.2070 hn        1 0WL      0.250000
@<TRIPOS>BOND
     1    1    3 1   
     2    1   28 1   
     3    2   20 1   
     4    2   29 1   
     5    3   30 1   
     6    4    5 1   
     7    4   22 1   
     8    5    6 1   
     9    6   24 1   
    10    7   20 1   
    11    7   21 1   
    12    8   27 1   
    13    9   23 1   
    14    9   25 1   
    15   10   11 1   
    16   10   12 1   
    17   10   32 1   
    18   10   33 1   
    19   11   13 1   
    20   11   34 1   
    21   11   35 1   
    22   12   17 1   
    23   12   36 1   
    24   12   37 1   
    25   13   17 1   
    26   13   38 1   
    27   13   39 1   
    28   14   16 1   
    29   14   26 1   
    30   14   40 1   
    31   14   41 1   
    32   15   16 1   
    33   15   26 1   
    34   15   42 1   
    35   15   43 1   
    36   16   44 1   
    37   17   24 1   
    38   17   45 1   
    39   18   19 1   
    40   18   46 1   
    41   18   47 1   
    42   18   48 1   
    43   19   26 1   
    44   19   49 1   
    45   22   24 1   
    46   25   50 1   
@<TRIPOS>SUBSTRUCTURE
     1 0WL         1 TEMP              0 ****  ****    0 ROOT
