@<TRIPOS>MOLECULE
0WL
   50    54     1     0     0
SMALL
bcc


@<TRIPOS>ATOM
      1 C1          6.8350    2.2720   -0.9530 ca        1 0WL     -0.362600
      2 C2          7.1950    0.9120   -0.9130 ca        1 0WL      0.432200
      3 C3          5.4970    2.5750   -0.6430 ca        1 0WL      0.432200
      4 C4         -3.5120    0.2500   -2.3640 cc        1 0WL      0.377200
      5 C5         -2.2270    0.5650   -1.8030 cc        1 0WL     -0.375900
      6 C6         -2.1710   -0.1760   -0.5710 cd        1 0WL      0.172100
      7 C7          5.0370    0.3310   -0.3120 ca        1 0WL      0.651300
      8 C8         -1.1070    1.3830   -2.1920 c         1 0WL      0.749100
      9 C9         -0.0730    0.6100   -0.0880 cc        1 0WL      0.506900
     10 C10        -4.9730   -3.8030    1.1960 c3        1 0WL     -0.079400
     11 C11        -5.6150   -2.6380    1.9400 c3        1 0WL     -0.079400
     12 C12        -4.0060   -3.2230    0.1740 c3        1 0WL     -0.091900
     13 C13        -5.0390   -1.3500    1.3700 c3        1 0WL     -0.091900
     14 C14         3.2770   -0.5220    1.3730 cy        1 0WL      0.148800
     15 C15         2.6710   -0.6530   -0.6700 cy        1 0WL      0.148800
     16 C16         4.0510   -0.7500    0.0420 cy        1 0WL     -0.152000
     17 C17        -3.7600   -1.7640    0.6120 c3        1 0WL      0.069000
     18 C18         0.7460    0.9100    2.2640 c3        1 0WL     -0.087100
     19 C19         1.1850    0.6950    0.8150 c3        1 0WL      0.139200
     20 N20         6.3210   -0.0620   -0.5980 nb        1 0WL     -0.699000
     21 N21         4.5930    1.6290   -0.3240 nb        1 0WL     -0.699000
     22 N22        -4.1710   -0.6040   -1.5460 nd        1 0WL     -0.509800
     23 N23        -1.0870   -0.1590    0.3020 nd        1 0WL     -0.598100
     24 N24        -3.3890   -0.8650   -0.4750 na        1 0WL      0.114400
     25 N25        -0.0310    1.3580   -1.2650 n         1 0WL     -0.497400
     26 N26         1.9870   -0.5080    0.6390 n3        1 0WL     -0.690600
     27 H1          7.5580    3.0530   -1.2120 ha        1 0WL      0.159000
     28 H2          8.2250    0.5820   -1.1420 h4        1 0WL      0.031100
     29 H3          5.1260    3.6160   -0.6510 h4        1 0WL      0.031100
     30 H4         -3.9410    0.6140   -3.3000 h4        1 0WL      0.057100
     31 H6         -5.7490   -4.4260    0.6880 hc        1 0WL      0.045450
     32 H7         -6.7270   -2.6540    1.8180 hc        1 0WL      0.045450
     33 H8         -5.4000   -2.7100    3.0350 hc        1 0WL      0.045450
     34 H9         -3.0430   -3.7890    0.1540 hc        1 0WL      0.060450
     35 H10        -4.4540   -3.2730   -0.8500 hc        1 0WL      0.060450
     36 H11        -5.7820   -0.8650    0.6870 hc        1 0WL      0.060450
     37 H12        -4.7910   -0.6190    2.1770 hc        1 0WL      0.060450
     38 H13         3.3150   -1.3910    2.0740 h1        1 0WL      0.067950
     39 H14         3.5420    0.4160    1.9160 h1        1 0WL      0.067950
     40 H15         2.5640    0.2020   -1.3790 h1        1 0WL      0.067950
     41 H16         2.3530   -1.6000   -1.1700 h1        1 0WL      0.067950
     42 H17         4.5170   -1.7600   -0.0330 hc        1 0WL      0.100700
     43 H18        -2.8940   -1.7510    1.3380 h1        1 0WL      0.088700
     44 H19         0.2370    0.0070    2.6770 hc        1 0WL      0.052367
     45 H20         1.6350    1.1420    2.8990 hc        1 0WL      0.052367
     46 H21         0.0390    1.7730    2.3070 hc        1 0WL      0.052367
     47 H22         1.7700    1.6210    0.5080 h1        1 0WL      0.045700
     48 H23         0.7820    1.8930   -1.4770 hn        1 0WL      0.336500
     49 O27        -0.9880    2.0800   -3.2140 o         1 0WL     -0.627500
     50 H5         -4.4290   -4.4680    1.9140 hc        1 0WL      0.045450
@<TRIPOS>BOND
     1    1    2 ar  
     2    1    3 ar  
     3    1   27 1   
     4    2   20 ar  
     5    2   28 1   
     6    3   21 ar  
     7    3   29 1   
     8    4    5 1   
     9    4   22 2   
    10    4   30 1   
    11    5    6 2   
    12    5    8 1   
    13    6   23 1   
    14    6   24 1   
    15    7   16 1   
    16    7   20 ar  
    17    7   21 ar  
    18    8   25 1   
    19    8   49 2   
    20    9   19 1   
    21    9   23 2   
    22    9   25 1   
    23   10   11 1   
    24   10   12 1   
    25   10   31 1   
    26   10   50 1   
    27   11   13 1   
    28   11   32 1   
    29   11   33 1   
    30   12   17 1   
    31   12   34 1   
    32   12   35 1   
    33   13   17 1   
    34   13   36 1   
    35   13   37 1   
    36   14   16 1   
    37   14   26 1   
    38   14   38 1   
    39   14   39 1   
    40   15   16 1   
    41   15   26 1   
    42   15   40 1   
    43   15   41 1   
    44   16   42 1   
    45   17   24 1   
    46   17   43 1   
    47   18   19 1   
    48   18   44 1   
    49   18   45 1   
    50   18   46 1   
    51   19   26 1   
    52   19   47 1   
    53   22   24 1   
    54   25   48 1   
@<TRIPOS>SUBSTRUCTURE
     1 0WL         1 TEMP              0 ****  ****    0 ROOT
