@<TRIPOS>MOLECULE
0WL
   50    51     1     0     0
SMALL
bcc


@<TRIPOS>ATOM
      1 C1          0.8320   -0.5200   -0.7090 c2        1 0WL     -0.312000
      2 C2          2.0200    2.3860    0.9470 c1        1 0WL      0.097000
      3 C3          1.0890   -1.2420    0.3960 c2        1 0WL     -0.046000
      4 C4          2.2460   -2.9740   11.1060 c1        1 0WL     -0.144000
      5 C5          1.3900   -1.9930   10.2760 c3        1 0WL     -0.184000
      6 C6          1.9320   -2.2800    8.8530 c2        1 0WL      0.007000
      7 C7          1.2620    0.2810    2.2590 c2        1 0WL      0.316000
      8 C8          1.3950   -0.5240   10.5500 c2        1 0WL      0.347000
      9 C9          1.3270   -0.1960    8.1040 c2        1 0WL      0.145000
     10 C10         3.5090   -5.8730    6.2450 c3        1 0WL     -0.216000
     11 C11         6.4340   -4.6310    9.7200 c1        1 0WL     -0.227000
     12 C12         2.7470   -5.2500    7.3870 c3        1 0WL     -0.169000
     13 C13         7.3510   -4.6780    8.9530 c1        1 0WL     -0.227000
     14 C14         1.5320    1.5420    4.5660 cy        1 0WL      0.068000
     15 C15         0.7890   -0.5020    4.7010 cy        1 0WL      0.068000
     16 C16         1.0810    0.4880    3.6460 cv        1 0WL     -0.548000
     17 C17         3.4550   -3.9720    7.8370 c3        1 0WL     -0.054000
     18 C18        -0.5290    0.9920    6.9810 c3        1 0WL     -0.232000
     19 C19         0.9880    0.8130    6.9770 c3        1 0WL     -0.028000
     20 N20         1.6760    1.4280    1.5460 n2        1 0WL     -0.330000
     21 N21         1.0540   -0.9150    1.7380 n2        1 0WL     -0.300000
     22 N22         2.9530   -3.7180   10.3000 n2        1 0WL     -0.183000
     23 N23         1.6360   -1.4440    7.7740 n2        1 0WL     -0.220000
     24 N24         2.8000   -3.3030    8.9540 n3        1 0WL      0.011000
     25 N25         1.2670    0.3100    9.3980 ns        1 0WL     -0.368000
     26 N26         1.5660    0.4410    5.6670 nx        1 0WL     -0.078000
     27 H1          1.3090   -2.3270    0.2880 h4        1 0WL      0.124000
     28 H2          0.8500   -0.9920   -1.6990 ha        1 0WL      0.111000
     29 H3          0.5780    0.5450   -0.7120 ha        1 0WL      0.111000
     30 H4          0.3300   -2.3700   10.3810 hc        1 0WL      0.195000
     31 H6          2.6840   -5.9730    8.2440 hc        1 0WL      0.101500
     32 H7          2.9950   -6.8080    5.9140 hc        1 0WL      0.083667
     33 H8          5.6220   -4.5900   10.4080 ha        1 0WL      0.228000
     34 H9          4.5490   -6.1350    6.5580 hc        1 0WL      0.083667
     35 H10         1.7000   -5.0160    7.0610 hc        1 0WL      0.101500
     36 H11         4.5040   -4.2300    8.1760 h1        1 0WL      0.126000
     37 H12         8.1680   -4.7230    8.2800 ha        1 0WL      0.228000
     38 H13         2.5140    0.0980    5.8060 hn        1 0WL      0.221000
     39 H14         2.5220    2.0200    4.3700 hx        1 0WL      0.099250
     40 H15         0.7870    2.3170    4.8790 hx        1 0WL      0.099250
     41 H16         1.2460   -1.5160    4.5940 hx        1 0WL      0.099250
     42 H17        -0.2680   -0.5870    5.0540 hx        1 0WL      0.099250
     43 H18         3.5180   -3.2540    6.9720 h1        1 0WL      0.126000
     44 H19         1.4670    1.8060    7.2470 hx        1 0WL      0.128000
     45 H20        -1.0530    0.0060    6.9720 hc        1 0WL      0.114000
     46 H21        -0.8250    1.5450    7.9060 hc        1 0WL      0.114000
     47 H22        -0.8650    1.5810    6.0920 hc        1 0WL      0.114000
     48 H23         1.1650    1.2920    9.5400 hn        1 0WL      0.256000
     49 O27         1.4210    0.0270   11.6500 o         1 0WL     -0.244000
     50 H5          3.5660   -5.1750    5.3750 hc        1 0WL      0.083667
@<TRIPOS>BOND
     1    1    3 1   
     2    1   28 1   
     3    1   29 1   
     4    2   20 1   
     5    3   21 1   
     6    3   27 1   
     7    4    5 1   
     8    4   22 1   
     9    5    6 1   
    10    5    8 1   
    11    5   30 1   
    12    6   23 1   
    13    6   24 1   
    14    7   16 1   
    15    7   20 1   
    16    7   21 1   
    17    8   25 1   
    18    8   49 1   
    19    9   19 1   
    20    9   23 1   
    21    9   25 1   
    22   10   12 1   
    23   10   32 1   
    24   10   34 1   
    25   10   50 1   
    26   11   13 1   
    27   11   33 1   
    28   12   17 1   
    29   12   31 1   
    30   12   35 1   
    31   13   37 1   
    32   14   16 1   
    33   14   26 1   
    34   14   39 1   
    35   14   40 1   
    36   15   16 1   
    37   15   26 1   
    38   15   41 1   
    39   15   42 1   
    40   17   24 1   
    41   17   36 1   
    42   17   43 1   
    43   18   19 1   
    44   18   45 1   
    45   18   46 1   
    46   18   47 1   
    47   19   26 1   
    48   19   44 1   
    49   22   24 1   
    50   25   48 1   
    51   26   38 1   
@<TRIPOS>SUBSTRUCTURE
     1 0WL         1 TEMP              0 ****  ****    0 ROOT
