@<TRIPOS>MOLECULE
0WL
   50    53     1     0     0
SMALL
bcc


@<TRIPOS>ATOM
      1 C1         -1.4110    1.0230    1.1330 c2        1 0WL     -0.246000
      2 C2          1.7560    2.8720    1.1810 c1        1 0WL      0.154000
      3 C3         -0.6600   -0.0790    1.2820 c2        1 0WL     -0.089000
      4 C4          0.9420   -3.0740   10.6030 c1        1 0WL     -0.157000
      5 C5          0.5520   -2.1320    9.4450 c3        1 0WL     -0.183000
      6 C6          1.7040   -2.4170    8.4480 c2        1 0WL      0.018000
      7 C7          1.4510    0.5430    2.2520 c2        1 0WL      0.167000
      8 C8          0.3980   -0.6590    9.6520 c2        1 0WL      0.346000
      9 C9          1.4630   -0.3650    7.4420 c2        1 0WL      0.161000
     10 C10         4.7090   -6.1950    7.9560 c3        1 0WL     -0.158500
     11 C11         5.6730   -5.2470    8.6580 c3        1 0WL     -0.158500
     12 C12         3.3280   -5.5570    7.9870 c3        1 0WL     -0.163000
     13 C13         4.8790   -4.0310    9.1130 c3        1 0WL     -0.163000
     14 C14         3.0050    1.0900    4.2150 cv        1 0WL     -0.704000
     15 C15         2.3180   -0.8910    4.2690 cy        1 0WL     -0.076000
     16 C16         2.6280    0.1430    3.1420 cy        1 0WL      0.043000
     17 C17         3.5690   -4.0640    8.2980 c3        1 0WL      0.009000
     18 C18         0.3110    0.9050    5.6460 c3        1 0WL     -0.224000
     19 C19         1.6690    0.6220    6.2730 c3        1 0WL     -0.078000
     20 N20         1.5940    1.8010    1.6600 n2        1 0WL     -0.341000
     21 N21         0.4660   -0.2850    2.0760 n2        1 0WL     -0.211000
     22 N22         1.9600   -3.8050   10.2420 n2        1 0WL     -0.176000
     23 N23         1.9200   -1.6090    7.3310 n2        1 0WL     -0.242000
     24 N24         2.4440   -3.4130    8.9690 n3        1 0WL      0.002000
     25 N25         0.8020    0.1530    8.5510 n         1 0WL     -0.366000
     26 N26         2.7120    0.1770    5.2850 n4        1 0WL      0.133000
     27 H1         -0.9570   -1.0300    0.7900 h4        1 0WL      0.147000
     28 H2         -2.3260    1.0000    0.5270 ha        1 0WL      0.122000
     29 H3         -1.1870    1.9890    1.6010 ha        1 0WL      0.122000
     30 H4         -0.4250   -2.5370    9.0500 hc        1 0WL      0.192000
     31 H6          2.6990   -6.0410    8.7780 hc        1 0WL      0.105500
     32 H7          4.6870   -7.1910    8.4660 hc        1 0WL      0.088500
     33 H8          6.4930   -4.9400    7.9610 hc        1 0WL      0.088500
     34 H9          6.1530   -5.7460    9.5370 hc        1 0WL      0.088500
     35 H10         2.8000   -5.6700    7.0090 hc        1 0WL      0.105500
     36 H11         4.6780   -4.0930   10.2130 hc        1 0WL      0.105500
     37 H12         5.4330   -3.0810    8.9170 hc        1 0WL      0.105500
     38 H13         3.5370   -0.0810    5.8250 hn        1 0WL      0.211000
     39 H14         3.1990    2.1400    4.2930 hx        1 0WL      0.184000
     40 H15         3.4620   -0.1750    2.4670 hc        1 0WL      0.114000
     41 H16         3.0070   -1.7660    4.3030 hx        1 0WL      0.129500
     42 H17         1.2580   -1.2140    4.3830 hx        1 0WL      0.129500
     43 H18         3.7430   -3.5230    7.3220 h1        1 0WL      0.110000
     44 H19         2.0790    1.5890    6.7010 hx        1 0WL      0.135000
     45 H20         0.4500    1.4320    4.6660 hc        1 0WL      0.107667
     46 H21        -0.2820    1.5650    6.3240 hc        1 0WL      0.107667
     47 H22        -0.2620   -0.0360    5.4660 hc        1 0WL      0.107667
     48 H23         0.6210    1.1330    8.5990 hn        1 0WL      0.257000
     49 O27        -0.1040   -0.0960   10.6250 o         1 0WL     -0.250000
     50 H5          5.0350   -6.3700    6.9000 hc        1 0WL      0.088500
@<TRIPOS>BOND
     1    1    3 1   
     2    1   28 1   
     3    1   29 1   
     4    2   20 1   
     5    3   21 1   
     6    3   27 1   
     7    4    5 1   
     8    4   22 1   
     9    5    6 1   
    10    5    8 1   
    11    5   30 1   
    12    6   23 1   
    13    6   24 1   
    14    7   16 1   
    15    7   20 1   
    16    7   21 1   
    17    8   25 1   
    18    8   49 1   
    19    9   19 1   
    20    9   23 1   
    21    9   25 1   
    22   10   11 1   
    23   10   12 1   
    24   10   32 1   
    25   10   50 1   
    26   11   13 1   
    27   11   33 1   
    28   11   34 1   
    29   12   17 1   
    30   12   31 1   
    31   12   35 1   
    32   13   17 1   
    33   13   36 1   
    34   13   37 1   
    35   14   16 1   
    36   14   26 1   
    37   14   39 1   
    38   15   16 1   
    39   15   26 1   
    40   15   41 1   
    41   15   42 1   
    42   16   40 1   
    43   17   24 1   
    44   17   43 1   
    45   18   19 1   
    46   18   45 1   
    47   18   46 1   
    48   18   47 1   
    49   19   26 1   
    50   19   44 1   
    51   22   24 1   
    52   25   48 1   
    53   26   38 1   
@<TRIPOS>SUBSTRUCTURE
     1 0WL         1 TEMP              0 ****  ****    0 ROOT
