@<TRIPOS>MOLECULE
0WL
   50    52     1     0     0
SMALL
bcc


@<TRIPOS>ATOM
      1 C1         -1.7300   -1.2780    2.7930 c2        1 0WL     -0.518000
      2 C2          2.8370    3.5150    1.1540 c1        1 0WL      0.082000
      3 C3         -1.3000   -0.9790    3.9810 c1        1 0WL      0.098000
      4 C4          0.6160   -3.3180   10.1530 c1        1 0WL     -0.152000
      5 C5          0.3410   -2.2730    9.0530 c3        1 0WL     -0.183000
      6 C6          1.5930   -2.4630    8.1610 c2        1 0WL      0.018000
      7 C7          1.8530    1.2490    1.9730 c2        1 0WL      0.308000
      8 C8          0.1470   -0.8270    9.3760 c2        1 0WL      0.349000
      9 C9          1.4290   -0.3290    7.3250 c2        1 0WL      0.160000
     10 C10         4.6450   -6.1920    7.6140 c3        1 0WL     -0.158500
     11 C11         5.5300   -5.3300    8.5070 c3        1 0WL     -0.158500
     12 C12         3.2680   -5.5470    7.5650 c3        1 0WL     -0.163000
     13 C13         4.6910   -4.1580    8.9970 c3        1 0WL     -0.163000
     14 C14         3.1640    1.4510    4.2680 cy        1 0WL      0.072000
     15 C15         2.0660   -0.4040    3.9860 cy        1 0WL      0.072000
     16 C16         2.3960    0.7980    3.1960 cv        1 0WL     -0.594000
     17 C17         3.4750   -4.0960    8.0500 c3        1 0WL      0.008000
     18 C18         0.4180    1.3100    5.7380 c3        1 0WL     -0.254000
     19 C19         1.7430    0.7700    6.2760 c3        1 0WL     -0.011000
     20 N20         2.3850    2.4890    1.5250 n2        1 0WL     -0.340000
     21 N21         0.9510    0.5610    1.3190 n2        1 0WL     -0.403000
     22 N22         1.6750   -4.0120    9.8350 n2        1 0WL     -0.176000
     23 N23         1.9180   -1.5520    7.1550 n2        1 0WL     -0.238000
     24 N24         2.2840   -3.5030    8.6610 n3        1 0WL      0.006000
     25 N25         0.6620    0.0870    8.4070 n         1 0WL     -0.364000
     26 N26         2.6760    0.3220    5.2150 n4        1 0WL     -0.069000
     27 H1          0.6670    0.9240    0.4370 hn        1 0WL      0.135000
     28 H2         -2.6520   -1.8270    2.5520 ha        1 0WL      0.211500
     29 H3         -1.1570   -0.9780    1.8900 ha        1 0WL      0.211500
     30 H4         -0.5850   -2.6420    8.5190 hc        1 0WL      0.197000
     31 H6          2.5590   -6.1010    8.2320 hc        1 0WL      0.105500
     32 H7          4.5700   -7.2340    8.0150 hc        1 0WL      0.089500
     33 H8          6.4190   -4.9630    7.9340 hc        1 0WL      0.089500
     34 H9          5.9140   -5.9210    9.3750 hc        1 0WL      0.089500
     35 H10         2.8460   -5.5540    6.5310 hc        1 0WL      0.105500
     36 H11         4.3760   -4.3290   10.0580 hc        1 0WL      0.105500
     37 H12         5.2630   -3.1990    8.9580 hc        1 0WL      0.105500
     38 H13         3.4440   -0.1960    5.6310 hn        1 0WL      0.217000
     39 H14         4.2820    1.3890    4.2300 hx        1 0WL      0.098250
     40 H15         2.8490    2.4780    4.5780 hx        1 0WL      0.098250
     41 H16         2.6710   -1.3290    3.8100 hx        1 0WL      0.098250
     42 H17         0.9820   -0.6650    4.0920 hx        1 0WL      0.098250
     43 H18         3.7500   -3.4600    7.1570 h1        1 0WL      0.109000
     44 H19         2.2820    1.6020    6.8300 hx        1 0WL      0.126000
     45 H20        -0.0520    1.9690    6.5060 hc        1 0WL      0.126333
     46 H21         0.5860    1.9110    4.8080 hc        1 0WL      0.126333
     47 H22        -0.2890    0.4760    5.4830 hc        1 0WL      0.126333
     48 H23         0.4390    1.0540    8.5100 hn        1 0WL      0.258000
     49 O27        -0.4620   -0.3550   10.3350 o         1 0WL     -0.247000
     50 H5          5.0810   -6.2610    6.5850 hc        1 0WL      0.089500
@<TRIPOS>BOND
     1    1    3 1   
     2    1   28 1   
     3    1   29 1   
     4    2   20 1   
     5    4    5 1   
     6    4   22 1   
     7    5    6 1   
     8    5    8 1   
     9    5   30 1   
    10    6   23 1   
    11    6   24 1   
    12    7   16 1   
    13    7   20 1   
    14    7   21 1   
    15    8   25 1   
    16    8   49 1   
    17    9   19 1   
    18    9   23 1   
    19    9   25 1   
    20   10   11 1   
    21   10   12 1   
    22   10   32 1   
    23   10   50 1   
    24   11   13 1   
    25   11   33 1   
    26   11   34 1   
    27   12   17 1   
    28   12   31 1   
    29   12   35 1   
    30   13   17 1   
    31   13   36 1   
    32   13   37 1   
    33   14   16 1   
    34   14   26 1   
    35   14   39 1   
    36   14   40 1   
    37   15   16 1   
    38   15   26 1   
    39   15   41 1   
    40   15   42 1   
    41   17   24 1   
    42   17   43 1   
    43   18   19 1   
    44   18   45 1   
    45   18   46 1   
    46   18   47 1   
    47   19   26 1   
    48   19   44 1   
    49   21   27 1   
    50   22   24 1   
    51   25   48 1   
    52   26   38 1   
@<TRIPOS>SUBSTRUCTURE
     1 0WL         1 TEMP              0 ****  ****    0 ROOT
