@<TRIPOS>MOLECULE
0WM
   60    58     1     0     0
SMALL
bcc


@<TRIPOS>ATOM
      1 C1          1.1470    1.1440   -0.1440 c1        1 0WM     -0.026000
      2 N2          2.2790    0.3360    0.0170 n7        1 0WM     -0.181000
      3 N3          0.3440    1.4370    0.8770 n2        1 0WM     -0.225000
      4 C4          2.6270   -0.1880    1.2350 c2        1 0WM      0.186000
      5 C5          0.6550    0.9890    2.1250 ca        1 0WM      0.102000
      6 C6          1.8190    0.1800    2.3800 ca        1 0WM     -0.204000
      7 C7          1.3250    0.1220    4.7720 ca        1 0WM      0.008000
      8 C8          2.1370   -0.2160    3.7060 ca        1 0WM     -0.101000
      9 C9          0.1380    0.9080    4.5100 ca        1 0WM      0.057000
     10 C10        -0.1860    1.3200    3.2460 ca        1 0WM     -0.121000
     11 N11         3.6820   -1.0930    1.4020 n7        1 0WM     -0.298000
     12 C12         6.6310   -0.4450   -0.8550 c2        1 0WM     -0.152000
     13 C13         6.5960   -0.5420   -2.2190 c2        1 0WM      0.172000
     14 C14         5.3820   -0.2160   -0.1400 c2        1 0WM     -0.247000
     15 C15         5.2980   -0.4760   -2.8870 c2        1 0WM     -0.425000
     16 C16         4.8290   -1.1820    0.6350 c2        1 0WM      0.044000
     17 C17         4.1700   -0.3740   -2.2030 c1        1 0WM      0.171000
     18 O20        -0.6280    1.3790    5.5720 os        1 0WM     -0.230000
     19 C21        -1.6350    0.4610    6.0520 c3        1 0WM     -0.065000
     20 C22        -2.6480    1.3690    6.7840 c3        1 0WM     -0.004000
     21 O23        -2.0380    2.0710    7.8400 oh        1 0WM     -0.318000
     22 C24        -1.8340   -1.4890    7.6690 c3        1 0WM     -0.272000
     23 C25        -1.0440   -0.5730    6.8980 c1        1 0WM     -0.094000
     24 N26         1.5810   -0.2970    6.0950 ns        1 0WM     -0.315000
     25 C27         2.8110   -0.2620    6.6790 c2        1 0WM      0.337000
     26 C28         2.9040   -0.6930    8.1400 c3        1 0WM     -0.260000
     27 O29         3.8620    0.0780    6.0720 o         1 0WM     -0.496000
     28 C30         3.6260    0.3540    8.9060 c1        1 0WM      0.082000
     29 C31         3.5940    0.5940   11.4190 c1        1 0WM      0.299000
     30 N32         3.5580    0.4160   10.2260 n2        1 0WM     -0.369000
     31 C33         5.1590    2.2630    7.1340 c2        1 0WM     -0.024000
     32 C34         5.9790    1.4910    5.0830 c3        1 0WM     -0.060000
     33 H1          2.8010    0.1120   -0.8270 hn        1 0WM      0.302000
     34 H8          3.0640   -0.7770    3.9090 ha        1 0WM      0.140000
     35 H10        -1.0870    1.9320    3.0680 ha        1 0WM      0.180000
     36 HN11        3.5540   -1.7840    2.1090 hn        1 0WM      0.258000
     37 H14         4.9670    0.8050   -0.2310 ha        1 0WM      0.167000
     38 H15         5.3000   -0.5160   -3.9950 ha        1 0WM      0.221000
     39 H17         5.3360   -2.1670    0.7380 h4        1 0WM      0.163000
     40 H21        -2.1490   -0.0290    5.1700 h1        1 0WM      0.144000
     41 H22        -3.1040    2.0730    6.0400 h1        1 0WM      0.112500
     42 H22A       -3.4410    0.7340    7.2620 h1        1 0WM      0.112500
     43 H24        -2.9270   -1.5250    7.4280 hc        1 0WM      0.131333
     44 H24A       -1.4540    2.7330    7.4460 ho        1 0WM      0.221000
     45 H25        -1.4080   -2.5250    7.5870 hc        1 0WM      0.131333
     46 H25A       -1.7240   -1.1740    8.7490 hc        1 0WM      0.131333
     47 HN26        0.7170   -0.4720    6.6550 hn        1 0WM      0.317000
     48 H28         3.5370   -1.6310    8.1680 hc        1 0WM      0.153500
     49 H30         1.9000   -0.9640    8.5680 hc        1 0WM      0.153500
     50 H31         2.0670    2.0160    8.0060 ha        1 0WM      0.004500
     51 H31A        2.5600    2.4740    8.0970 ha        1 0WM      0.004500
     52 H33         4.6790    1.4990    7.8390 ha        1 0WM      0.169667
     53 H33A        6.0640    2.7910    7.4860 ha        1 0WM      0.169667
     54 H33B        4.4350    2.8700    6.5600 ha        1 0WM      0.169667
     55 H34         6.6930    0.6410    5.0190 hc        1 0WM      0.130750
     56 H34A        5.6640    1.3750    6.2930 hc        1 0WM      0.130750
     57 H34B        6.4380    2.4860    4.9240 hc        1 0WM      0.130750
     58 F18         7.6860   -0.7040   -2.9910 f         1 0WM     -0.067000
     59 H321        5.0270    1.3190    4.5360 hc        1 0WM      0.130750
     60 Cl1         8.0530   -0.5370    0.0540 cl        1 0WM      0.019000
@<TRIPOS>BOND
     1    1    2 1   
     2    1    3 1   
     3    2    4 1   
     4    2   33 1   
     5    3    5 1   
     6    4    6 1   
     7    4   11 1   
     8    5    6 1   
     9    5   10 1   
    10    6    8 1   
    11    7    8 1   
    12    7    9 1   
    13    7   24 1   
    14    8   34 1   
    15    9   10 1   
    16    9   18 1   
    17   10   35 1   
    18   11   16 1   
    19   11   36 1   
    20   12   13 1   
    21   12   14 1   
    22   12   60 1   
    23   13   15 1   
    24   13   58 1   
    25   14   16 1   
    26   14   37 1   
    27   15   17 1   
    28   15   38 1   
    29   16   39 1   
    30   18   19 1   
    31   19   20 1   
    32   19   23 1   
    33   19   40 1   
    34   20   21 1   
    35   20   41 1   
    36   20   42 1   
    37   21   44 1   
    38   22   23 1   
    39   22   43 1   
    40   22   45 1   
    41   22   46 1   
    42   24   25 1   
    43   24   47 1   
    44   25   26 1   
    45   25   27 1   
    46   26   28 1   
    47   26   48 1   
    48   26   49 1   
    49   28   30 1   
    50   29   30 1   
    51   31   52 1   
    52   31   53 1   
    53   31   54 1   
    54   32   55 1   
    55   32   56 1   
    56   32   57 1   
    57   32   59 1   
    58   50   51 1   
@<TRIPOS>SUBSTRUCTURE
     1 0WM         1 TEMP              0 ****  ****    0 ROOT
