@<TRIPOS>MOLECULE
0WM
   59    54     1     0     0
SMALL
bcc


@<TRIPOS>ATOM
      1 C1         -1.5420   -0.1770   -4.8740 c1        1 0WM      0.010000
      2 N2         -0.1810   -0.1900   -4.8240 n1        1 0WM     -0.244000
      3 N3         -2.2840   -0.1990   -3.6960 n1        1 0WM     -0.191000
      4 C4          0.4640   -0.2240   -3.6020 c1        1 0WM      0.182000
      5 C5         -1.6620   -0.2340   -2.5020 c1        1 0WM      0.053000
      6 C6         -0.2770   -0.2460   -2.4370 c2        1 0WM     -0.156000
      7 C7         -0.4170   -0.4120    0.0020 c1        1 0WM      0.052000
      8 C8          0.3610   -0.3360   -1.1820 c2        1 0WM     -0.113000
      9 C9         -1.8030   -0.4000   -0.0720 c1        1 0WM      0.073000
     10 C10        -2.4360   -0.3120   -1.3020 c2        1 0WM     -0.178000
     11 N11         1.8400   -0.5540   -3.9930 n2        1 0WM     -0.248000
     12 C12         3.3450    1.7330   -6.5210 c1        1 0WM     -0.086000
     13 C13         3.6530    0.8450   -7.5320 c1        1 0WM      0.084000
     14 C14         2.7070    1.2830   -5.3760 c1        1 0WM     -0.090000
     15 C15         3.3240   -0.4900   -7.4020 c1        1 0WM     -0.141000
     16 C16         2.3790   -0.0550   -5.2480 c1        1 0WM      0.053000
     17 C17         2.6880   -0.9390   -6.2610 c1        1 0WM     -0.143000
     18 F18         4.4560    1.2630   -8.6090 f         1 0WM     -0.091000
     19 CL1         3.8140    3.4120   -6.6580 cl        1 0WM      0.013000
     20 O20        -2.3800   -0.3410    1.2520 os        1 0WM     -0.229000
     21 C21        -3.8160   -0.6530    1.1720 c3        1 0WM      0.006000
     22 C22        -4.7000    0.7250    1.2860 c3        1 0WM     -0.051000
     23 O23        -5.8830    0.3680    1.6870 os        1 0WM     -0.273000
     24 C24        -5.6570   -0.9220    2.4670 c3        1 0WM     -0.024000
     25 C25        -4.1620   -1.3700    2.1360 c3        1 0WM     -0.192000
     26 N26         0.0010   -1.1330    1.2200 n         1 0WM     -0.316000
     27 C27         1.2390   -0.7840    1.8650 c2        1 0WM      0.347000
     28 C28         1.7140   -1.5700    3.0700 c2        1 0WM     -0.230000
     29 O29         1.9410    0.1090    1.4000 o         1 0WM     -0.355000
     30 C30         2.0150   -0.9010    4.2730 c1        1 0WM     -0.093000
     31 C31         1.8650    0.5820    4.3580 c2        1 0WM     -0.059000
     32 N32         2.4790    1.0560    5.5610 n3        1 0WM     -0.262000
     33 C33         2.4190    2.4790    5.5990 c3        1 0WM     -0.122000
     34 C34         1.7580    0.5020    6.7390 c3        1 0WM     -0.122000
     35 H1         -2.0050   -0.1530   -5.7470 ha        1 0WM      0.193000
     36 H8          1.3400   -0.3440   -1.1270 ha        1 0WM      0.172000
     37 H10        -3.4100   -0.3020   -1.3490 ha        1 0WM      0.162000
     38 HN11        2.4050   -1.0810   -3.3970 hn        1 0WM      0.240000
     39 H14         2.4820    1.9270   -4.6410 ha        1 0WM      0.172000
     40 H15         3.5480   -1.1350   -8.1400 ha        1 0WM      0.155000
     41 H17         2.4410   -1.9460   -6.1660 ha        1 0WM      0.143000
     42 H21        -4.0120   -1.1080    0.3300 h1        1 0WM      0.113000
     43 H22        -4.2700    1.3670    1.9740 h1        1 0WM      0.103500
     44 H22A       -4.7620    1.1770    0.3730 h1        1 0WM      0.103500
     45 H24        -6.3040   -1.6270    2.1690 h1        1 0WM      0.091500
     46 H24A       -5.7590   -0.7500    3.4560 h1        1 0WM      0.091500
     47 H25        -3.5690   -1.2060    2.9220 hc        1 0WM      0.108500
     48 H25A       -4.1360   -2.3520    1.8720 hc        1 0WM      0.108500
     49 HN26       -0.6100   -1.7680    1.6480 hn        1 0WM      0.249000
     50 H28         1.8140   -2.5590    3.0100 ha        1 0WM      0.156000
     51 H30         2.3280   -1.4160    5.0670 ha        1 0WM      0.148000
     52 H31         0.8940    0.8200    4.3640 h4        1 0WM      0.091500
     53 H31A        2.2900    0.9900    3.6010 h4        1 0WM      0.091500
     54 H33         2.6870    2.7890    6.4760 h1        1 0WM      0.073667
     55 H33A        3.0390    2.8610    4.9020 h1        1 0WM      0.073667
     56 H33B        1.5110    2.7680    5.4180 h1        1 0WM      0.073667
     57 H34         1.9840   -0.4490    6.8450 h1        1 0WM      0.073667
     58 H34A        0.7890    0.5940    6.6060 h1        1 0WM      0.073667
     59 H34B        2.0230    0.9890    7.5390 h1        1 0WM      0.073667
@<TRIPOS>BOND
     1    1    3 1   
     2    1   35 1   
     3    2    4 1   
     4    4    6 1   
     5    5    6 1   
     6    5   10 1   
     7    6    8 1   
     8    7    8 1   
     9    7   26 1   
    10    8   36 1   
    11    9   10 1   
    12    9   20 1   
    13   10   37 1   
    14   11   16 1   
    15   11   38 1   
    16   12   14 1   
    17   12   19 1   
    18   13   15 1   
    19   13   18 1   
    20   14   39 1   
    21   15   40 1   
    22   16   17 1   
    23   17   41 1   
    24   20   21 1   
    25   21   22 1   
    26   21   25 1   
    27   21   42 1   
    28   22   23 1   
    29   22   43 1   
    30   22   44 1   
    31   23   24 1   
    32   24   25 1   
    33   24   45 1   
    34   24   46 1   
    35   25   47 1   
    36   25   48 1   
    37   26   27 1   
    38   26   49 1   
    39   27   28 1   
    40   27   29 1   
    41   28   30 1   
    42   28   50 1   
    43   30   51 1   
    44   31   32 1   
    45   31   52 1   
    46   31   53 1   
    47   32   33 1   
    48   32   34 1   
    49   33   54 1   
    50   33   55 1   
    51   33   56 1   
    52   34   57 1   
    53   34   58 1   
    54   34   59 1   
@<TRIPOS>SUBSTRUCTURE
     1 0WM         1 TEMP              0 ****  ****    0 ROOT
