@<TRIPOS>MOLECULE
0WM
   62    61     1     0     0
SMALL
bcc


@<TRIPOS>ATOM
      1 C1        156.3150    8.0650  -33.2830 c1        1 0WM      0.017000
      2 N2        156.0060    7.7200  -34.6370 n3        1 0WM      0.003000
      3 N3        156.8710    9.1230  -32.8560 n2        1 0WM     -0.122000
      4 C4        155.9450    8.7720  -35.4740 c2        1 0WM     -0.087000
      5 C5        157.4050   10.0120  -33.8210 c2        1 0WM      0.049000
      6 C6        156.8190    9.9380  -35.1960 c2        1 0WM     -0.103000
      7 C7        157.9710   12.0680  -35.7820 c3        1 0WM     -0.029000
      8 C8        157.1630   10.8530  -36.1280 c2        1 0WM     -0.092000
      9 C9        158.8690   11.8560  -34.5490 c2        1 0WM      0.238000
     10 C10       158.3810   10.9110  -33.5440 c2        1 0WM     -0.148000
     11 N11       154.9210    8.9400  -36.5380 n4        1 0WM      0.044000
     12 C12       151.5690    7.4260  -35.5800 c2        1 0WM     -0.107000
     13 C13       151.5600    6.2540  -36.3230 c2        1 0WM      0.094000
     14 C14       152.7060    8.3150  -35.6560 c2        1 0WM     -0.023000
     15 C15       152.6850    5.8870  -37.1550 c1        1 0WM      0.021000
     16 C16       153.7840    8.0190  -36.4360 c2        1 0WM     -0.232000
     17 C17       153.8260    6.7720  -37.2600 c3        1 0WM     -0.202000
     18 O20       159.9140   12.4960  -34.4190 o         1 0WM     -0.236000
     19 C21      -644.1560  -48.2510  175.6140 c2        1 0WM     -0.083000
     20 C22      -643.0990  -49.2330  175.9670 c3        1 0WM     -0.187000
     21 O23      -644.3100  -46.8530  172.3870 oh        1 0WM     -0.266000
     22 C24      -644.0080  -46.3730  173.6690 c3        1 0WM     -0.013000
     23 C25      -644.0930  -47.3530  174.6920 c1        1 0WM      0.159000
     24 N26       158.7060   12.6000  -36.9170 n         1 0WM     -0.325000
     25 C27       158.5410   13.9310  -37.2680 c2        1 0WM      0.298000
     26 C28       159.6430   14.5830  -38.0980 c3        1 0WM     -0.294000
     27 O29       157.5170   14.5740  -36.9760 o         1 0WM     -0.332000
     28 C30       159.3980   15.9920  -38.3450 c2        1 0WM      0.314000
     29 C31       160.3400   16.8420  -39.0060 c3        1 0WM     -0.351000
     30 N32       162.4370   13.8390  -39.5710 n1        1 0WM     -0.187000
     31 C33       161.6390   19.3580  -36.8000 c3        1 0WM     -0.284000
     32 C34       163.4440   13.4750  -40.0180 c1        1 0WM     -0.083000
     33 H1        155.4960    6.8660  -34.7880 hn        1 0WM      0.287000
     34 H8        156.8550   10.7700  -37.1830 ha        1 0WM      0.144000
     35 H10       158.8880   10.9410  -32.5580 ha        1 0WM      0.217000
     36 HN11      154.5830    9.9150  -36.5160 hn        1 0WM      0.261000
     37 H14       152.6460    9.2420  -35.0500 ha        1 0WM      0.180000
     38 H15       153.9000    7.0160  -38.3690 hc        1 0WM      0.193500
     39 H17       154.7390    6.1440  -37.0210 hc        1 0WM      0.193500
     40 H21      -645.0860  -48.3280  176.2420 ha        1 0WM      0.266000
     41 H22      -642.8130  -49.0890  177.0430 hc        1 0WM      0.147333
     42 H22A     -643.5150  -50.2690  175.8430 hc        1 0WM      0.147333
     43 H24      -645.2620  -46.7620  172.2260 ho        1 0WM      0.243000
     44 H24A     -642.1880  -49.1290  175.3280 hc        1 0WM      0.147333
     45 H25      -644.6080  -45.4520  173.9630 h1        1 0WM      0.219500
     46 H25A     -642.9100  -46.0340  173.6120 h1        1 0WM      0.219500
     47 HN26      159.6120   12.1990  -37.0510 hn        1 0WM      0.244000
     48 H28       160.6580   14.4460  -37.5990 hc        1 0WM      0.234000
     49 H30       159.7630   14.0410  -39.0940 hc        1 0WM      0.234000
     50 H31       161.2340   16.3170  -39.4350 hc        1 0WM      0.210000
     51 H31A      160.7150   17.6310  -38.2620 hc        1 0WM      0.210000
     52 H33       160.6770   19.0300  -36.3500 hc        1 0WM      0.072750
     53 H33A      158.4260   16.4230  -37.9920 ha        1 0WM      0.212000
     54 H33B      162.3380   18.4960  -36.8780 hc        1 0WM      0.072750
     55 H34       162.0970   20.1350  -36.1470 hc        1 0WM      0.072750
     56 H34A      161.4600   19.7960  -37.8070 hc        1 0WM      0.072750
     57 H34B      164.3780   13.1390  -40.4320 ha        1 0WM      0.271000
     58 F18       150.5180    5.4100  -36.2920 f         1 0WM     -0.010000
     59 H112      155.3930    8.7730  -37.4400 hn        1 0WM      0.261000
     60 H262      157.2050   12.8560  -35.4490 h1        1 0WM      0.190000
     61 H321      159.8380   17.4640  -39.8100 hc        1 0WM      0.210000
     62 CL1       150.3130    7.8970  -34.5730 cl        1 0WM      0.128000
@<TRIPOS>BOND
     1    1    2 1   
     2    1    3 1   
     3    2    4 1   
     4    2   33 1   
     5    3    5 1   
     6    4    6 1   
     7    4   11 1   
     8    5    6 1   
     9    5   10 1   
    10    6    8 1   
    11    7    8 1   
    12    7    9 1   
    13    7   24 1   
    14    7   60 1   
    15    8   34 1   
    16    9   10 1   
    17    9   18 1   
    18   10   35 1   
    19   11   16 1   
    20   11   36 1   
    21   11   59 1   
    22   12   13 1   
    23   12   14 1   
    24   12   62 1   
    25   13   15 1   
    26   13   58 1   
    27   14   16 1   
    28   14   37 1   
    29   15   17 1   
    30   16   17 1   
    31   17   38 1   
    32   17   39 1   
    33   19   20 1   
    34   19   23 1   
    35   19   40 1   
    36   20   41 1   
    37   20   42 1   
    38   20   44 1   
    39   21   22 1   
    40   21   43 1   
    41   22   23 1   
    42   22   45 1   
    43   22   46 1   
    44   24   25 1   
    45   24   47 1   
    46   25   26 1   
    47   25   27 1   
    48   26   28 1   
    49   26   48 1   
    50   26   49 1   
    51   28   29 1   
    52   28   53 1   
    53   29   50 1   
    54   29   51 1   
    55   29   61 1   
    56   30   32 1   
    57   31   52 1   
    58   31   54 1   
    59   31   55 1   
    60   31   56 1   
    61   32   57 1   
@<TRIPOS>SUBSTRUCTURE
     1 0WM         1 TEMP              0 ****  ****    0 ROOT
