@<TRIPOS>MOLECULE
0WM
   60    60     1     0     0
SMALL
bcc


@<TRIPOS>ATOM
      1 C1         -0.6620    1.4320    0.0030 c1        1 0WM     -0.028000
      2 N2          0.7140    1.1800   -0.0960 n3        1 0WM     -0.189000
      3 N3         -1.2830    1.4350    1.1770 n2        1 0WM     -0.246000
      4 C4          1.4920    0.9120    1.0050 c2        1 0WM      0.218000
      5 C5         -0.5780    1.1640    2.3140 ca        1 0WM      0.110000
      6 C6          0.8290    0.8640    2.2980 ca        1 0WM     -0.202000
      7 C7          0.8460    0.5170    4.7160 ca        1 0WM      0.008000
      8 C8          1.5040    0.5260    3.4970 ca        1 0WM     -0.090000
      9 C9         -0.5510    0.8900    4.7400 ca        1 0WM      0.059000
     10 C10        -1.2390    1.1770    3.5910 ca        1 0WM     -0.128000
     11 N11         2.8580    0.6750    0.9060 n3        1 0WM     -0.192000
     12 C12         6.1230    0.0640   -6.3970 c2        1 0WM     -0.104000
     13 C13         6.6450    0.8640   -5.2640 c2        1 0WM     -0.163000
     14 C14         5.1280    0.4850   -7.1830 c2        1 0WM     -0.152000
     15 C15         5.8900    0.9210   -4.1530 c1        1 0WM      0.191000
     16 C16         3.5230    0.7500   -0.2650 c1        1 0WM     -0.143000
     17 C17         4.1340    0.7910   -1.2970 c1        1 0WM     -0.155000
     18 O20        -1.1890    1.0820    5.9610 os        1 0WM     -0.230000
     19 C21        -1.8350   -0.0940    6.4950 c3        1 0WM     -0.067000
     20 C22        -2.9200    0.4710    7.4390 c3        1 0WM     -0.004000
     21 O23        -2.3590    1.2720    8.4500 oh        1 0WM     -0.322000
     22 C24        -1.2740   -2.1240    7.9070 c3        1 0WM     -0.270000
     23 C25        -0.8680   -0.9620    7.1640 c1        1 0WM     -0.095000
     24 N26         1.4580    0.1330    5.9260 n         1 0WM     -0.302000
     25 C27         2.7800    0.3270    6.2230 c2        1 0WM      0.317000
     26 C28         3.1900    0.0220    7.6370 c2        1 0WM     -0.093000
     27 O29         3.6520    0.7080    5.4100 o         1 0WM     -0.381000
     28 C30         4.0860    0.8100    8.2380 c2        1 0WM     -0.228000
     29 C31         4.5400    0.6000    9.6390 c3        1 0WM     -0.086000
     30 N32         6.0450    0.6000    9.7470 n4        1 0WM     -0.002000
     31 C33         6.6310   -0.5760    9.0500 c3        1 0WM     -0.195000
     32 C34         6.4670    0.6430   11.1690 c3        1 0WM     -0.195000
     33 H1          1.1210    1.2140   -1.0090 hn        1 0WM      0.265000
     34 H8          2.5730    0.2580    3.4810 ha        1 0WM      0.152000
     35 H10        -2.3080    1.4480    3.6310 ha        1 0WM      0.175000
     36 HN11        3.4060    0.6230    1.7390 hn        1 0WM      0.271000
     37 H14         4.7500   -0.1100   -8.0270 ha        1 0WM      0.144500
     38 H15         4.6780    0.8280   -2.2160 ha        1 0WM      0.272000
     39 H17         4.6390    1.4570   -7.0280 ha        1 0WM      0.144500
     40 H21        -2.3370   -0.6620    5.6540 h1        1 0WM      0.140000
     41 H22        -3.6590    1.0530    6.8280 h1        1 0WM      0.109000
     42 H22A       -3.4310   -0.3750    7.9720 h1        1 0WM      0.109000
     43 H24        -2.0030    2.0640    8.0240 ho        1 0WM      0.223000
     44 H24A       -2.3490   -2.4260    7.8100 hc        1 0WM      0.123000
     45 H25        -0.6260   -2.9950    7.6190 hc        1 0WM      0.123000
     46 H25A       -1.0680   -1.9020    8.9940 hc        1 0WM      0.123000
     47 HN26        0.8060   -0.1920    6.6480 hn        1 0WM      0.301000
     48 H28         2.7320   -0.8590    8.1150 ha        1 0WM      0.153000
     49 H30         4.4950    1.6920    7.7110 ha        1 0WM      0.169000
     50 H31         4.1690   -0.3790   10.0580 hx        1 0WM      0.145000
     51 H31A        4.1570    1.4410   10.2900 hx        1 0WM      0.145000
     52 H33         6.2680   -0.5880    7.9860 hx        1 0WM      0.146000
     53 H33A        7.7510   -0.4980    9.0700 hx        1 0WM      0.146000
     54 H33B        6.3100   -1.5180    9.5680 hx        1 0WM      0.146000
     55 H34         7.5890    0.6390   11.2230 hx        1 0WM      0.146000
     56 H34A        6.3900    1.4490    9.2770 hn        1 0WM      0.250000
     57 H34B        6.0710    1.5770   11.6490 hx        1 0WM      0.146000
     58 F18         7.8500    1.4650   -5.4340 f         1 0WM     -0.067000
     59 H321        6.0650   -0.2560   11.7080 hx        1 0WM      0.146000
     60 CL1         6.9000   -1.4290   -6.6310 cl        1 0WM      0.013000
@<TRIPOS>BOND
     1    1    2 1   
     2    1    3 1   
     3    2    4 1   
     4    2   33 1   
     5    3    5 1   
     6    4    6 1   
     7    4   11 1   
     8    5    6 1   
     9    5   10 1   
    10    6    8 1   
    11    7    8 1   
    12    7    9 1   
    13    7   24 1   
    14    8   34 1   
    15    9   10 1   
    16    9   18 1   
    17   10   35 1   
    18   11   16 1   
    19   11   36 1   
    20   12   13 1   
    21   12   14 1   
    22   12   60 1   
    23   13   15 1   
    24   13   58 1   
    25   14   37 1   
    26   14   39 1   
    27   16   17 1   
    28   17   38 1   
    29   18   19 1   
    30   19   20 1   
    31   19   23 1   
    32   19   40 1   
    33   20   21 1   
    34   20   41 1   
    35   20   42 1   
    36   21   43 1   
    37   22   23 1   
    38   22   44 1   
    39   22   45 1   
    40   22   46 1   
    41   24   25 1   
    42   24   47 1   
    43   25   26 1   
    44   25   27 1   
    45   26   28 1   
    46   26   48 1   
    47   28   29 1   
    48   28   49 1   
    49   29   30 1   
    50   29   50 1   
    51   29   51 1   
    52   30   31 1   
    53   30   32 1   
    54   30   56 1   
    55   31   52 1   
    56   31   53 1   
    57   31   54 1   
    58   32   55 1   
    59   32   57 1   
    60   32   59 1   
@<TRIPOS>SUBSTRUCTURE
     1 0WM         1 TEMP              0 ****  ****    0 ROOT
