@<TRIPOS>MOLECULE
0WM
   59    62     1     0     0
SMALL
bcc


@<TRIPOS>ATOM
      1 C1         -2.2860    3.5850    0.3160 ca        1 0WM      0.672900
      2 N2         -2.9090    2.3610    0.2950 nb        1 0WM     -0.771000
      3 N3         -0.9820    3.8510    0.2650 nb        1 0WM     -0.717000
      4 C4         -2.1100    1.2740    0.1910 ca        1 0WM      0.703200
      5 C5         -0.1460    2.7530    0.1600 ca        1 0WM      0.446600
      6 C6         -0.6530    1.4200    0.1050 ca        1 0WM     -0.286600
      7 C7          1.6150    0.5140   -0.0650 ca        1 0WM      0.047600
      8 C8          0.2360    0.3330   -0.0350 ca        1 0WM     -0.110000
      9 C9          2.1180    1.8700    0.0110 ca        1 0WM      0.118100
     10 C10         1.2660    2.9470    0.1020 ca        1 0WM     -0.244300
     11 N11        -2.6590   -0.0100    0.1270 nh        1 0WM     -0.727300
     12 C12        -6.3640    0.0420   -0.3220 ca        1 0WM     -0.007600
     13 C13        -6.7550   -0.9730    0.5760 ca        1 0WM      0.117900
     14 C14        -5.0170    0.3800   -0.4610 ca        1 0WM     -0.090000
     15 C15        -5.7700   -1.6400    1.3290 ca        1 0WM     -0.141000
     16 C16        -4.0340   -0.2810    0.3010 ca        1 0WM      0.135600
     17 C17        -4.4330   -1.2990    1.1990 ca        1 0WM     -0.144000
     18 CL1        -7.5100    0.8730   -1.2590 cl        1 0WM     -0.065400
     19 O20         3.4940    1.9970   -0.0680 os        1 0WM     -0.345900
     20 C21         4.0580    3.2140    0.4440 c3        1 0WM      0.117100
     21 C22         4.1260    4.2910   -0.6500 c3        1 0WM      0.099400
     22 O23         5.4920    4.6600   -0.8390 os        1 0WM     -0.416600
     23 C24         6.3580    3.7680   -0.1290 c3        1 0WM      0.126400
     24 C25         5.5170    2.8970    0.7960 c3        1 0WM     -0.113400
     25 N26         2.5230   -0.5470   -0.2030 n         1 0WM     -0.458100
     26 C27         2.2820   -1.8810    0.1120 c         1 0WM      0.673300
     27 C28         3.4340   -2.8050   -0.0460 ce        1 0WM     -0.265200
     28 O29         1.1610   -2.2830    0.4870 o         1 0WM     -0.611100
     29 C30         3.3250   -4.0920    0.3090 c2        1 0WM     -0.062200
     30 C31         4.4780   -5.0390    0.2110 c3        1 0WM      0.184000
     31 N32         4.0780   -6.4280    0.0200 n3        1 0WM     -0.735600
     32 C33         3.3760   -6.6490   -1.2240 c3        1 0WM      0.153600
     33 C34         5.1770   -7.3460    0.2210 c3        1 0WM      0.153600
     34 H1         -2.9770    4.4520    0.3960 h5        1 0WM      0.055100
     35 H8         -0.1560   -0.6940   -0.1310 ha        1 0WM      0.172000
     36 H10         1.6570    3.9770    0.1260 ha        1 0WM      0.162000
     37 HN11       -2.0520   -0.7440    0.4280 hn        1 0WM      0.445800
     38 H14        -4.7350    1.1720   -1.1740 ha        1 0WM      0.173000
     39 H15        -6.0770   -2.4340    2.0270 ha        1 0WM      0.155000
     40 H17        -3.6850   -1.8360    1.8030 ha        1 0WM      0.144000
     41 H21         3.4790    3.5590    1.3390 h1        1 0WM      0.073700
     42 H22         3.7320    3.9050   -1.6250 h1        1 0WM      0.064700
     43 H22A        3.5840    5.2250   -0.3530 h1        1 0WM      0.064700
     44 H24         6.9070    3.1560   -0.8900 h1        1 0WM      0.051700
     45 H24A        7.0810    4.4150    0.4300 h1        1 0WM      0.051700
     46 H25         5.7130    3.1390    1.8680 hc        1 0WM      0.068700
     47 H25A        5.7340    1.8120    0.6370 hc        1 0WM      0.068700
     48 HN26        3.4620   -0.2800   -0.4050 hn        1 0WM      0.332500
     49 H28         4.3670   -2.3970   -0.4660 ha        1 0WM      0.135000
     50 H30         2.3790   -4.4890    0.7220 ha        1 0WM      0.166000
     51 H31         5.1840   -4.6940   -0.6030 h1        1 0WM      0.046700
     52 H31A        5.0410   -4.9780    1.1910 h1        1 0WM      0.046700
     53 H33         4.0210   -6.4910   -2.1320 h1        1 0WM      0.035533
     54 H33A        2.9940   -7.7040   -1.2380 h1        1 0WM      0.035533
     55 H33B        2.5020   -5.9480   -1.2800 h1        1 0WM      0.035533
     56 H34         5.5860   -7.2060    1.2560 h1        1 0WM      0.035533
     57 H34A        4.7900   -8.3940    0.1260 h1        1 0WM      0.035533
     58 H34B        6.0140   -7.2050   -0.5170 h1        1 0WM      0.035533
     59 F18        -8.0520   -1.3230    0.7310 f         1 0WM     -0.125900
@<TRIPOS>BOND
     1    1    2 ar  
     2    1    3 ar  
     3    1   34 1   
     4    2    4 ar  
     5    3    5 ar  
     6    4    6 ar  
     7    4   11 1   
     8    5    6 ar  
     9    5   10 ar  
    10    6    8 ar  
    11    7    8 ar  
    12    7    9 ar  
    13    7   25 1   
    14    8   35 1   
    15    9   10 ar  
    16    9   19 1   
    17   10   36 1   
    18   11   16 1   
    19   11   37 1   
    20   12   13 ar  
    21   12   14 ar  
    22   12   18 1   
    23   13   15 ar  
    24   13   59 1   
    25   14   16 ar  
    26   14   38 1   
    27   15   17 ar  
    28   15   39 1   
    29   16   17 ar  
    30   17   40 1   
    31   19   20 1   
    32   20   21 1   
    33   20   24 1   
    34   20   41 1   
    35   21   22 1   
    36   21   42 1   
    37   21   43 1   
    38   22   23 1   
    39   23   24 1   
    40   23   44 1   
    41   23   45 1   
    42   24   46 1   
    43   24   47 1   
    44   25   26 1   
    45   25   48 1   
    46   26   27 1   
    47   26   28 2   
    48   27   29 2   
    49   27   49 1   
    50   29   30 1   
    51   29   50 1   
    52   30   31 1   
    53   30   51 1   
    54   30   52 1   
    55   31   32 1   
    56   31   33 1   
    57   32   53 1   
    58   32   54 1   
    59   32   55 1   
    60   33   56 1   
    61   33   57 1   
    62   33   58 1   
@<TRIPOS>SUBSTRUCTURE
     1 0WM         1 TEMP              0 ****  ****    0 ROOT
