@<TRIPOS>MOLECULE
0WN
   64    63     1     0     0
SMALL
bcc


@<TRIPOS>ATOM
      1 C1        442.9200  -97.0910  -71.3690 c1        1 0WN      0.033000
      2 N2        442.6030  -97.8360  -72.4950 n3        1 0WN     -0.143000
      3 N3        442.0530  -96.9750  -70.3440 n2        1 0WN     -0.154000
      4 C4        441.3850  -98.4740  -72.6100 c2        1 0WN     -0.023000
      5 C5        440.8570  -97.5880  -70.3980 ca        1 0WN      0.128000
      6 C6        440.4480  -98.3840  -71.5550 ca        1 0WN     -0.112000
      7 C7        438.2830  -98.8910  -70.5200 ca        1 0WN      0.125000
      8 C8        439.1660  -99.0130  -71.5710 ca        1 0WN     -0.198000
      9 C9        438.7010  -98.0910  -69.3600 ca        1 0WN      0.104000
     10 C10       439.9190  -97.4790  -69.3090 ca        1 0WN     -0.190000
     11 N11       441.0340  -99.2560  -73.8260 n4        1 0WN      0.052000
     12 C12       443.6700  -99.9800  -76.4780 c2        1 0WN     -0.208000
     13 C13       444.4670  -98.8760  -76.6680 c2        1 0WN      0.308000
     14 C14       442.7360 -100.1280  -75.3880 c2        1 0WN      0.043000
     15 C15       444.4990  -97.7810  -75.7690 c1        1 0WN     -0.248000
     16 C16       441.9880  -99.1070  -74.9160 c2        1 0WN     -0.293000
     17 C17       444.6180  -96.8330  -75.0430 c1        1 0WN     -0.058000
     18 O20       437.7860  -98.0060  -68.3430 oh        1 0WN     -0.259000
     19 C21     -1885.1510  430.0390  336.2140 c3        1 0WN     -0.187000
     20 C22     -1884.1400  430.8410  337.0410 c3        1 0WN     -0.015000
     21 O23     -1884.8820  431.8740  337.6590 oh        1 0WN     -0.349000
     22 C24     -1887.2910  429.2410  337.6160 c2        1 0WN     -0.207000
     23 C25     -1886.2710  429.6050  336.9420 c1        1 0WN      0.272000
     24 N26       437.0130  -99.4820  -70.4780 n         1 0WN     -0.301000
     25 C27       436.4100 -100.2510  -71.4590 c2        1 0WN      0.326000
     26 C28       435.0030 -100.7520  -71.1310 c3        1 0WN     -0.204000
     27 O29       436.9520 -100.5320  -72.5440 o         1 0WN     -0.359000
     28 C30       434.4720 -101.5570  -72.2970 c3        1 0WN     -0.190000
     29 C31       433.0960 -102.1290  -72.1550 c2        1 0WN      0.187000
     30 N32       432.3490 -101.9720  -71.0790 n3        1 0WN     -0.142000
     31 C33       431.0190 -102.5250  -70.9380 c3        1 0WN     -0.146000
     32 C34       432.6120 -102.9060  -73.3340 c3        1 0WN     -0.262000
     33 H1        443.2920  -97.8920  -73.2250 hn        1 0WN      0.280000
     34 H2        438.8720  -99.6180  -72.4450 ha        1 0WN      0.156000
     35 H3        440.2210  -96.8810  -68.4290 ha        1 0WN      0.199000
     36 H4        440.9480 -100.2450  -73.5480 hn        1 0WN      0.262000
     37 H5        442.6460 -101.1600  -74.9860 ha        1 0WN      0.168000
     38 H6        444.7360  -95.9860  -74.4030 ha        1 0WN      0.263000
     39 H7        442.0160  -98.0810  -75.3340 hx        1 0WN      0.210000
     40 H8      -1884.6350  429.1460  335.7300 hc        1 0WN      0.222000
     41 H9      -1883.3530  431.2530  336.3530 h1        1 0WN      0.112000
     42 H10     -1885.5190  430.6730  335.3380 hc        1 0WN      0.222000
     43 H11     -1883.6600  430.1920  337.8210 h1        1 0WN      0.112000
     44 H12     -1884.2550  432.5360  337.9830 ho        1 0WN      0.251000
     45 H13     -1887.4340  428.2310  338.0700 ha        1 0WN      0.283000
     46 H14     -1888.1610  429.9140  337.8250 ha        1 0WN      0.283000
     47 H15       438.1560  -97.4610  -67.6260 ho        1 0WN      0.267000
     48 H16       434.3440  -99.8660  -70.9250 hc        1 0WN      0.127500
     49 H17       435.0550 -101.3820  -70.2010 hc        1 0WN      0.127500
     50 H18       434.4780 -100.9160  -73.2290 hc        1 0WN      0.176000
     51 H19       433.1910 -100.2170  -68.1950 ha        1 0WN      0.002000
     52 H20       435.1760 -102.4160  -72.5100 hc        1 0WN      0.176000
     53 H21       433.5040 -100.3450  -68.7840 ha        1 0WN      0.002000
     54 H23       430.3520 -102.1420  -71.7600 h1        1 0WN      0.146333
     55 H24       430.5960 -102.2160  -69.9420 h1        1 0WN      0.146333
     56 H25       431.0610 -103.6480  -70.9920 h1        1 0WN      0.146333
     57 H26       431.6850 -102.4370  -73.7620 hc        1 0WN      0.155333
     58 H27       432.6990 -101.4420  -70.2940 hn        1 0WN      0.277000
     59 H28       433.3940 -102.9410  -74.1350 hc        1 0WN      0.155333
     60 F18       445.3160  -98.7980  -77.7110 f         1 0WN     -0.027000
     61 H112      440.1130  -98.9260  -74.1560 hn        1 0WN      0.262000
     62 H262      436.4940  -99.3100  -69.6390 hn        1 0WN      0.268000
     63 H321      432.3560 -103.9600  -73.0380 hc        1 0WN      0.155333
     64 CL1       443.7430 -101.3200  -77.5120 cl        1 0WN      0.083000
@<TRIPOS>BOND
     1    1    2 1   
     2    1    3 1   
     3    2    4 1   
     4    2   33 1   
     5    3    5 1   
     6    4    6 1   
     7    4   11 1   
     8    5    6 1   
     9    5   10 1   
    10    6    8 1   
    11    7    8 1   
    12    7    9 1   
    13    7   24 1   
    14    8   34 1   
    15    9   10 1   
    16    9   18 1   
    17   10   35 1   
    18   11   16 1   
    19   11   36 1   
    20   11   61 1   
    21   12   13 1   
    22   12   14 1   
    23   12   64 1   
    24   13   15 1   
    25   13   60 1   
    26   14   16 1   
    27   14   37 1   
    28   15   17 1   
    29   16   39 1   
    30   17   38 1   
    31   18   47 1   
    32   19   20 1   
    33   19   23 1   
    34   19   40 1   
    35   19   42 1   
    36   20   21 1   
    37   20   41 1   
    38   20   43 1   
    39   21   44 1   
    40   22   23 1   
    41   22   45 1   
    42   22   46 1   
    43   24   25 1   
    44   24   62 1   
    45   25   26 1   
    46   25   27 1   
    47   26   28 1   
    48   26   48 1   
    49   26   49 1   
    50   28   29 1   
    51   28   50 1   
    52   28   52 1   
    53   29   30 1   
    54   29   32 1   
    55   30   31 1   
    56   30   58 1   
    57   31   54 1   
    58   31   55 1   
    59   31   56 1   
    60   32   57 1   
    61   32   59 1   
    62   32   63 1   
    63   51   53 1   
@<TRIPOS>SUBSTRUCTURE
     1 0WN         1 TEMP              0 ****  ****    0 ROOT
