@<TRIPOS>MOLECULE
0WN
   61    64     1     0     0
SMALL
bcc


@<TRIPOS>ATOM
      1 C1          2.5410    3.3450   -0.3000 ca        1 0WN      0.672900
      2 N2          3.0360    2.0640   -0.2630 nb        1 0WN     -0.770000
      3 N3          1.2700    3.7420   -0.2510 nb        1 0WN     -0.718000
      4 C4          2.1320    1.0650   -0.1420 ca        1 0WN      0.704200
      5 C5          0.3280    2.7360   -0.1300 ca        1 0WN      0.447600
      6 C6          0.6970    1.3590   -0.0580 ca        1 0WN     -0.287600
      7 C7         -1.6510    0.6910    0.1270 ca        1 0WN      0.044600
      8 C8         -0.2980    0.3700    0.0970 ca        1 0WN     -0.109000
      9 C9         -2.0140    2.0900    0.0350 ca        1 0WN      0.119100
     10 C10        -1.0580    3.0730   -0.0720 ca        1 0WN     -0.245300
     11 N11         2.5490   -0.2660   -0.0590 nh        1 0WN     -0.727300
     12 C12         6.2410   -0.5810    0.3890 ca        1 0WN     -0.007600
     13 C13         6.5250   -1.6430   -0.4950 ca        1 0WN      0.118900
     14 C14         4.9340   -0.1080    0.5230 ca        1 0WN     -0.090000
     15 C15         5.4770   -2.2190   -1.2370 ca        1 0WN     -0.141000
     16 C16         3.8890   -0.6770   -0.2290 ca        1 0WN      0.135600
     17 C17         4.1820   -1.7430   -1.1120 ca        1 0WN     -0.144000
     18 CL1         7.4660    0.1430    1.3140 cl        1 0WN     -0.065400
     19 O20        -3.3710    2.3550    0.1120 os        1 0WN     -0.345900
     20 C21        -3.8090    3.6300   -0.3810 c3        1 0WN      0.117100
     21 C22        -3.7450    4.6990    0.7210 c3        1 0WN      0.099400
     22 O23        -5.0610    5.2080    0.9360 os        1 0WN     -0.416600
     23 C24        -6.0270    4.4180    0.2340 c3        1 0WN      0.126400
     24 C25        -5.2980    3.4720   -0.7110 c3        1 0WN     -0.113400
     25 N26        -2.6620   -0.2720    0.2770 n         1 0WN     -0.465100
     26 C27        -2.5590   -1.6270   -0.0120 c         1 0WN      0.667100
     27 C28        -3.8390   -2.4310    0.1470 c3        1 0WN     -0.150400
     28 O29        -1.4910   -2.1520   -0.3790 o         1 0WN     -0.601100
     29 C30        -3.5430   -3.9160    0.1650 c3        1 0WN     -0.078400
     30 C31        -4.8550   -4.6980    0.1710 c3        1 0WN      0.171800
     31 N32        -4.6960   -6.1180    0.4540 n3        1 0WN     -0.736600
     32 C33        -5.9710   -6.7820    0.6180 c3        1 0WN      0.155100
     33 C34        -3.8210   -6.8000   -0.4710 c3        1 0WN      0.155100
     34 H1          3.3160    4.1360   -0.3940 h5        1 0WN      0.055100
     35 H2         -0.0120   -0.6900    0.2040 ha        1 0WN      0.171000
     36 H3         -1.3410    4.1380   -0.1080 ha        1 0WN      0.162000
     37 H4          1.8690   -0.9410   -0.3450 hn        1 0WN      0.444800
     38 H5          4.7350    0.7190    1.2260 ha        1 0WN      0.173000
     39 H6          5.7020   -3.0490   -1.9240 ha        1 0WN      0.155000
     40 H7          3.3820   -2.2110   -1.7080 ha        1 0WN      0.143000
     41 H8         -3.2090    3.9190   -1.2830 h1        1 0WN      0.073700
     42 H9         -3.3780    4.2660    1.6870 h1        1 0WN      0.064700
     43 H10        -3.1130    5.5740    0.4220 h1        1 0WN      0.064700
     44 H11        -6.6260    3.8610    1.0000 h1        1 0WN      0.052200
     45 H12        -6.6880    5.1420   -0.3080 h1        1 0WN      0.052200
     46 H13        -5.4840    3.7450   -1.7790 hc        1 0WN      0.068700
     47 H14        -5.6270    2.4150   -0.5580 hc        1 0WN      0.068700
     48 H15        -3.5660    0.0900    0.4870 hn        1 0WN      0.332500
     49 H16        -4.3680   -2.1390    1.0930 hc        1 0WN      0.066700
     50 H17        -4.5140   -2.1830   -0.7160 hc        1 0WN      0.066700
     51 H18        -2.9310   -4.1840   -0.7370 hc        1 0WN      0.068200
     52 H19        -2.9290   -4.1650    1.0690 hc        1 0WN      0.068200
     53 H20        -5.5220   -4.2730    0.9760 h1        1 0WN      0.026700
     54 H21        -5.3730   -4.5290   -0.8200 h1        1 0WN      0.026700
     55 H23        -5.7870   -7.8460    0.9210 h1        1 0WN      0.032533
     56 H24        -6.5480   -6.2720    1.4320 h1        1 0WN      0.032533
     57 H25        -6.5960   -6.7800   -0.3170 h1        1 0WN      0.032533
     58 H26        -2.7950   -6.3550   -0.3930 h1        1 0WN      0.032533
     59 H27        -3.7620   -7.8840   -0.1900 h1        1 0WN      0.032533
     60 H28        -4.1630   -6.7280   -1.5410 h1        1 0WN      0.032533
     61 F18         7.7810   -2.1240   -0.6450 f         1 0WN     -0.125900
@<TRIPOS>BOND
     1    1    2 ar  
     2    1    3 ar  
     3    1   34 1   
     4    2    4 ar  
     5    3    5 ar  
     6    4    6 ar  
     7    4   11 1   
     8    5    6 ar  
     9    5   10 ar  
    10    6    8 ar  
    11    7    8 ar  
    12    7    9 ar  
    13    7   25 1   
    14    8   35 1   
    15    9   10 ar  
    16    9   19 1   
    17   10   36 1   
    18   11   16 1   
    19   11   37 1   
    20   12   13 ar  
    21   12   14 ar  
    22   12   18 1   
    23   13   15 ar  
    24   13   61 1   
    25   14   16 ar  
    26   14   38 1   
    27   15   17 ar  
    28   15   39 1   
    29   16   17 ar  
    30   17   40 1   
    31   19   20 1   
    32   20   21 1   
    33   20   24 1   
    34   20   41 1   
    35   21   22 1   
    36   21   42 1   
    37   21   43 1   
    38   22   23 1   
    39   23   24 1   
    40   23   44 1   
    41   23   45 1   
    42   24   46 1   
    43   24   47 1   
    44   25   26 1   
    45   25   48 1   
    46   26   27 1   
    47   26   28 2   
    48   27   29 1   
    49   27   49 1   
    50   27   50 1   
    51   29   30 1   
    52   29   51 1   
    53   29   52 1   
    54   30   31 1   
    55   30   53 1   
    56   30   54 1   
    57   31   32 1   
    58   31   33 1   
    59   32   55 1   
    60   32   56 1   
    61   32   57 1   
    62   33   58 1   
    63   33   59 1   
    64   33   60 1   
@<TRIPOS>SUBSTRUCTURE
     1 0WN         1 TEMP              0 ****  ****    0 ROOT
