@<TRIPOS>MOLECULE
0WN
   61    56     1     0     0
SMALL
bcc


@<TRIPOS>ATOM
      1 C1         -2.4110    0.4470   -4.7960 c1        1 0WN      0.009000
      2 N2         -1.0310    0.3850   -4.7940 n1        1 0WN     -0.245000
      3 N3         -3.1010    0.4990   -3.6080 n1        1 0WN     -0.190000
      4 C4         -0.3580    0.3750   -3.6250 c1        1 0WN      0.182000
      5 C5         -2.4230    0.4890   -2.4220 c1        1 0WN      0.052000
      6 C6         -1.0560    0.4280   -2.4170 c2        1 0WN     -0.155000
      7 C7         -1.0600    0.3750    0.0120 c1        1 0WN      0.054000
      8 C8         -0.3570    0.3700   -1.1940 c2        1 0WN     -0.114000
      9 C9         -2.4480    0.4380    0.0060 c2        1 0WN      0.071000
     10 C10        -3.1360    0.4950   -1.2020 c2        1 0WN     -0.176000
     11 N11         1.0140    0.6380   -4.0430 n2        1 0WN     -0.247000
     12 C12         1.7920    2.3520   -7.2220 c1        1 0WN     -0.083000
     13 C13         2.0920    1.2680   -8.0390 c1        1 0WN      0.085000
     14 C14         1.4010    2.1420   -5.9080 c1        1 0WN     -0.145000
     15 C15         1.9990   -0.0290   -7.5380 c1        1 0WN     -0.146000
     16 C16         1.3080    0.8460   -5.4080 c1        1 0WN      0.054000
     17 C17         1.6080   -0.2370   -6.2250 c1        1 0WN     -0.088000
     18 F18         2.5740    1.4720   -9.2560 f         1 0WN     -0.091000
     19 CL1         1.9720    3.9930   -7.8370 cl        1 0WN      0.011000
     20 O20        -3.0980    0.5570    1.2970 os        1 0WN     -0.228000
     21 C21        -4.4730   -0.0320    1.2230 c3        1 0WN      0.005000
     22 C22        -5.3410    0.8960    1.1820 c3        1 0WN     -0.050000
     23 O23        -5.7330    1.1570    2.6730 os        1 0WN     -0.273000
     24 C24        -5.1420   -0.0040    3.4550 c3        1 0WN     -0.024000
     25 C25        -4.7790   -0.8730    2.5510 c3        1 0WN     -0.192000
     26 N26        -0.3450    0.6330    1.2660 n2        1 0WN     -0.314000
     27 C27         0.7200   -0.2540    1.6890 c2        1 0WN      0.312000
     28 C28         1.5470    0.0770    2.9870 c3        1 0WN     -0.185000
     29 O29         1.0180   -1.2050    1.0100 o         1 0WN     -0.362000
     30 C30         2.2770   -1.1900    3.4720 c3        1 0WN     -0.160000
     31 C31         3.1360   -0.8490    4.7310 c3        1 0WN     -0.066000
     32 N32         4.2440   -1.7520    4.8100 n3        1 0WN     -0.265000
     33 C33         5.4810   -1.0080    4.7370 c3        1 0WN     -0.121000
     34 C34         4.1890   -2.4730    6.0490 c3        1 0WN     -0.121000
     35 H1         -2.8960    0.4550   -5.6400 ha        1 0WN      0.191000
     36 H2          0.6290    0.3250   -1.1910 ha        1 0WN      0.173000
     37 H3         -4.1050    0.5390   -1.2070 ha        1 0WN      0.162000
     38 H4          1.6850    0.7090   -3.4090 hn        1 0WN      0.240000
     39 H5          1.1930    2.8930   -5.3410 ha        1 0WN      0.153000
     40 H6          2.2100   -0.7940   -8.1150 ha        1 0WN      0.156000
     41 H7          1.5420   -1.1490   -5.8720 ha        1 0WN      0.162000
     42 H8         -4.5540   -0.6140    0.4230 h1        1 0WN      0.113000
     43 H9         -4.9540    1.7090    0.7830 h1        1 0WN      0.104000
     44 H10        -6.1340    0.6020    0.6650 h1        1 0WN      0.104000
     45 H11        -4.3580    0.2970    3.9740 h1        1 0WN      0.092000
     46 H12        -5.8240   -0.3970    4.0580 h1        1 0WN      0.092000
     47 H13        -3.9700   -1.3510    2.8430 hc        1 0WN      0.108500
     48 H14        -5.5110   -1.5140    2.3850 hc        1 0WN      0.108500
     49 H15        -0.5200    1.3910    1.7420 hn        1 0WN      0.248000
     50 H16         2.2030    0.7750    2.7860 hc        1 0WN      0.116000
     51 H17         0.9440    0.3910    3.6850 hc        1 0WN      0.116000
     52 H18         2.8560   -1.5220    2.7670 hc        1 0WN      0.095000
     53 H19         1.6220   -1.8740    3.7030 hc        1 0WN      0.095000
     54 H20         2.5820   -0.9360    5.5400 h1        1 0WN      0.072000
     55 H21         3.4670    0.0650    4.6610 h1        1 0WN      0.072000
     56 H23         6.2380   -1.6150    4.8920 h1        1 0WN      0.072167
     57 H24         5.4810   -0.3040    5.4230 h1        1 0WN      0.072167
     58 H25         5.5670   -0.5990    3.8480 h1        1 0WN      0.072167
     59 H26         4.9800   -3.0280    6.1350 h1        1 0WN      0.072167
     60 H27         3.3940   -3.0360    6.0620 h1        1 0WN      0.072167
     61 H28         4.1530   -1.8440    6.7870 h1        1 0WN      0.072167
@<TRIPOS>BOND
     1    1    3 1   
     2    1   35 1   
     3    2    4 1   
     4    4    6 1   
     5    5    6 1   
     6    5   10 1   
     7    6    8 1   
     8    7    8 1   
     9    7    9 1   
    10    8   36 1   
    11    9   10 1   
    12    9   20 1   
    13   10   37 1   
    14   11   16 1   
    15   11   38 1   
    16   12   14 1   
    17   12   19 1   
    18   13   15 1   
    19   14   39 1   
    20   15   40 1   
    21   16   17 1   
    22   17   41 1   
    23   20   21 1   
    24   21   22 1   
    25   21   25 1   
    26   21   42 1   
    27   22   23 1   
    28   22   43 1   
    29   22   44 1   
    30   23   24 1   
    31   24   25 1   
    32   24   45 1   
    33   24   46 1   
    34   25   47 1   
    35   25   48 1   
    36   26   27 1   
    37   26   49 1   
    38   27   28 1   
    39   27   29 1   
    40   28   30 1   
    41   28   50 1   
    42   28   51 1   
    43   30   31 1   
    44   30   52 1   
    45   30   53 1   
    46   31   32 1   
    47   31   54 1   
    48   31   55 1   
    49   32   33 1   
    50   32   34 1   
    51   33   56 1   
    52   33   57 1   
    53   33   58 1   
    54   34   59 1   
    55   34   60 1   
    56   34   61 1   
@<TRIPOS>SUBSTRUCTURE
     1 0WN         1 TEMP              0 ****  ****    0 ROOT
