@<TRIPOS>MOLECULE
0WO
   49    49     1     0     0
SMALL
bcc


@<TRIPOS>ATOM
      1 C          -0.6150   -0.5780   -1.2010 c2        1 0WO      0.360000
      2 N           1.6460    0.5860   -1.4060 ns        1 0WO     -0.182000
      3 OXT        -0.9300    0.1390   -0.2290 o         1 0WO     -0.472000
      4 CA          0.7890   -0.2880   -1.8580 c2        1 0WO      0.066000
      5 CB          0.6560   -2.0440    2.2210 c3        1 0WO     -0.127000
      6 CAI         8.0360    0.6730   -5.1890 c1        1 0WO      0.169000
      7 CAJ         7.3520    0.6370   -4.0670 c2        1 0WO     -0.432000
      8 CAK         7.8300    0.7060   -1.0280 c2        1 0WO     -0.221000
      9 CAL         6.3380    1.5560   -3.6060 c2        1 0WO     -0.061000
     10 CAM         6.5380    1.0130   -1.1630 c2        1 0WO     -0.127000
     11 NAN         4.9960    3.9000   -1.6460 n2        1 0WO     -0.025000
     12 NAP         1.3410   -1.0900    1.3940 n7        1 0WO     -0.279000
     13 OAQ         3.8170    4.3730   -1.2660 os        1 0WO     -0.061000
     14 SAR         1.1960   -1.8770    3.9560 ss        1 0WO     -0.138000
     15 CAT         3.1570    0.6440    1.4840 c2        1 0WO      0.343000
     16 CAU         2.8830    0.9160   -2.0940 c2        1 0WO      0.384000
     17 CAV         2.8400    3.3650   -1.3080 c2        1 0WO      0.123000
     18 CAW         5.9680    1.6980   -2.3170 c2        1 0WO     -0.005000
     19 CAX         4.8650    2.6000   -1.9700 c2        1 0WO      0.003000
     20 CAY         3.4540    2.2140   -1.8010 c2        1 0WO     -0.256000
     21 CBB         2.6090   -0.7090    2.0060 c3        1 0WO     -0.107000
     22 CBC         2.5190   -0.6940    3.5570 c3        1 0WO     -0.105000
     23 O          -1.2450   -1.4780   -1.7910 o         1 0WO     -0.472000
     24 HN          1.0090   -0.8420   -2.7970 h4        1 0WO      0.161000
     25 HA          0.9330   -3.0800    1.9000 h2        1 0WO      0.106000
     26 HB         -0.4540   -1.9220    2.1740 h2        1 0WO      0.106000
     27 HAA         0.7170    3.3080   -1.4930 hc        1 0WO      0.134667
     28 HAAA        1.3840    3.2690    0.2090 hc        1 0WO      0.134667
     29 HAAB        1.3930    4.8280   -0.7450 hc        1 0WO      0.134667
     30 HAI         8.5950    0.9590   -1.7730 ha        1 0WO      0.109000
     31 HAJ         7.5640   -0.2160   -3.3770 ha        1 0WO      0.209000
     32 HAK         8.2020    0.1990   -0.1280 ha        1 0WO      0.109000
     33 HAL         5.8290    2.1390   -4.3920 ha        1 0WO      0.131000
     34 HAM         5.8120    0.7880   -0.3470 ha        1 0WO      0.202000
     35 HNAP        0.7680   -0.2720    1.2350 hn        1 0WO      0.194000
     36 HBB         3.3590   -1.5040    1.7160 h1        1 0WO      0.106000
     37 CAB         3.8180   -1.1590    4.1650 c3        1 0WO     -0.198000
     38 CAC         2.1300    0.6660    4.0820 c3        1 0WO     -0.198000
     39 OAE         2.3350    1.5610    1.1540 o         1 0WO     -0.581500
     40 OAF         3.3300    0.1010   -2.9090 o         1 0WO     -0.284000
     41 OAH         4.4040    0.7710    1.3800 o         1 0WO     -0.581500
     42 H2          1.4970    1.0440   -0.4900 hn        1 0WO      0.339000
     43 CAA         1.5100    3.7190   -0.8210 c3        1 0WO     -0.209000
     44 HAB         3.7960   -1.0420    5.2760 hc        1 0WO      0.083000
     45 HABA        4.6570   -0.5420    3.7510 hc        1 0WO      0.083000
     46 HABB        4.0090   -2.2310    3.9220 hc        1 0WO      0.083000
     47 HAC         1.8960    0.6140    5.1720 hc        1 0WO      0.083000
     48 HACA        2.9710    1.3870    3.9230 hc        1 0WO      0.083000
     49 HACB        1.2380    1.0540    3.5310 hc        1 0WO      0.083000
@<TRIPOS>BOND
     1    1    3 1   
     2    1    4 1   
     3    1   23 1   
     4    2    4 1   
     5    2   16 1   
     6    2   42 1   
     7    4   24 1   
     8    5   12 1   
     9    5   14 1   
    10    5   25 1   
    11    5   26 1   
    12    6    7 1   
    13    7    9 1   
    14    7   31 1   
    15    8   10 1   
    16    8   30 1   
    17    8   32 1   
    18    9   18 1   
    19    9   33 1   
    20   10   18 1   
    21   10   34 1   
    22   11   13 1   
    23   11   19 1   
    24   12   21 1   
    25   12   35 1   
    26   13   17 1   
    27   14   22 1   
    28   15   21 1   
    29   15   39 1   
    30   15   41 1   
    31   16   20 1   
    32   16   40 1   
    33   17   20 1   
    34   17   43 1   
    35   18   19 1   
    36   19   20 1   
    37   21   22 1   
    38   21   36 1   
    39   22   37 1   
    40   22   38 1   
    41   27   43 1   
    42   28   43 1   
    43   29   43 1   
    44   37   44 1   
    45   37   45 1   
    46   37   46 1   
    47   38   47 1   
    48   38   48 1   
    49   38   49 1   
@<TRIPOS>SUBSTRUCTURE
     1 0WO         1 TEMP              0 ****  ****    0 ROOT
