@<TRIPOS>MOLECULE
0WO
   48    50     1     0     0
SMALL
bcc


@<TRIPOS>ATOM
      1 C          -0.7170   -3.0540   -0.0040 c         1 0WO      0.905600
      2 N           0.4520   -0.8870   -0.1660 n         1 0WO     -0.488900
      3 OXT        -0.1630   -3.4160   -1.0860 o         1 0WO     -0.831800
      4 CA         -0.7820   -1.5070    0.3010 c3        1 0WO     -0.052300
      5 CB         -2.0200   -0.8680   -0.3730 c3        1 0WO      0.319600
      6 CAI         3.4010    4.4590    1.2460 ca        1 0WO     -0.132000
      7 CAJ         4.6660    3.8720    1.2120 ca        1 0WO     -0.144000
      8 CAK         2.2830    3.7200    0.8630 ca        1 0WO     -0.144000
      9 CAL         4.8160    2.5510    0.7930 ca        1 0WO     -0.090500
     10 CAM         2.4230    2.3970    0.4460 ca        1 0WO     -0.090500
     11 NAN         4.9440   -0.0630   -0.6690 nc        1 0WO     -0.405300
     12 NAP        -2.0020    0.5720   -0.4940 n3        1 0WO     -0.761200
     13 OAQ         4.7420   -1.3280   -0.9770 os        1 0WO     -0.144100
     14 SAR        -3.5190   -1.3360    0.6010 ss        1 0WO     -0.456200
     15 CAT        -3.8770    1.6400   -1.8220 c         1 0WO      0.934600
     16 CAU         1.5050   -0.6270    0.6770 c         1 0WO      0.678700
     17 CAV         3.4460   -1.7330   -0.5660 cc        1 0WO      0.317000
     18 CAW         3.6940    1.8040    0.4060 ca        1 0WO     -0.120500
     19 CAX         3.8440    0.4290   -0.0500 cd        1 0WO      0.410800
     20 CAY         2.8460   -0.6410    0.0410 cd        1 0WO     -0.362200
     21 CBB        -3.3350    1.1630   -0.4280 c3        1 0WO      0.047500
     22 CBC        -4.3530    0.2370    0.2980 c3        1 0WO      0.053100
     23 O          -1.1370   -3.8450    0.8760 o         1 0WO     -0.831800
     24 HN          0.6820   -1.1800   -1.0970 hn        1 0WO      0.315500
     25 HA         -0.8610   -1.3720    1.4180 h1        1 0WO      0.085700
     26 HB         -2.1650   -1.3050   -1.3980 h2        1 0WO      0.112700
     27 HAA         3.5680   -3.4900   -1.7620 hc        1 0WO      0.089367
     28 HAAA        3.3500   -3.7660    0.0220 hc        1 0WO      0.089367
     29 HAAB        1.9380   -3.1940   -0.9770 hc        1 0WO      0.089367
     30 HAB        -5.4120    0.1210    2.1920 hc        1 0WO      0.032700
     31 HABA       -3.8260    0.9950    2.2670 hc        1 0WO      0.032700
     32 HABB       -5.2660    1.7920    1.5020 hc        1 0WO      0.032700
     33 HAC        -6.3060   -0.6650    0.0230 hc        1 0WO      0.032700
     34 HACA       -6.0900    0.9600   -0.7680 hc        1 0WO      0.032700
     35 HACB       -5.3080   -0.5020   -1.4960 hc        1 0WO      0.032700
     36 HAI         3.2860    5.5010    1.5750 ha        1 0WO      0.116000
     37 HAJ         5.5490    4.4510    1.5160 ha        1 0WO      0.127500
     38 HAK         1.2810    4.1750    0.8900 ha        1 0WO      0.127500
     39 HAL         5.8160    2.0950    0.7690 ha        1 0WO      0.154500
     40 HAM         1.5310    1.8130    0.1580 ha        1 0WO      0.154500
     41 HNAP       -1.4370    0.9670    0.2390 hn        1 0WO      0.334800
     42 HBB        -3.2510    2.1170    0.1780 h1        1 0WO      0.037700
     43 CAB        -4.7340    0.8190    1.6420 c3        1 0WO     -0.074100
     44 CAC        -5.5890   -0.0110   -0.5300 c3        1 0WO     -0.074100
     45 OAE        -3.8950    0.8660   -2.8120 o         1 0WO     -0.841800
     46 OAF         1.3800   -0.3390    1.8880 o         1 0WO     -0.625100
     47 OAH        -4.2970    2.8350   -1.8450 o         1 0WO     -0.841800
     48 CAA         3.0590   -3.1140   -0.8410 c3        1 0WO     -0.181400
@<TRIPOS>BOND
     1    1    3 1   
     2    1    4 1   
     3    1   23 1   
     4    2    4 1   
     5    2   16 1   
     6    2   24 1   
     7    4    5 1   
     8    4   25 1   
     9    5   12 1   
    10    5   14 1   
    11    5   26 1   
    12    6    7 ar  
    13    6    8 ar  
    14    6   36 1   
    15    7    9 ar  
    16    7   37 1   
    17    8   10 ar  
    18    8   38 1   
    19    9   18 ar  
    20    9   39 1   
    21   10   18 ar  
    22   10   40 1   
    23   11   13 1   
    24   11   19 2   
    25   12   21 1   
    26   12   41 1   
    27   13   17 1   
    28   14   22 1   
    29   15   21 1   
    30   15   45 1   
    31   15   47 1   
    32   16   20 1   
    33   16   46 2   
    34   17   20 2   
    35   17   48 1   
    36   18   19 1   
    37   19   20 1   
    38   21   22 1   
    39   21   42 1   
    40   22   43 1   
    41   22   44 1   
    42   27   48 1   
    43   28   48 1   
    44   29   48 1   
    45   30   43 1   
    46   31   43 1   
    47   32   43 1   
    48   33   44 1   
    49   34   44 1   
    50   35   44 1   
@<TRIPOS>SUBSTRUCTURE
     1 0WO         1 TEMP              0 ****  ****    0 ROOT
