@<TRIPOS>MOLECULE
0WO
   49    49     1     0     0
SMALL
bcc


@<TRIPOS>ATOM
      1 C          -0.8580    0.6890    0.2000 c2        1 0WO      0.348000
      2 N           1.3480    1.2400   -0.7750 n         1 0WO     -0.348000
      3 OXT        -0.9320    1.7880    0.8020 o         1 0WO     -0.518500
      4 CA          0.6230    0.1730   -0.1330 c3        1 0WO     -0.099000
      5 CB          1.2790   -0.2920    1.1910 c3        1 0WO     -0.230000
      6 CAI         8.7470    1.1520   -3.7730 c1        1 0WO      0.177000
      7 CAJ         7.6710    1.2220   -3.0200 c2        1 0WO     -0.441000
      8 CAK         6.4640    1.9070   -0.1650 c2        1 0WO     -0.188000
      9 CAL         6.4050    1.8460   -3.3170 c2        1 0WO     -0.054000
     10 CAM         5.4970    1.5750   -1.0200 c2        1 0WO     -0.155000
     11 NAN         4.0680    3.7390   -3.5770 n2        1 0WO     -0.044000
     12 NAP         2.7320   -0.5900    1.0300 n4        1 0WO     -0.033000
     13 OAQ         2.8000    4.0710   -3.7310 os        1 0WO     -0.064000
     14 SAR         0.3430   -1.6830    1.7990 ss        1 0WO      0.340000
     15 CAT         4.8280   -0.9240    2.3920 c2        1 0WO      0.349000
     16 CAU         2.3600    1.0380   -1.6790 c2        1 0WO      0.370000
     17 CAV         1.9700    3.1630   -3.0410 c2        1 0WO      0.025000
     18 CAW         5.4150    2.0020   -2.4110 c2        1 0WO     -0.008000
     19 CAX         4.1540    2.6260   -2.8120 c2        1 0WO     -0.008000
     20 CAY         2.7920    2.2130   -2.4510 c2        1 0WO     -0.216000
     21 CBB         3.3890   -1.5020    2.0260 c3        1 0WO     -0.163000
     22 CBC         2.5830   -1.8220    3.2440 c2        1 0WO     -0.064000
     23 O          -1.7850   -0.0320   -0.2280 o         1 0WO     -0.518500
     24 HN          1.1930    0.5470    1.9440 hx        1 0WO      0.174000
     25 HA          0.5490   -0.7090   -0.8310 h1        1 0WO      0.122000
     26 HB          3.2540    0.3110    1.0820 hn        1 0WO      0.257000
     27 HAA        -0.0220    2.4320   -3.1530 hc        1 0WO      0.119000
     28 HAAA        0.2020    3.9300   -2.1510 hc        1 0WO      0.119000
     29 HAAB        0.2610    4.0420   -3.9660 hc        1 0WO      0.119000
     30 HAI         7.3030    2.5620   -0.4340 ha        1 0WO      0.136000
     31 HAJ         7.7360    0.7330   -2.0150 ha        1 0WO      0.215000
     32 HAK         6.4480    1.5380    0.8760 ha        1 0WO      0.136000
     33 HAL         6.2680    2.1870   -4.3580 ha        1 0WO      0.135000
     34 HAM         4.6670    0.9220   -0.6900 ha        1 0WO      0.139000
     35 HNAP        2.8890   -0.9800    0.0880 hn        1 0WO      0.257000
     36 HBB         3.5710   -2.4860    1.4950 hx        1 0WO      0.138000
     37 CAB         3.3440   -2.0190    4.4970 c3        1 0WO     -0.185000
     38 CAC         1.2510   -2.0000    3.1710 c2        1 0WO     -0.408000
     39 OAE         5.0120    0.3040    2.1750 o         1 0WO     -0.522000
     40 OAF         2.8890   -0.0920   -1.8170 o         1 0WO     -0.413000
     41 OAH         5.6540   -1.7530    2.8280 o         1 0WO     -0.522000
     42 H2          0.9550    2.1500   -0.6550 hn        1 0WO      0.255000
     43 CAA         0.5290    3.4040   -3.0870 c3        1 0WO     -0.183000
     44 HAB         3.8620   -1.0660    4.7810 hc        1 0WO      0.099667
     45 HABA        4.1410   -2.7930    4.3410 hc        1 0WO      0.099667
     46 HABB        2.6760   -2.3370    5.3330 hc        1 0WO      0.099667
     47 HAC         5.9010    0.0880    4.4740 ha        1 0WO      0.000000
     48 HACA        0.6810   -2.3580    4.0410 h4        1 0WO      0.156000
     49 HACB        5.9080    0.2750    5.1270 ha        1 0WO      0.000000
@<TRIPOS>BOND
     1    1    3 1   
     2    1    4 1   
     3    1   23 1   
     4    2    4 1   
     5    2   16 1   
     6    2   42 1   
     7    4    5 1   
     8    4   25 1   
     9    5   12 1   
    10    5   14 1   
    11    5   24 1   
    12    6    7 1   
    13    7    9 1   
    14    7   31 1   
    15    8   10 1   
    16    8   30 1   
    17    8   32 1   
    18    9   18 1   
    19    9   33 1   
    20   10   18 1   
    21   10   34 1   
    22   11   13 1   
    23   11   19 1   
    24   12   21 1   
    25   12   26 1   
    26   12   35 1   
    27   13   17 1   
    28   14   38 1   
    29   15   21 1   
    30   15   39 1   
    31   15   41 1   
    32   16   20 1   
    33   16   40 1   
    34   17   20 1   
    35   17   43 1   
    36   18   19 1   
    37   19   20 1   
    38   21   22 1   
    39   21   36 1   
    40   22   37 1   
    41   22   38 1   
    42   27   43 1   
    43   28   43 1   
    44   29   43 1   
    45   37   44 1   
    46   37   45 1   
    47   37   46 1   
    48   38   48 1   
    49   47   49 1   
@<TRIPOS>SUBSTRUCTURE
     1 0WO         1 TEMP              0 ****  ****    0 ROOT
