@<TRIPOS>MOLECULE
0WO
   48    46     1     0     0
SMALL
bcc


@<TRIPOS>ATOM
      1 C          -1.8230   -0.5890    0.5810 c1        1 0WO      0.325000
      2 N           0.0770    0.8880    0.4240 n         1 0WO     -0.290000
      3 OXT        -2.3380   -1.0690   -0.4540 os        1 0WO     -0.532000
      4 CA         -0.3310   -0.4790    0.6940 c3        1 0WO     -0.079000
      5 CB          0.1000   -0.8600    2.0840 c3        1 0WO     -0.057000
      6 CAA        -0.3260    4.1840    1.1430 c3        1 0WO     -0.208000
      7 CAB        -0.5160   -3.8840    1.4260 c3        1 0WO     -0.192500
      8 CAC        -0.6670   -3.9540    3.9330 c3        1 0WO     -0.192500
      9 OAE         2.5780   -3.3260    4.7170 o         1 0WO     -0.576000
     10 OAF        -1.9260    1.5040   -0.4630 o         1 0WO     -0.405000
     11 OAH         1.5130   -1.4170    4.6830 o         1 0WO     -0.576000
     12 CAI         0.7560    0.9190   -5.9360 c1        1 0WO     -0.131000
     13 CAJ        -0.5720    1.1700   -5.6170 c1        1 0WO     -0.131000
     14 CAK         1.7680    1.3650   -5.0980 c1        1 0WO     -0.131000
     15 CAL        -0.8900    1.8750   -4.4480 c1        1 0WO     -0.090000
     16 CAM         1.4490    2.0720   -3.9260 c1        1 0WO     -0.131000
     17 NAN        -0.4720    4.5880   -2.5150 n2        1 0WO     -0.070000
     18 NAP         1.5120   -1.5870    2.0350 n3        1 0WO     -0.239000
     19 OAQ        -0.5480    5.0970   -1.2280 os        1 0WO     -0.086000
     20 SAR        -0.9170   -1.8990    2.7130 ss        1 0WO     -0.103000
     21 CAT         1.8230   -2.4980    4.1230 c2        1 0WO      0.354000
     22 CAU        -0.7420    1.7290   -0.3680 c2        1 0WO      0.363000
     23 CAV        -0.3370    4.0770   -0.3590 c2        1 0WO      0.029000
     24 CAW         0.1240    2.3230   -3.6070 c1        1 0WO     -0.016000
     25 CAX        -0.2160    3.2590   -2.4260 c2        1 0WO     -0.028000
     26 CAY        -0.1300    2.9320   -1.0900 c2        1 0WO     -0.208000
     27 CBB         1.3820   -2.7630    2.8280 c3        1 0WO     -0.100000
     28 CBC        -0.2350   -3.1170    2.7220 c3        1 0WO     -0.128000
     29 O          -2.5550   -0.1630    1.5070 o         1 0WO     -0.601000
     30 HN          0.8340    1.2240    0.8140 hn        1 0WO      0.229000
     31 HA          0.0890   -1.0760    0.0490 h1        1 0WO      0.128000
     32 HB          0.1550   -0.0600    2.6500 h2        1 0WO      0.157000
     33 HAA        -1.2440    4.1880    1.4770 hc        1 0WO      0.129667
     34 HAAA        0.1240    5.0160    1.4080 hc        1 0WO      0.129667
     35 HAAB        0.1530    3.4240    1.5180 hc        1 0WO      0.129667
     36 HAB         0.1990   -3.7120    0.7850 hc        1 0WO      0.071667
     37 HABA       -1.3730   -3.5860    1.0480 hc        1 0WO      0.071667
     38 HABB       -0.5590   -4.8510    1.6180 hc        1 0WO      0.071667
     39 HAC        -0.6030   -3.4100    4.7450 hc        1 0WO      0.071667
     40 HACA       -1.5920   -4.2510    3.8110 hc        1 0WO      0.071667
     41 HACB       -0.0750   -4.7430    4.0170 hc        1 0WO      0.071667
     42 HAI         0.9800    0.4230   -6.7590 ha        1 0WO      0.124500
     43 HAJ        -1.3060    0.7730   -6.1780 ha        1 0WO      0.124500
     44 HAK         2.7120    1.1670   -5.3130 ha        1 0WO      0.124500
     45 HAL        -1.8410    2.0550   -4.2200 ha        1 0WO      0.188000
     46 HAM         2.1790    2.3930   -3.3210 ha        1 0WO      0.124500
     47 HNAP        1.7020   -1.8220    1.1730 hn        1 0WO      0.132000
     48 HBB         1.9260   -3.5330    2.5970 h1        1 0WO      0.079000
@<TRIPOS>BOND
     1    1    4 1   
     2    1   29 1   
     3    2    4 1   
     4    2   22 1   
     5    2   30 1   
     6    4    5 1   
     7    4   31 1   
     8    5   18 1   
     9    5   20 1   
    10    5   32 1   
    11    6   23 1   
    12    6   33 1   
    13    6   34 1   
    14    6   35 1   
    15    7   28 1   
    16    7   36 1   
    17    7   37 1   
    18    7   38 1   
    19    8   28 1   
    20    8   39 1   
    21    8   40 1   
    22    8   41 1   
    23    9   21 1   
    24   10   22 1   
    25   11   21 1   
    26   12   13 1   
    27   12   42 1   
    28   13   43 1   
    29   14   16 1   
    30   14   44 1   
    31   15   24 1   
    32   15   45 1   
    33   16   46 1   
    34   17   19 1   
    35   17   25 1   
    36   18   27 1   
    37   18   47 1   
    38   19   23 1   
    39   20   28 1   
    40   21   27 1   
    41   22   26 1   
    42   23   26 1   
    43   24   25 1   
    44   25   26 1   
    45   27   28 1   
    46   27   48 1   
@<TRIPOS>SUBSTRUCTURE
     1 0WO         1 TEMP              0 ****  ****    0 ROOT
