@<TRIPOS>MOLECULE
0WO
   49    50     1     0     0
SMALL
bcc


@<TRIPOS>ATOM
      1 C          -0.0540    1.0300   -0.1730 c2        1 0WO      0.344000
      2 N           2.3840    0.5890   -0.5220 n4        1 0WO     -0.059000
      3 OXT         0.0150    1.4970   -1.3540 o         1 0WO     -0.517500
      4 CA          1.1760    0.1440    0.2520 c3        1 0WO     -0.162000
      5 CB          1.3900    0.1240    1.7790 c3        1 0WO     -0.102000
      6 CAI         8.1710    0.2160   -3.4810 c1        1 0WO      0.199000
      7 CAJ         7.3320    0.9180   -2.7500 c2        1 0WO     -0.453000
      8 CAK         5.7890    0.8220   -0.1030 c2        1 0WO     -0.191000
      9 CAL         6.0460    1.4510   -3.1240 c2        1 0WO     -0.040000
     10 CAM         5.2000    1.7960   -0.8020 c2        1 0WO     -0.205000
     11 NAN         3.8080    3.5600   -3.5220 n2        1 0WO     -0.024000
     12 NAP         2.5480    0.8560    2.2410 n3        1 0WO     -0.299000
     13 OAQ         2.5520    3.8070   -3.8530 os        1 0WO     -0.070000
     14 SAR         1.5500   -1.6310    2.2780 ss        1 0WO     -0.111000
     15 CAT         4.7510    0.6060    3.4350 c2        1 0WO      0.351000
     16 CAU         2.0770    0.6740   -1.9980 c2        1 0WO      0.411000
     17 CAV         1.6960    2.8140   -3.3350 c2        1 0WO      0.129000
     18 CAW         5.0900    1.8400   -2.2520 c2        1 0WO     -0.042000
     19 CAX         3.8600    2.4330   -2.7820 c2        1 0WO     -0.036000
     20 CAY         2.4950    1.9120   -2.6410 c2        1 0WO     -0.272000
     21 CBB         3.6600   -0.0440    2.5080 c3        1 0WO     -0.133000
     22 CBC         3.1780   -1.4030    3.0630 c3        1 0WO     -0.108000
     23 O          -0.9940    1.1810    0.6290 o         1 0WO     -0.517500
     24 HN          2.6700    1.5160   -0.1840 hn        1 0WO      0.252000
     25 HA          0.9360   -0.9070   -0.0920 hx        1 0WO      0.153000
     26 HB          0.4330    0.5150    2.2330 h2        1 0WO      0.175000
     27 HAA        -0.2340    3.3720   -2.6860 hc        1 0WO      0.131667
     28 HAAA        0.0800    3.6130   -4.4780 hc        1 0WO      0.131667
     29 HAAB       -0.1780    1.9340   -3.7680 hc        1 0WO      0.131667
     30 HAI         6.1960   -0.0850   -0.5730 ha        1 0WO      0.158000
     31 HAJ         7.6600    1.1430   -1.7030 ha        1 0WO      0.216000
     32 HAK         5.8960    0.8620    1.0030 ha        1 0WO      0.158000
     33 HAL         5.8710    1.5540   -4.2100 ha        1 0WO      0.136000
     34 HAM         4.7840    2.6800   -0.2830 ha        1 0WO      0.146000
     35 HNAP        2.3440    1.4070    3.0580 hn        1 0WO      0.207000
     36 HBB         4.1630   -0.2540    1.5160 h1        1 0WO      0.068000
     37 CAB         4.1050   -2.5150    2.6390 c3        1 0WO     -0.196000
     38 CAC         3.0100   -1.3790    4.5620 c3        1 0WO     -0.196000
     39 OAE         4.3690    1.2680    4.4300 o         1 0WO     -0.549000
     40 OAF         1.6440   -0.3340   -2.5480 o         1 0WO     -0.245000
     41 OAH         5.9440    0.4100    3.0750 o         1 0WO     -0.549000
     42 H2          3.1560   -0.0660   -0.3610 hn        1 0WO      0.252000
     43 CAA         0.2680    2.9490   -3.6000 c3        1 0WO     -0.183000
     44 HAB         3.8340   -3.4700    3.1500 hc        1 0WO      0.084833
     45 HABA        5.1540   -2.2380    2.9160 hc        1 0WO      0.084833
     46 HABB        4.0580   -2.6760    1.5360 hc        1 0WO      0.084833
     47 HAC         2.4090   -0.4890    4.8730 hc        1 0WO      0.084833
     48 HACA        4.0140   -1.2920    5.0500 hc        1 0WO      0.084833
     49 HACB        2.5050   -2.3090    4.9170 hc        1 0WO      0.084833
@<TRIPOS>BOND
     1    1    3 1   
     2    1    4 1   
     3    1   23 1   
     4    2    4 1   
     5    2   16 1   
     6    2   24 1   
     7    2   42 1   
     8    4    5 1   
     9    4   25 1   
    10    5   12 1   
    11    5   14 1   
    12    5   26 1   
    13    6    7 1   
    14    7    9 1   
    15    7   31 1   
    16    8   10 1   
    17    8   30 1   
    18    8   32 1   
    19    9   18 1   
    20    9   33 1   
    21   10   18 1   
    22   10   34 1   
    23   11   13 1   
    24   11   19 1   
    25   12   21 1   
    26   12   35 1   
    27   13   17 1   
    28   14   22 1   
    29   15   21 1   
    30   15   39 1   
    31   15   41 1   
    32   16   20 1   
    33   16   40 1   
    34   17   20 1   
    35   17   43 1   
    36   18   19 1   
    37   19   20 1   
    38   21   22 1   
    39   21   36 1   
    40   22   37 1   
    41   22   38 1   
    42   27   43 1   
    43   28   43 1   
    44   29   43 1   
    45   37   44 1   
    46   37   45 1   
    47   37   46 1   
    48   38   47 1   
    49   38   48 1   
    50   38   49 1   
@<TRIPOS>SUBSTRUCTURE
     1 0WO         1 TEMP              0 ****  ****    0 ROOT
