@<TRIPOS>MOLECULE
0WP
   58    61     1     0     0
SMALL
bcc


@<TRIPOS>ATOM
      1 C1         -0.3870   -3.0710    1.8420 c         1 0WP      0.558700
      2 C2          1.0550   -2.8970    1.5890 ca        1 0WP     -0.242600
      3 O3         -1.1110   -3.9260    1.3560 o         1 0WP     -0.366100
      4 C4          1.9900   -2.7280    2.6340 ca        1 0WP      0.229900
      5 C5          3.3720   -2.5920    2.3450 ca        1 0WP     -0.091400
      6 C6          3.8100   -2.6580    1.0040 ca        1 0WP     -0.009000
      7 C7          2.9040   -2.8420   -0.0240 ca        1 0WP     -0.149000
      8 C8          1.5220   -2.9590    0.2520 ca        1 0WP      0.288900
      9 F9          0.6550   -3.1190   -0.7580 f         1 0WP     -0.057900
     10 F10         1.5630   -2.7070    3.9170 f         1 0WP     -0.113900
     11 N11         4.3300   -2.3560    3.4180 n4        1 0WP     -0.560200
     12 N12        -1.0620   -2.0830    2.7680 n4        1 0WP     -0.500200
     13 C13         4.3460   -0.8650    3.8660 c         1 0WP      0.604700
     14 C14         5.6730   -0.2740    3.9450 ca        1 0WP     -0.217600
     15 O15         3.2400   -0.3930    4.0640 o         1 0WP     -0.421100
     16 C16         6.7890   -0.9770    4.4310 ca        1 0WP     -0.099000
     17 C17         8.0160   -0.3310    4.5050 ca        1 0WP     -0.109000
     18 C18         8.1500    0.9980    4.0830 ca        1 0WP     -0.034000
     19 C19         7.0460    1.7030    3.5960 ca        1 0WP     -0.064300
     20 C20         5.7970    1.0670    3.5490 ca        1 0WP     -0.036000
     21 C21         7.1460    3.1360    3.1240 c3        1 0WP      0.062400
     22 C22         6.5460    4.0600    4.1880 c3        1 0WP     -0.097100
     23 C23         8.5870    3.5600    2.8480 c3        1 0WP     -0.097100
     24 C24        -1.0630   -0.7320    2.2300 ca        1 0WP     -0.307700
     25 C25        -2.1040   -0.2760    1.4190 ca        1 0WP      0.103000
     26 C26        -2.0220    1.0380    0.9790 ca        1 0WP     -0.311300
     27 C27        -0.8690    1.8960    1.3680 ca        1 0WP      0.316300
     28 N28         0.1470    1.4060    2.1860 nb        1 0WP     -0.574000
     29 C29         0.0250    0.1660    2.5850 ca        1 0WP      0.440200
     30 C30        -2.8270    1.9070    0.1740 cc        1 0WP      0.208000
     31 N31        -2.1630    3.1230    0.1260 na        1 0WP      0.008800
     32 N32        -1.0110    3.1440    0.8210 nc        1 0WP     -0.187400
     33 C33         6.3770    3.2620    1.8840 c1        1 0WP      0.193700
     34 N34         5.7740    3.3650    0.8960 n1        1 0WP     -0.338800
     35 O35        -3.9900    1.5520   -0.4090 os        1 0WP     -0.270900
     36 C36        -4.6950    2.5640   -1.1510 c3        1 0WP      0.093700
     37 H1          4.8860   -2.5630    0.7560 ha        1 0WP      0.191000
     38 H2          3.2470   -2.8990   -1.0750 ha        1 0WP      0.217000
     39 H3          5.2720   -2.6210    3.1010 hn        1 0WP      0.471800
     40 H4         -0.5810   -2.0800    3.6770 hn        1 0WP      0.471800
     41 H5          6.7050   -2.0130    4.7950 ha        1 0WP      0.135000
     42 H6          8.8960   -0.8660    4.9040 ha        1 0WP      0.178000
     43 H7          9.1430    1.4810    4.1450 ha        1 0WP      0.181000
     44 H8          4.9090    1.6240    3.1990 ha        1 0WP      0.174000
     45 H9          7.1260    3.9680    5.1370 hc        1 0WP      0.063533
     46 H10         6.5960    5.1200    3.8390 hc        1 0WP      0.063533
     47 H11         5.4810    3.7940    4.3840 hc        1 0WP      0.063533
     48 H12         9.1580    3.6280    3.8050 hc        1 0WP      0.063533
     49 H13         9.0920    2.8350    2.1650 hc        1 0WP      0.063533
     50 H14         8.5950    4.5680    2.3650 hc        1 0WP      0.063533
     51 H15        -2.9640   -0.9070    1.1310 ha        1 0WP      0.172000
     52 H16         0.8340   -0.1950    3.2550 h4        1 0WP      0.024100
     53 H17        -2.4610    3.9560   -0.3430 hn        1 0WP      0.359700
     54 H18        -5.6080    2.0130   -1.5010 h1        1 0WP      0.081033
     55 H19        -4.9750    3.4110   -0.4810 h1        1 0WP      0.081033
     56 H20        -4.0800    2.9050   -2.0180 h1        1 0WP      0.081033
     57 H112        4.0770   -2.9370    4.2280 hn        1 0WP      0.471800
     58 H122       -2.0390   -2.3910    2.9120 hn        1 0WP      0.471800
@<TRIPOS>BOND
     1    1    2 1   
     2    1    3 2   
     3    1   12 1   
     4    2    4 ar  
     5    2    8 ar  
     6    4    5 ar  
     7    4   10 1   
     8    5    6 ar  
     9    5   11 1   
    10    6    7 ar  
    11    6   37 1   
    12    7    8 ar  
    13    7   38 1   
    14    8    9 1   
    15   11   13 1   
    16   11   39 1   
    17   11   57 1   
    18   12   24 1   
    19   12   40 1   
    20   12   58 1   
    21   13   14 1   
    22   13   15 2   
    23   14   16 ar  
    24   14   20 ar  
    25   16   17 ar  
    26   16   41 1   
    27   17   18 ar  
    28   17   42 1   
    29   18   19 ar  
    30   18   43 1   
    31   19   20 ar  
    32   19   21 1   
    33   20   44 1   
    34   21   22 1   
    35   21   23 1   
    36   21   33 1   
    37   22   45 1   
    38   22   46 1   
    39   22   47 1   
    40   23   48 1   
    41   23   49 1   
    42   23   50 1   
    43   24   25 ar  
    44   24   29 ar  
    45   25   26 ar  
    46   25   51 1   
    47   26   27 ar  
    48   26   30 2   
    49   27   28 ar  
    50   27   32 2   
    51   28   29 ar  
    52   29   52 1   
    53   30   31 1   
    54   30   35 1   
    55   31   32 1   
    56   31   53 1   
    57   33   34 3   
    58   35   36 1   
    59   36   54 1   
    60   36   55 1   
    61   36   56 1   
@<TRIPOS>SUBSTRUCTURE
     1 0WP         1 TEMP              0 ****  ****    0 ROOT
