@<TRIPOS>MOLECULE
0WP
   56    44     1     0     0
SMALL
bcc


@<TRIPOS>ATOM
      1 C1         -1.8430    1.1810   -2.2320 c1        1 0WP      0.359000
      2 C2         -0.3490    1.4010   -2.1990 c1        1 0WP     -0.171000
      3 O3         -2.4070    0.7620   -1.2660 o         1 0WP     -0.331000
      4 C4          0.2350    1.1270   -0.9770 c1        1 0WP      0.108000
      5 C5          1.6380    0.8970   -0.8930 c1        1 0WP      0.035000
      6 C6          2.4120    0.9470   -2.0310 c2        1 0WP     -0.093000
      7 C7          1.8140    1.2270   -3.2760 c1        1 0WP     -0.155000
      8 C8          0.4400    1.4520   -3.3560 c1        1 0WP      0.106000
      9 F9         -0.1200    1.7430   -4.5380 f         1 0WP     -0.098000
     10 F10        -0.5550    0.9360    0.1350 f         1 0WP     -0.085000
     11 N11         2.2670    0.7820    0.4150 n2        1 0WP     -0.320000
     12 N12        -2.5710    1.4260   -3.4280 n3        1 0WP     -0.302000
     13 C13         3.6680    0.5260    0.5150 c1        1 0WP      0.359000
     14 C14         4.3060    0.2860    1.8870 c1        1 0WP     -0.127000
     15 O15         4.3360    0.4020   -0.4960 o         1 0WP     -0.341000
     16 C16         5.5880    0.8220    1.9240 c1        1 0WP     -0.103500
     17 C17         6.4280    0.5490    3.0040 c1        1 0WP     -0.103500
     18 C18         5.9830   -0.2610    4.0450 c1        1 0WP     -0.098000
     19 C19         4.7140   -0.7920    4.0110 c1        1 0WP     -0.076000
     20 C20         3.8650   -0.5180    2.9220 c2        1 0WP     -0.092000
     21 C21         4.2210   -1.6810    5.1630 c2        1 0WP      0.084000
     22 C22         5.0980   -2.9400    5.2480 c3        1 0WP     -0.207500
     23 C23         4.3110   -0.9030    6.4840 c3        1 0WP     -0.207500
     24 C24        -3.9710    1.1710   -3.4680 c2        1 0WP     -0.015000
     25 C25        -4.9160    0.2790   -3.0480 c2        1 0WP     -0.065000
     26 C26        -6.2760    0.5220   -3.3070 c1        1 0WP     -0.167000
     27 C27        -6.6450    1.6290   -3.9670 c1        1 0WP     -0.059000
     28 N28        -5.6760    2.5430   -4.3970 n1        1 0WP     -0.074000
     29 C29        -4.3500    2.3060   -4.1440 c1        1 0WP     -0.059000
     30 C30        -7.4230   -0.2170   -3.0400 c1        1 0WP      0.051000
     31 N31        -8.4630    0.4460   -3.5360 n2        1 0WP     -0.115000
     32 N32        -7.9940    1.5980   -4.1170 n1        1 0WP     -0.060000
     33 C33         2.7920   -2.0770    4.9170 c1        1 0WP     -0.140000
     34 N34         1.7010   -2.3820    4.7320 n1        1 0WP     -0.039000
     35 O35        -7.3500   -1.5820   -2.6800 o         1 0WP     -0.190000
     36 C36        -8.3910   -2.3900   -3.2500 c3        1 0WP     -0.078000
     37 H1          3.3580    0.7930   -1.9770 ha        1 0WP      0.188000
     38 H2          2.3900    1.2660   -4.1270 ha        1 0WP      0.163000
     39 H3          1.7550    0.8050    1.1640 hn        1 0WP      0.249000
     40 H4         -2.1550    1.8600   -4.1470 hn        1 0WP      0.239000
     41 H5          5.9080    1.3970    1.1810 ha        1 0WP      0.151000
     42 H6          7.3400    0.9310    3.0300 ha        1 0WP      0.151000
     43 H7          6.5860   -0.4560    4.8180 ha        1 0WP      0.139000
     44 H8          2.9770   -0.8920    2.8980 ha        1 0WP      0.150000
     45 H9          4.7620   -3.5150    5.9180 hc        1 0WP      0.090833
     46 H10         5.0900   -3.4130    4.3700 hc        1 0WP      0.090833
     47 H11         6.0520   -2.6710    5.4800 hc        1 0WP      0.090833
     48 H12         3.3830   -0.7250    6.8280 hc        1 0WP      0.090833
     49 H13         4.7740   -0.0450    6.3310 hc        1 0WP      0.090833
     50 H14         4.8150   -1.4380    7.1490 hc        1 0WP      0.090833
     51 H15        -4.6420   -0.5620   -2.6280 ha        1 0WP      0.175000
     52 H16        -3.6690    3.0060   -4.3610 ha        1 0WP      0.158000
     53 H17        -9.3470    0.1420   -3.5570 DU        1 0WP      0.281000
     54 H18        -8.1690   -2.6030   -4.1580 h1        1 0WP      0.093333
     55 H19        -9.2480   -1.8910   -3.2280 h1        1 0WP      0.093333
     56 H20        -8.4800   -3.2050   -2.7420 h1        1 0WP      0.093333
@<TRIPOS>BOND
     1    1    3 1   
     2    1   12 1   
     3    2    8 1   
     4    4    5 1   
     5    5    6 1   
     6    6    7 1   
     7    6   37 1   
     8    7   38 1   
     9    8    9 1   
    10   11   13 1   
    11   11   39 1   
    12   12   24 1   
    13   12   40 1   
    14   13   15 1   
    15   14   20 1   
    16   16   17 1   
    17   16   41 1   
    18   17   42 1   
    19   18   19 1   
    20   18   43 1   
    21   19   20 1   
    22   20   44 1   
    23   21   22 1   
    24   21   23 1   
    25   21   33 1   
    26   22   45 1   
    27   22   46 1   
    28   22   47 1   
    29   23   48 1   
    30   23   49 1   
    31   23   50 1   
    32   24   25 1   
    33   24   29 1   
    34   25   26 1   
    35   25   51 1   
    36   27   28 1   
    37   29   52 1   
    38   30   31 1   
    39   31   32 1   
    40   33   34 1   
    41   35   36 1   
    42   36   54 1   
    43   36   55 1   
    44   36   56 1   
@<TRIPOS>SUBSTRUCTURE
     1 0WP         1 TEMP              0 ****  ****    0 ROOT
