@<TRIPOS>MOLECULE
0WP
   56    59     1     0     0
SMALL
bcc


@<TRIPOS>ATOM
      1 C1          0.0000    0.0000    0.0000 c         1 0WP      0.572700
      2 C2          1.4760    0.0000    0.0000 ca        1 0WP     -0.183600
      3 O3         -0.6080   -1.0530    0.0100 o         1 0WP     -0.606100
      4 C4          2.1780    0.0000    1.2090 ca        1 0WP      0.110900
      5 C5          3.5670   -0.0010    1.1990 ca        1 0WP     -0.094400
      6 C6          4.2530   -0.0000   -0.0080 ca        1 0WP     -0.093000
      7 C7          3.5610   -0.0010   -1.2050 ca        1 0WP     -0.119000
      8 C8          2.1790   -0.0060   -1.2100 ca        1 0WP      0.131900
      9 F9          1.5070   -0.0120   -2.3820 f         1 0WP     -0.118900
     10 F10         1.5090   -0.0000    2.3820 f         1 0WP     -0.118900
     11 N11         4.2760    0.0000    2.4070 ns        1 0WP     -0.035100
     12 N12        -0.6740    1.1670   -0.0060 ns        1 0WP     -0.004100
     13 C13         5.5560    0.4180    2.4370 c         1 0WP      0.579700
     14 C14         6.3430    0.3010    3.6830 ca        1 0WP     -0.184600
     15 O15         6.0650    0.8910    1.4390 o         1 0WP     -0.624100
     16 C16         5.7620   -0.2410    4.8310 ca        1 0WP     -0.089000
     17 C17         6.5010   -0.3480    5.9900 ca        1 0WP     -0.055000
     18 C18         7.8170    0.0820    6.0170 ca        1 0WP     -0.084000
     19 C19         8.3990    0.6210    4.8830 ca        1 0WP     -0.152300
     20 C20         7.6720    0.7270    3.7160 ca        1 0WP     -0.014000
     21 C21         9.8310    1.0870    4.9230 c3        1 0WP      0.226400
     22 C22         9.8910    2.5790    4.5900 c3        1 0WP     -0.050100
     23 C23        10.4050    0.8530    6.3210 c3        1 0WP     -0.050100
     24 C24        -2.0720    1.1690   -0.1040 ca        1 0WP     -0.331700
     25 C25        -2.7970    0.1890    0.5190 ca        1 0WP      0.058000
     26 C26        -4.2000    0.2250    0.3980 ca        1 0WP     -0.318300
     27 C27        -4.8110    1.3080   -0.3900 ca        1 0WP      0.353300
     28 N28        -4.0160    2.2250   -0.9650 nb        1 0WP     -0.522000
     29 C29        -2.7150    2.1740   -0.8340 ca        1 0WP      0.440200
     30 C30        -5.2470   -0.5610    0.8670 cc        1 0WP     -0.001000
     31 N31        -6.3910   -0.0230    0.4170 na        1 0WP      0.466800
     32 N32        -6.1170    1.1150   -0.3470 nc        1 0WP     -0.425400
     33 C33        10.6190    0.3320    3.9360 c1        1 0WP      0.189700
     34 N34        11.2300   -0.2660    3.1870 n1        1 0WP     -0.367800
     35 O35        -5.1330   -1.6700    1.6370 os        1 0WP     -0.253900
     36 C36        -6.3440   -2.3310    2.0080 c3        1 0WP      0.246700
     37 H1          5.2290    0.4580   -0.1120 ha        1 0WP      0.186000
     38 H2          4.0780    0.0640   -2.1540 ha        1 0WP      0.128000
     39 H3          3.9270    0.1430    3.3340 hn        1 0WP      0.188500
     40 H4         -0.0730    1.9360   -0.2280 hn        1 0WP      0.163500
     41 H5          4.9320   -0.6820    4.2920 ha        1 0WP      0.131000
     42 H6          6.2430   -0.9740    6.8350 ha        1 0WP      0.108000
     43 H7          8.5710   -0.0990    6.7730 ha        1 0WP      0.127000
     44 H8          8.3350    1.1850    2.9920 ha        1 0WP      0.131000
     45 H9          9.3290    3.1440    3.8560 hc        1 0WP      0.018867
     46 H10        10.0160    3.1020    5.5300 hc        1 0WP      0.018867
     47 H11        10.9440    2.8280    4.5250 hc        1 0WP      0.018867
     48 H12        10.1540    1.1140    7.3420 hc        1 0WP      0.018867
     49 H13        10.7630   -0.1170    6.6430 hc        1 0WP      0.018867
     50 H14        11.4620    1.0920    6.3470 hc        1 0WP      0.018867
     51 H15        -2.2030   -0.2940    1.2850 ha        1 0WP      0.134000
     52 H16        -1.8700    2.8350   -0.9810 h4        1 0WP     -0.024900
     53 H17        -7.2930   -0.4400    0.5360 hn        1 0WP      0.160700
     54 H18        -6.6330   -3.0620    1.2630 h1        1 0WP     -0.008633
     55 H19        -7.0390   -1.5510    1.7190 h1        1 0WP     -0.008633
     56 H20        -6.6040   -2.6640    3.0060 h1        1 0WP     -0.008633
@<TRIPOS>BOND
     1    1    2 1   
     2    1    3 2   
     3    1   12 1   
     4    2    4 ar  
     5    2    8 ar  
     6    4    5 ar  
     7    4   10 1   
     8    5    6 ar  
     9    5   11 1   
    10    6    7 ar  
    11    6   37 1   
    12    7    8 ar  
    13    7   38 1   
    14    8    9 1   
    15   11   13 1   
    16   11   39 1   
    17   12   24 1   
    18   12   40 1   
    19   13   14 1   
    20   13   15 2   
    21   14   16 ar  
    22   14   20 ar  
    23   16   17 ar  
    24   16   41 1   
    25   17   18 ar  
    26   17   42 1   
    27   18   19 ar  
    28   18   43 1   
    29   19   20 ar  
    30   19   21 1   
    31   20   44 1   
    32   21   22 1   
    33   21   23 1   
    34   21   33 1   
    35   22   45 1   
    36   22   46 1   
    37   22   47 1   
    38   23   48 1   
    39   23   49 1   
    40   23   50 1   
    41   24   25 ar  
    42   24   29 ar  
    43   25   26 ar  
    44   25   51 1   
    45   26   27 ar  
    46   26   30 2   
    47   27   28 ar  
    48   27   32 2   
    49   28   29 ar  
    50   29   52 1   
    51   30   31 1   
    52   30   35 1   
    53   31   32 1   
    54   31   53 1   
    55   33   34 3   
    56   35   36 1   
    57   36   54 1   
    58   36   55 1   
    59   36   56 1   
@<TRIPOS>SUBSTRUCTURE
     1 0WP         1 TEMP              0 ****  ****    0 ROOT
