@<TRIPOS>MOLECULE
0WP
   56    59     1     0     0
SMALL
bcc


@<TRIPOS>ATOM
      1 C1         -2.5480    0.6150   -0.2300 c         1 0WP      0.685700
      2 C2         -1.2240    1.2930   -0.0580 ca        1 0WP     -0.190600
      3 O3         -2.6990   -0.2900   -1.0690 o         1 0WP     -0.571100
      4 C4         -0.0690    0.5000    0.0800 ca        1 0WP      0.138900
      5 C5          1.2280    1.0980    0.1870 ca        1 0WP      0.030600
      6 C6          1.3100    2.5050    0.1510 ca        1 0WP     -0.097000
      7 C7          0.1720    3.2880    0.0280 ca        1 0WP     -0.153000
      8 C8         -1.0970    2.6950   -0.0720 ca        1 0WP      0.138900
      9 F9         -2.1910    3.4860   -0.1890 f         1 0WP     -0.132900
     10 F10        -0.1890   -0.8490    0.1120 f         1 0WP     -0.121900
     11 N11         2.3490    0.2660    0.3040 n         1 0WP     -0.466100
     12 N12        -3.5540    1.0380    0.6250 n         1 0WP     -0.448100
     13 C13         3.6360    0.6430    0.6740 c         1 0WP      0.687700
     14 C14         4.6330   -0.4640    0.7670 ca        1 0WP     -0.145600
     15 O15         3.9540    1.8250    0.8970 o         1 0WP     -0.579100
     16 C16         4.3290   -1.6790    1.3880 ca        1 0WP     -0.099000
     17 C17         5.3060   -2.6680    1.4700 ca        1 0WP     -0.133000
     18 C18         6.5780   -2.4540    0.9370 ca        1 0WP     -0.094000
     19 C19         6.8910   -1.2390    0.3210 ca        1 0WP     -0.086300
     20 C20         5.9090   -0.2410    0.2430 ca        1 0WP     -0.066000
     21 C21         8.2610   -0.9510   -0.2410 c3        1 0WP      0.066400
     22 C22         8.9660    0.0710    0.6560 c3        1 0WP     -0.091100
     23 C23         9.1320   -2.2020   -0.3450 c3        1 0WP     -0.091100
     24 C24        -4.8830    0.5850    0.6130 ca        1 0WP     -0.087700
     25 C25        -5.2950   -0.5930    0.0120 ca        1 0WP     -0.065000
     26 C26        -6.6600   -0.9270    0.1030 ca        1 0WP     -0.231300
     27 C27        -7.5910   -0.0410    0.8260 ca        1 0WP      0.268300
     28 N28        -7.1590    1.1340    1.4260 nb        1 0WP     -0.600000
     29 C29        -5.8800    1.4030    1.3080 ca        1 0WP      0.406200
     30 C30        -7.4800   -1.9860   -0.3460 cc        1 0WP      0.067000
     31 N31        -8.7810   -1.6900    0.0730 na        1 0WP      0.041800
     32 N32        -8.8700   -0.5770    0.7920 nc        1 0WP     -0.238400
     33 C33         8.1180   -0.3850   -1.5840 c1        1 0WP      0.210700
     34 N34         8.0170    0.0590   -2.6530 n1        1 0WP     -0.363800
     35 O35        -7.2130   -3.1510   -1.0110 os        1 0WP     -0.305900
     36 C36        -6.6590   -2.9480   -2.3200 c3        1 0WP      0.111700
     37 H1          2.2930    3.0050    0.2270 ha        1 0WP      0.190000
     38 H2          0.2580    4.3860    0.0040 ha        1 0WP      0.163000
     39 H3          2.1840   -0.7050    0.1410 hn        1 0WP      0.334500
     40 H4         -3.3750    1.8450    1.1820 hn        1 0WP      0.325500
     41 H5          3.3350   -1.8570    1.8270 ha        1 0WP      0.141000
     42 H6          5.0750   -3.6260    1.9600 ha        1 0WP      0.143000
     43 H7          7.3290   -3.2560    1.0130 ha        1 0WP      0.143000
     44 H8          6.1390    0.7310   -0.2270 ha        1 0WP      0.161000
     45 H9          9.9750    0.3110    0.2440 hc        1 0WP      0.051700
     46 H10         8.3670    1.0100    0.7220 hc        1 0WP      0.051700
     47 H11         9.0850   -0.3530    1.6820 hc        1 0WP      0.051700
     48 H12         8.6090   -3.0000   -0.9240 hc        1 0WP      0.051700
     49 H13        10.0900   -1.9540   -0.8620 hc        1 0WP      0.051700
     50 H14         9.3720   -2.5850    0.6760 hc        1 0WP      0.051700
     51 H15        -4.6020   -1.2600   -0.5260 ha        1 0WP      0.175000
     52 H16        -5.5570    2.3470    1.7920 h4        1 0WP      0.022100
     53 H17        -9.5690   -2.2960   -0.0040 hn        1 0WP      0.330700
     54 H18        -6.4270   -3.9870   -2.6610 h1        1 0WP      0.053700
     55 H19        -7.4140   -2.4650   -2.9840 h1        1 0WP      0.053700
     56 H20        -5.7330   -2.3270   -2.2580 h1        1 0WP      0.053700
@<TRIPOS>BOND
     1    1    2 1   
     2    1    3 2   
     3    1   12 1   
     4    2    4 ar  
     5    2    8 ar  
     6    4    5 ar  
     7    4   10 1   
     8    5    6 ar  
     9    5   11 1   
    10    6    7 ar  
    11    6   37 1   
    12    7    8 ar  
    13    7   38 1   
    14    8    9 1   
    15   11   13 1   
    16   11   39 1   
    17   12   24 1   
    18   12   40 1   
    19   13   14 1   
    20   13   15 2   
    21   14   16 ar  
    22   14   20 ar  
    23   16   17 ar  
    24   16   41 1   
    25   17   18 ar  
    26   17   42 1   
    27   18   19 ar  
    28   18   43 1   
    29   19   20 ar  
    30   19   21 1   
    31   20   44 1   
    32   21   22 1   
    33   21   23 1   
    34   21   33 1   
    35   22   45 1   
    36   22   46 1   
    37   22   47 1   
    38   23   48 1   
    39   23   49 1   
    40   23   50 1   
    41   24   25 ar  
    42   24   29 ar  
    43   25   26 ar  
    44   25   51 1   
    45   26   27 ar  
    46   26   30 2   
    47   27   28 ar  
    48   27   32 2   
    49   28   29 ar  
    50   29   52 1   
    51   30   31 1   
    52   30   35 1   
    53   31   32 1   
    54   31   53 1   
    55   33   34 3   
    56   35   36 1   
    57   36   54 1   
    58   36   55 1   
    59   36   56 1   
@<TRIPOS>SUBSTRUCTURE
     1 0WP         1 TEMP              0 ****  ****    0 ROOT
