@<TRIPOS>MOLECULE
0WR
   78    78     1     0     0
SMALL
bcc


@<TRIPOS>ATOM
      1 C1          0.5610   -0.2190    1.6500 c3        1 0WR     -0.243000
      2 N1          3.5090    2.1650   -3.0790 n3        1 0WR     -0.186000
      3 O1          5.4730    3.2930  -11.9980 oh        1 0WR     -0.137000
      4 C2          1.2860   -0.4940    0.3360 c3        1 0WR      0.098000
      5 N2          4.4240    3.2380   -6.1690 n2        1 0WR     -0.081000
      6 O2          2.6110   -0.9660    0.6050 oh        1 0WR     -0.339000
      7 C3          0.5180   -1.5220   -0.4820 c3        1 0WR     -0.243000
      8 N3          2.1400    3.3150   -5.7850 na        1 0WR     -0.163000
      9 C4          1.4740    0.8350   -0.4270 c3        1 0WR     -0.125000
     10 N4          1.3730    3.2040   -8.1650 n2        1 0WR     -0.197000
     11 C5          2.1430    0.5990   -1.7840 c3        1 0WR     -0.173000
     12 N5          3.2880    2.9950   -9.7520 n2        1 0WR     -0.234000
     13 C6          2.3900    1.9040   -2.4500 c1        1 0WR     -0.177000
     14 N6          5.5830    2.8920   -9.0490 nh        1 0WR     -0.137000
     15 C7          0.0580    2.9040   -0.6440 c3        1 0WR     -0.277000
     16 C8          0.1630    1.4630   -0.6690 c1        1 0WR     -0.031000
     17 C10         3.4540    3.3360   -5.2370 c2        1 0WR     -0.038000
     18 C11         3.7530    3.1720   -7.3930 c2        1 0WR     -0.184000
     19 C12         2.3040    3.2360   -7.1750 c2        1 0WR      0.076000
     20 C14         1.9380    3.1480   -9.4230 c2        1 0WR      0.287000
     21 C15         4.1790    3.0200   -8.7410 c2        1 0WR      0.236000
     22 C16         6.1560    4.0380   -9.7490 c3        1 0WR     -0.214000
     23 C17         6.0670    4.1340  -11.2350 c1        1 0WR      0.015000
     24 C18         7.6020    1.4680   -8.8900 c3        1 0WR     -0.251000
     25 C19         6.1750    1.7710   -8.6850 c1        1 0WR     -0.105000
     26 N7          1.0140    2.9790  -10.5210 na        1 0WR     -0.067000
     27 C20         0.4070    1.8200  -11.0100 c2        1 0WR     -0.009000
     28 C21         0.6050    0.5020  -10.4490 c2        1 0WR     -0.112000
     29 C22         0.6460   -0.6130  -11.1810 c2        1 0WR     -0.188000
     30 C23        -1.8740    1.7200  -14.0290 c1        1 0WR      0.240000
     31 C24        -1.2580    1.4060  -12.9030 c2        1 0WR     -0.414000
     32 C25        -0.4120    2.2470  -12.0990 c2        1 0WR     -0.032000
     33 N8         -0.3150    3.6300  -12.2810 n2        1 0WR     -0.119000
     34 C26         0.5550    4.0500  -11.3170 c2        1 0WR      0.002000
     35 N9          1.0150    5.3890  -11.0540 n4        1 0WR      0.008000
     36 C27         1.9230    5.4690   -9.9050 cu        1 0WR     -0.472000
     37 C28         0.5830    6.0520   -9.7820 cx        1 0WR     -0.066000
     38 H1          1.1560    0.4870    2.2760 hc        1 0WR      0.087000
     39 H2         -0.4400    0.2280    1.4360 hc        1 0WR      0.087000
     40 H3          0.4210   -1.1670    2.2210 hc        1 0WR      0.087000
     41 H5          2.5140   -1.7960    1.0840 ho        1 0WR      0.199000
     42 H6          0.2180   -2.3840    0.1620 hc        1 0WR      0.087000
     43 H7          1.1570   -1.9070   -1.3140 hc        1 0WR      0.087000
     44 H8         -0.3980   -1.0450   -0.9080 hc        1 0WR      0.087000
     45 H9          2.6420   -1.8820   -3.0640 ha        1 0WR      0.000667
     46 H10         2.5430   -2.5230   -3.2580 ha        1 0WR      0.000667
     47 H11         2.1690    1.4710    0.1970 hc        1 0WR      0.088000
     48 H12         3.0530   -0.0390   -1.6140 hc        1 0WR      0.111500
     49 H13         1.4450    0.0210   -2.4550 hc        1 0WR      0.111500
     50 H14         0.7520    3.4290    0.0620 hc        1 0WR      0.109000
     51 H15         4.2720    1.5220   -3.1860 hn        1 0WR      0.182000
     52 H16        -0.9910    3.2280   -0.4330 hc        1 0WR      0.109000
     53 H17         0.3320    3.2270   -1.6940 hc        1 0WR      0.109000
     54 H20         1.0070    3.0530   -4.0430 h1        1 0WR      0.109000
     55 H21         0.0930    2.9260   -5.6320 h1        1 0WR      0.109000
     56 H22         0.6340    4.5610   -5.0210 h1        1 0WR      0.109000
     57 H23         7.5000    6.2140   -8.5840 ha        1 0WR      0.000667
     58 H24         7.8290    6.7420   -8.3160 ha        1 0WR      0.000667
     59 H25         7.2580    4.0950   -9.4980 h1        1 0WR      0.142500
     60 H26         5.6850    4.9900   -9.3550 h1        1 0WR      0.142500
     61 H27         8.2060    2.1990   -9.4840 hc        1 0WR      0.095333
     62 H28         5.0240    2.5240  -11.5800 ho        1 0WR      0.189000
     63 H29         7.6580    0.4700   -9.3960 hc        1 0WR      0.095333
     64 H30         8.0630    1.3670   -7.8730 hc        1 0WR      0.095333
     65 H31         0.7240    0.4680   -9.3500 ha        1 0WR      0.146000
     66 H32         0.7780   -1.5990  -10.7150 ha        1 0WR      0.123500
     67 H33         0.5660   -0.6180  -12.2760 ha        1 0WR      0.123500
     68 H34        -1.4030    0.3760  -12.5050 ha        1 0WR      0.198000
     69 H35         0.5800    8.1360  -12.0830 ha        1 0WR      0.000667
     70 H36         0.7510    8.0470  -12.7320 ha        1 0WR      0.000667
     71 H37         2.8910    5.9590   -9.9540 hx        1 0WR      0.144000
     72 H38         1.0940    5.9420  -11.8990 hn        1 0WR      0.238000
     73 H39        -0.1870    5.5340   -9.1680 hx        1 0WR      0.121000
     74 H40         0.3630    7.1370   -9.9050 hx        1 0WR      0.121000
     75 C9          3.6950    3.4350   -3.7510 c3        1 0WR      0.034000
     76 C13         0.9070    3.4720   -5.0850 c3        1 0WR     -0.088000
     77 H18         4.7550    3.7830   -3.5790 h1        1 0WR      0.129000
     78 H19         2.9860    4.1940   -3.3110 h1        1 0WR      0.129000
@<TRIPOS>BOND
     1    1    4 1   
     2    1   38 1   
     3    1   39 1   
     4    1   40 1   
     5    2   13 1   
     6    2   51 1   
     7    2   75 1   
     8    3   23 1   
     9    3   62 1   
    10    4    6 1   
    11    4    7 1   
    12    4    9 1   
    13    5   17 1   
    14    5   18 1   
    15    6   41 1   
    16    7   42 1   
    17    7   43 1   
    18    7   44 1   
    19    8   17 1   
    20    8   19 1   
    21    8   76 1   
    22    9   11 1   
    23    9   16 1   
    24    9   47 1   
    25   10   19 1   
    26   10   20 1   
    27   11   13 1   
    28   11   48 1   
    29   11   49 1   
    30   12   20 1   
    31   12   21 1   
    32   14   21 1   
    33   14   22 1   
    34   14   25 1   
    35   15   16 1   
    36   15   50 1   
    37   15   52 1   
    38   15   53 1   
    39   17   75 1   
    40   18   19 1   
    41   18   21 1   
    42   20   26 1   
    43   22   23 1   
    44   22   59 1   
    45   22   60 1   
    46   24   25 1   
    47   24   61 1   
    48   24   63 1   
    49   24   64 1   
    50   26   27 1   
    51   26   34 1   
    52   27   28 1   
    53   27   32 1   
    54   28   29 1   
    55   28   65 1   
    56   29   66 1   
    57   29   67 1   
    58   30   31 1   
    59   31   32 1   
    60   31   68 1   
    61   32   33 1   
    62   33   34 1   
    63   34   35 1   
    64   35   36 1   
    65   35   37 1   
    66   35   72 1   
    67   36   37 1   
    68   36   71 1   
    69   37   73 1   
    70   37   74 1   
    71   45   46 1   
    72   54   76 1   
    73   55   76 1   
    74   56   76 1   
    75   57   58 1   
    76   69   70 1   
    77   75   77 1   
    78   75   78 1   
@<TRIPOS>SUBSTRUCTURE
     1 0WR         1 TEMP              0 ****  ****    0 ROOT
