@<TRIPOS>MOLECULE
0WR
   78    83     1     0     0
SMALL
bcc


@<TRIPOS>ATOM
      1 C1         -7.6370    2.1280   -1.7420 c3        1 0WR     -0.104100
      2 N1         -4.0040   -0.3930    1.0870 n3        1 0WR     -0.727600
      3 O1          1.8190   -5.4660   -1.4020 os        1 0WR     -0.414600
      4 C2         -7.5810    0.7010   -1.2020 c3        1 0WR      0.155800
      5 N2         -0.9560   -1.4260    0.9830 nc        1 0WR     -0.516100
      6 O2         -8.8610    0.4930   -0.5970 oh        1 0WR     -0.600800
      7 C3         -7.3910   -0.2800   -2.3520 c3        1 0WR     -0.104100
      8 N3         -0.8000    0.7460    1.7530 na        1 0WR     -0.260000
      9 C4         -6.4930    0.5700   -0.1170 c3        1 0WR     -0.091700
     10 N4          1.5540    1.2140    1.0610 nb        1 0WR     -0.707000
     11 C5         -6.3470   -0.8570    0.3880 c3        1 0WR     -0.074900
     12 N5          2.5860   -0.7120   -0.0990 nb        1 0WR     -0.787000
     13 C6         -5.2940   -0.9380    1.4920 c3        1 0WR      0.172800
     14 N6          1.4060   -2.7470   -0.5920 nh        1 0WR     -0.724300
     15 C7         -4.0970    0.9460    0.5270 c3        1 0WR      0.172800
     16 C8         -5.1370    1.0700   -0.5850 c3        1 0WR     -0.074900
     17 C10        -1.5990   -0.4250    1.6140 cd        1 0WR      0.404800
     18 C11         0.3240   -0.9360    0.6950 ca        1 0WR     -0.187200
     19 C12         0.4420    0.4360    1.1800 ca        1 0WR      0.451800
     20 C14         2.5760    0.5830    0.3970 ca        1 0WR      0.799500
     21 C15         1.4670   -1.4800    0.0230 ca        1 0WR      0.743200
     22 C16         0.9460   -3.8600    0.2290 c3        1 0WR      0.153800
     23 C17         0.6890   -5.1190   -0.6110 c3        1 0WR      0.121400
     24 C18         2.2120   -4.4000   -2.2580 c3        1 0WR      0.121400
     25 C19         2.5100   -3.1160   -1.4720 c3        1 0WR      0.153800
     26 N7          3.7730    1.3260    0.2120 na        1 0WR     -0.196100
     27 C20         5.0880    0.8460    0.3410 ca        1 0WR     -0.043200
     28 C21         5.6210   -0.3750    0.7670 ca        1 0WR     -0.112000
     29 C22         7.0050   -0.4930    0.8000 ca        1 0WR     -0.122000
     30 C23         7.8480    0.5660    0.4270 ca        1 0WR     -0.149000
     31 C24         7.3420    1.7870    0.0050 ca        1 0WR     -0.077000
     32 C25         5.9510    1.9470   -0.0440 ca        1 0WR      0.072400
     33 N8          5.1720    3.0590   -0.4190 nc        1 0WR     -0.582100
     34 C26         3.8810    2.6770   -0.2770 cd        1 0WR      0.598700
     35 N9          2.7030    3.4310   -0.5950 nh        1 0WR     -0.660600
     36 C27         2.3310    4.3480    0.4650 c3        1 0WR      0.160600
     37 C28         2.7840    4.0610   -1.9000 c3        1 0WR      0.160600
     38 H1         -6.7810    2.3040   -2.4350 hc        1 0WR      0.045200
     39 H2         -8.5940    2.2790   -2.2970 hc        1 0WR      0.045200
     40 H3         -7.5940    2.8620   -0.9030 hc        1 0WR      0.045200
     41 H5         -8.9050   -0.4330   -0.3360 ho        1 0WR      0.397000
     42 H6         -6.3660   -0.1850   -2.7800 hc        1 0WR      0.045200
     43 H7         -7.5410   -1.3300   -2.0040 hc        1 0WR      0.045200
     44 H8         -8.1400   -0.0670   -3.1520 hc        1 0WR      0.045200
     45 H9         -6.8310    1.2140    0.7460 hc        1 0WR      0.059700
     46 H10        -7.3180   -1.2230    0.8080 hc        1 0WR      0.052450
     47 H11        -6.0540   -1.5330   -0.4570 hc        1 0WR      0.052450
     48 H12        -5.1380   -2.0220    1.7570 h1        1 0WR      0.032200
     49 H13        -5.6940   -0.4120    2.4090 h1        1 0WR      0.032200
     50 H14        -4.3380    1.7100    1.3260 h1        1 0WR      0.032200
     51 H15        -3.0860    1.2030    0.1010 h1        1 0WR      0.032200
     52 H16        -4.8030    0.4870   -1.4820 hc        1 0WR      0.052450
     53 H17        -5.2000    2.1500   -0.8780 hc        1 0WR      0.052450
     54 H20        -2.1730    2.2890    2.0550 h1        1 0WR      0.060033
     55 H21        -1.1870    1.8090    3.5210 h1        1 0WR      0.060033
     56 H22        -0.4050    2.7590    2.1670 h1        1 0WR      0.060033
     57 H23         1.7180   -4.1070    1.0150 h1        1 0WR      0.063950
     58 H24        -0.0140   -3.5910    0.7450 h1        1 0WR      0.063950
     59 H25        -0.2070   -4.9790   -1.2710 h1        1 0WR      0.058700
     60 H26         0.5380   -6.0000    0.0670 h1        1 0WR      0.058700
     61 H27         3.1490   -4.7670   -2.7520 h1        1 0WR      0.058700
     62 H28         1.4140   -4.2210   -3.0260 h1        1 0WR      0.058700
     63 H29         2.6780   -2.2840   -2.2120 h1        1 0WR      0.063950
     64 H30         3.4610   -3.2660   -0.8840 h1        1 0WR      0.063950
     65 H31         4.9750   -1.2140    1.0580 ha        1 0WR      0.149000
     66 H32         7.4530   -1.4430    1.1270 ha        1 0WR      0.132000
     67 H33         8.9380    0.4190    0.4710 ha        1 0WR      0.132000
     68 H34         8.0060    2.6140   -0.2830 ha        1 0WR      0.147000
     69 H35         3.0200    5.2340    0.5400 h1        1 0WR      0.045200
     70 H36         1.2940    4.7140    0.2430 h1        1 0WR      0.045200
     71 H37         2.3260    3.8080    1.4470 h1        1 0WR      0.045200
     72 H38         3.0890    3.2980   -2.6620 h1        1 0WR      0.045200
     73 H39         1.7580    4.4400   -2.1500 h1        1 0WR      0.045200
     74 H40         3.5070    4.9190   -1.9360 h1        1 0WR      0.045200
     75 C9         -3.0120   -0.5040    2.1430 c3        1 0WR      0.169500
     76 C13        -1.1560    1.9600    2.4070 c3        1 0WR      0.027600
     77 H18        -3.1470    0.2850    2.9420 h1        1 0WR      0.054700
     78 H19        -3.1270   -1.5140    2.6350 h1        1 0WR      0.054700
@<TRIPOS>BOND
     1    1    4 1   
     2    1   38 1   
     3    1   39 1   
     4    1   40 1   
     5    2   13 1   
     6    2   15 1   
     7    2   75 1   
     8    3   23 1   
     9    3   24 1   
    10    4    6 1   
    11    4    7 1   
    12    4    9 1   
    13    5   17 2   
    14    5   18 1   
    15    6   41 1   
    16    7   42 1   
    17    7   43 1   
    18    7   44 1   
    19    8   17 1   
    20    8   19 1   
    21    8   76 1   
    22    9   11 1   
    23    9   16 1   
    24    9   45 1   
    25   10   19 ar  
    26   10   20 ar  
    27   11   13 1   
    28   11   46 1   
    29   11   47 1   
    30   12   20 ar  
    31   12   21 ar  
    32   13   48 1   
    33   13   49 1   
    34   14   21 1   
    35   14   22 1   
    36   14   25 1   
    37   15   16 1   
    38   15   50 1   
    39   15   51 1   
    40   16   52 1   
    41   16   53 1   
    42   17   75 1   
    43   18   19 ar  
    44   18   21 ar  
    45   20   26 1   
    46   22   23 1   
    47   22   57 1   
    48   22   58 1   
    49   23   59 1   
    50   23   60 1   
    51   24   25 1   
    52   24   61 1   
    53   24   62 1   
    54   25   63 1   
    55   25   64 1   
    56   26   27 1   
    57   26   34 1   
    58   27   28 ar  
    59   27   32 ar  
    60   28   29 ar  
    61   28   65 1   
    62   29   30 ar  
    63   29   66 1   
    64   30   31 ar  
    65   30   67 1   
    66   31   32 ar  
    67   31   68 1   
    68   32   33 1   
    69   33   34 2   
    70   34   35 1   
    71   35   36 1   
    72   35   37 1   
    73   36   69 1   
    74   36   70 1   
    75   36   71 1   
    76   37   72 1   
    77   37   73 1   
    78   37   74 1   
    79   54   76 1   
    80   55   76 1   
    81   56   76 1   
    82   75   77 1   
    83   75   78 1   
@<TRIPOS>SUBSTRUCTURE
     1 0WR         1 TEMP              0 ****  ****    0 ROOT
