@<TRIPOS>MOLECULE
0WR
   79    78     1     0     0
SMALL
bcc


@<TRIPOS>ATOM
      1 C1          3.9290    0.6700    0.2890 c3        1 0WR     -0.205000
      2 N1          2.6770    3.6190   -3.2370 n3        1 0WR     -0.304000
      3 O1          7.2420    2.1210   -8.5820 oh        1 0WR     -0.133000
      4 C2          2.7420    1.5720    0.1580 cx        1 0WR      0.043000
      5 N2          3.6880    1.5590   -6.2420 n2        1 0WR     -0.102000
      6 O2          2.2020    1.5780   -1.1410 oh        1 0WR     -0.333000
      7 C3          1.7480   -1.4340   -2.4920 c3        1 0WR     -0.275000
      8 N3          2.2620    3.3730   -6.0210 na        1 0WR     -0.084000
      9 C4          2.7040    2.9100    0.9000 cx        1 0WR     -0.101000
     10 N4          1.6150    3.6220   -8.4300 n2        1 0WR     -0.236000
     11 C5          2.1210    4.1230    0.2640 c3        1 0WR     -0.188000
     12 N5          2.7270    1.9300   -9.8660 n2        1 0WR     -0.156000
     13 C6          1.8020    4.4230   -3.9290 c2        1 0WR      0.013000
     14 N6          4.1660    0.1970   -8.9910 nh        1 0WR     -0.103000
     15 C7          0.9210    1.3290    2.1170 c2        1 0WR     -0.128000
     16 C8          1.8370    1.7950    1.3060 cu        1 0WR     -0.209000
     17 C10         3.1400    2.4480   -5.3850 c2        1 0WR      0.013000
     18 C11         3.1710    1.9010   -7.4950 c2        1 0WR     -0.144000
     19 C12         2.2690    3.0570   -7.3780 c2        1 0WR      0.057000
     20 C14         1.9090    3.0190   -9.6300 c2        1 0WR      0.147000
     21 C15         3.3490    1.3640   -8.8020 c2        1 0WR      0.285000
     22 C16         5.5710    0.3790   -8.6430 c3        1 0WR     -0.221000
     23 C17         6.0140    1.8090   -8.7880 c1        1 0WR      0.027000
     24 C18         4.2360   -2.1750   -9.7020 c3        1 0WR     -0.256000
     25 C19         3.5720   -0.8870   -9.4560 c1        1 0WR     -0.090000
     26 N7          1.2880    3.5920  -10.7890 na        1 0WR     -0.064000
     27 C20         1.8030    3.6790  -12.0860 c2        1 0WR      0.074000
     28 C21         3.1200    3.2360  -12.5020 c2        1 0WR     -0.146000
     29 C22         4.0710    4.0740  -12.9190 c2        1 0WR     -0.138000
     30 C23         0.9270    4.7770  -15.4260 c1        1 0WR     -0.115000
     31 C24         0.8560    4.5450  -14.2540 c1        1 0WR     -0.135000
     32 C25         0.7710    4.2690  -12.8860 c2        1 0WR      0.005000
     33 N8         -0.3590    4.5320  -12.1150 n2        1 0WR     -0.035000
     34 C26        -0.0330    4.1190  -10.8530 c2        1 0WR     -0.100000
     35 N9         -0.9240    4.1970   -9.7270 nh        1 0WR      0.039000
     36 C27        -0.7480    5.0980   -8.8040 c2        1 0WR      0.106000
     37 C28        -2.0300    3.2480   -9.7510 c3        1 0WR     -0.140000
     38 H1          4.3350    0.7080    1.3280 hc        1 0WR      0.090333
     39 H2          3.6390   -0.3830    0.0520 hc        1 0WR      0.090333
     40 H3          4.7290    0.9880   -0.4240 hc        1 0WR      0.090333
     41 H5          1.7300    0.7390   -1.2410 ho        1 0WR      0.219000
     42 H6          2.3460   -1.5490   -1.5600 hc        1 0WR      0.069500
     43 H7          2.1230   -0.5570   -3.0660 hc        1 0WR      0.069500
     44 H8          1.8480   -2.3520   -3.1110 hc        1 0WR      0.069500
     45 H9          0.6780   -1.2790   -2.2310 hc        1 0WR      0.069500
     46 H10         2.9040    4.6620   -0.3240 hc        1 0WR      0.081667
     47 H11         3.5860    3.1390    1.5380 hc        1 0WR      0.134000
     48 H12         1.7290    4.8150    1.0510 hc        1 0WR      0.081667
     49 H13         1.2790    3.8530   -0.4200 hc        1 0WR      0.081667
     50 H14         2.4870    3.4560   -2.2660 hn        1 0WR      0.263000
     51 H15         1.2740    5.1860   -3.3260 h4        1 0WR      0.170000
     52 H16         0.4990    1.9330    2.9340 ha        1 0WR      0.127500
     53 H17         0.5220    0.3080    2.0320 ha        1 0WR      0.127500
     54 H20        -3.7250    4.3320   -6.5740 ha        1 0WR      0.001500
     55 H21        -3.1870    4.4120   -6.9770 ha        1 0WR      0.001500
     56 H22         1.0000    5.0830   -5.8480 h4        1 0WR      0.163000
     57 H23         8.6610   -0.6700   -7.6510 ha        1 0WR      0.001500
     58 H24         8.0070   -0.6110   -7.8220 ha        1 0WR      0.001500
     59 H25         5.7280    0.0460   -7.5730 h1        1 0WR      0.127500
     60 H26         6.1890   -0.2930   -9.3100 h1        1 0WR      0.127500
     61 H27         5.3280   -2.2440   -9.4690 hc        1 0WR      0.103667
     62 H28         7.8580    1.3910   -8.3370 ho        1 0WR      0.173000
     63 H29         4.0840   -2.4210  -10.7860 hc        1 0WR      0.103667
     64 H30         3.6940   -2.9470   -9.0960 hc        1 0WR      0.103667
     65 H31         3.2760    2.1420  -12.4680 ha        1 0WR      0.173000
     66 H32         5.0490    3.7030  -13.2570 ha        1 0WR      0.132000
     67 H33         3.9450    5.1650  -12.9540 ha        1 0WR      0.132000
     68 H34         0.9940    4.9800  -16.4670 ha        1 0WR      0.240000
     69 H35        -1.9310    7.1700   -9.2090 ha        1 0WR      0.001500
     70 H36        -2.1890    7.7580   -9.4310 ha        1 0WR      0.001500
     71 H37         0.0940    5.8220   -8.8610 h4        1 0WR      0.202000
     72 H38        -2.6370    3.4230  -10.6820 h1        1 0WR      0.146333
     73 H39        -1.4400    5.1440   -7.9350 h4        1 0WR      0.202000
     74 H40        -2.6720    3.3830   -8.8390 h1        1 0WR      0.146333
     75 H91        -1.6110    2.2040   -9.7750 h1        1 0WR      0.146333
     76 C9          3.3760    2.5360   -3.8950 c3        1 0WR      0.028000
     77 C13         1.6110    4.3690   -5.2850 c2        1 0WR     -0.216000
     78 H18         3.0890    1.5440   -3.4280 h1        1 0WR      0.125500
     79 H19         4.4850    2.6930   -3.7290 h1        1 0WR      0.125500
@<TRIPOS>BOND
     1    1    4 1   
     2    1   38 1   
     3    1   39 1   
     4    1   40 1   
     5    2   13 1   
     6    2   50 1   
     7    2   76 1   
     8    3   23 1   
     9    3   62 1   
    10    4    6 1   
    11    4    9 1   
    12    4   16 1   
    13    5   17 1   
    14    5   18 1   
    15    6   41 1   
    16    7   42 1   
    17    7   43 1   
    18    7   44 1   
    19    7   45 1   
    20    8   17 1   
    21    8   19 1   
    22    8   77 1   
    23    9   11 1   
    24    9   16 1   
    25    9   47 1   
    26   10   19 1   
    27   10   20 1   
    28   11   46 1   
    29   11   48 1   
    30   11   49 1   
    31   12   20 1   
    32   12   21 1   
    33   13   51 1   
    34   13   77 1   
    35   14   21 1   
    36   14   22 1   
    37   14   25 1   
    38   15   16 1   
    39   15   52 1   
    40   15   53 1   
    41   17   76 1   
    42   18   19 1   
    43   18   21 1   
    44   20   26 1   
    45   22   23 1   
    46   22   59 1   
    47   22   60 1   
    48   24   25 1   
    49   24   61 1   
    50   24   63 1   
    51   24   64 1   
    52   26   27 1   
    53   26   34 1   
    54   27   28 1   
    55   27   32 1   
    56   28   29 1   
    57   28   65 1   
    58   29   66 1   
    59   29   67 1   
    60   30   31 1   
    61   30   68 1   
    62   31   32 1   
    63   32   33 1   
    64   33   34 1   
    65   34   35 1   
    66   35   36 1   
    67   35   37 1   
    68   36   71 1   
    69   36   73 1   
    70   37   72 1   
    71   37   74 1   
    72   37   75 1   
    73   54   55 1   
    74   56   77 1   
    75   57   58 1   
    76   69   70 1   
    77   76   78 1   
    78   76   79 1   
@<TRIPOS>SUBSTRUCTURE
     1 0WR         1 TEMP              0 ****  ****    0 ROOT
