@<TRIPOS>MOLECULE
0WR
   78    78     1     0     0
SMALL
bcc


@<TRIPOS>ATOM
      1 C1          0.7750   -0.5160   -0.2020 c3        1 0WR     -0.242500
      2 N1          2.4270    2.7480   -2.7140 n3        1 0WR     -0.143000
      3 O1          3.5100    0.4110  -11.5160 oh        1 0WR     -0.132000
      4 C2          1.9420   -0.0490    0.6620 c3        1 0WR      0.081000
      5 N2          3.7120    2.2300   -5.8290 n2        1 0WR     -0.085000
      6 O2          1.4200    0.5450    1.8580 oh        1 0WR     -0.328000
      7 C3          2.8250   -1.2350    1.0310 c3        1 0WR     -0.242500
      8 N3          2.5500    4.2240   -5.6100 na        1 0WR     -0.146000
      9 C4          2.7300    1.0920   -0.0190 c3        1 0WR     -0.094000
     10 N4          1.9500    4.5510   -8.0190 n2        1 0WR     -0.136000
     11 C5          3.8970    1.5230    0.8480 c3        1 0WR     -0.208000
     12 N5          2.7560    2.6960   -9.4400 n2        1 0WR     -0.248000
     13 C6          1.5770    3.6360   -2.2720 c1        1 0WR     -0.192000
     14 N6          3.9760    0.8000   -8.6000 nh        1 0WR     -0.141000
     15 C7          2.3320    1.3020   -2.5290 c3        1 0WR     -0.115000
     16 C8          3.2100    0.7300   -1.4170 c3        1 0WR     -0.168000
     17 C10         3.2980    3.1960   -4.9780 c2        1 0WR     -0.015000
     18 C11         3.2390    2.6200   -7.0820 c2        1 0WR     -0.148000
     19 C12         2.5120    3.8890   -6.9700 c2        1 0WR      0.041000
     20 C14         2.1120    3.9100   -9.2200 c2        1 0WR      0.157000
     21 C15         3.3100    2.0570   -8.3860 c2        1 0WR      0.223000
     22 C16         5.0270    0.8140   -9.6150 c3        1 0WR     -0.215000
     23 C17         4.6930    0.5550  -11.0460 c1        1 0WR      0.022000
     24 C18         4.1170   -1.5850   -7.9520 c3        1 0WR     -0.256000
     25 C19         3.5510   -0.2280   -7.8840 c1        1 0WR     -0.094000
     26 N7          1.5780    4.5980  -10.3710 na        1 0WR     -0.137000
     27 C20         2.1550    4.3310  -11.6700 c2        1 0WR      0.032000
     28 C21         3.4520    4.3420  -11.9960 c2        1 0WR     -0.211000
     29 C22         1.6260    3.6770  -18.5100 c1        1 0WR     -0.227500
     30 C23         1.4740    3.7180  -17.3250 c1        1 0WR     -0.227500
     31 C24         1.1080    3.9670  -13.9230 c1        1 0WR      0.265000
     32 C25         0.9930    4.1730  -12.6080 c2        1 0WR     -0.329000
     33 N8         -0.2230    4.3050  -11.8600 n2        1 0WR     -0.142000
     34 C26         0.1200    4.4980  -10.5830 c2        1 0WR      0.144000
     35 N9         -0.7580    4.5900   -9.4650 nh        1 0WR     -0.205000
     36 C27        -0.8070    5.9020   -8.8500 c3        1 0WR     -0.110500
     37 C28        -2.0680    4.0090   -9.6840 c3        1 0WR     -0.110500
     38 H1          4.2670    1.0850   -1.5540 hc        1 0WR      0.093500
     39 H2          1.1450   -0.9820   -1.1440 hc        1 0WR      0.083167
     40 H3          0.1160    0.3500   -0.4530 hc        1 0WR      0.083167
     41 H5          0.9400   -0.1490    2.3250 ho        1 0WR      0.199000
     42 H6          0.1670   -1.2700    0.3530 hc        1 0WR      0.083167
     43 H7          3.5440   -0.9390    1.8320 hc        1 0WR      0.083167
     44 H8          2.1970   -2.0760    1.4130 hc        1 0WR      0.083167
     45 H9          3.3970   -1.5920    0.1440 hc        1 0WR      0.083167
     46 H10         3.5500    1.6890    1.8970 hc        1 0WR      0.080333
     47 H11         2.0150    1.9640   -0.0840 hc        1 0WR      0.103000
     48 H12         4.3330    2.4750    0.4600 hc        1 0WR      0.080333
     49 H13         4.6970    0.7440    0.8540 hc        1 0WR      0.080333
     50 H14         1.2550    1.0520   -2.3070 h1        1 0WR      0.110500
     51 H15         0.7240    3.2590   -1.6730 ha        1 0WR      0.062000
     52 H16         3.2270   -0.3840   -1.5500 hc        1 0WR      0.093500
     53 H17         2.6120    0.8000   -3.5000 h1        1 0WR      0.110500
     54 H20         1.7490    5.1920   -3.9310 h1        1 0WR      0.117667
     55 H21         1.0770    5.7050   -5.5650 h1        1 0WR      0.117667
     56 H22         2.7520    6.2380   -5.0650 h1        1 0WR      0.117667
     57 H23         6.2360    4.0690   -9.8970 ha        1 0WR      0.001500
     58 H24         6.4170    3.8390  -10.5070 ha        1 0WR      0.001500
     59 H25         5.8010    0.0390   -9.3300 h1        1 0WR      0.142000
     60 H26         5.5520    1.8180   -9.6070 h1        1 0WR      0.142000
     61 H27         4.8920   -1.7860   -8.7340 hc        1 0WR      0.098000
     62 H28         2.7530    0.4900  -10.8940 ho        1 0WR      0.184000
     63 H29         4.5600   -1.8030   -6.9450 hc        1 0WR      0.098000
     64 H30         3.2620   -2.2910   -8.1130 hc        1 0WR      0.098000
     65 H31         4.2540    4.4720  -11.2580 ha        1 0WR      0.138500
     66 H32         1.7610    3.6400  -19.5610 ha        1 0WR      0.225500
     67 H33         3.7730    4.2090  -13.0370 ha        1 0WR      0.138500
     68 H34         1.3380    3.7540  -16.2680 ha        1 0WR      0.225500
     69 H35         0.2010    6.3920   -8.8570 h1        1 0WR      0.089667
     70 H36        -1.5400    6.5830   -9.3640 h1        1 0WR      0.089667
     71 H37        -1.1320    5.7560   -7.7860 h1        1 0WR      0.089667
     72 H38        -2.7010    4.6010  -10.3990 h1        1 0WR      0.089667
     73 H39        -2.5850    3.9680   -8.6890 h1        1 0WR      0.089667
     74 H40        -1.9530    2.9660  -10.0810 h1        1 0WR      0.089667
     75 C9          3.5720    3.2040   -3.4930 c3        1 0WR      0.029000
     76 C13         2.0050    5.4000   -5.0110 c3        1 0WR     -0.100000
     77 H18         3.8310    4.2550   -3.1750 h1        1 0WR      0.131500
     78 H19         4.4530    2.5310   -3.2840 h1        1 0WR      0.131500
@<TRIPOS>BOND
     1    1    4 1   
     2    1   39 1   
     3    1   40 1   
     4    1   42 1   
     5    2   13 1   
     6    2   15 1   
     7    2   75 1   
     8    3   23 1   
     9    3   62 1   
    10    4    6 1   
    11    4    7 1   
    12    4    9 1   
    13    5   17 1   
    14    5   18 1   
    15    6   41 1   
    16    7   43 1   
    17    7   44 1   
    18    7   45 1   
    19    8   17 1   
    20    8   19 1   
    21    8   76 1   
    22    9   11 1   
    23    9   16 1   
    24    9   47 1   
    25   10   19 1   
    26   10   20 1   
    27   11   46 1   
    28   11   48 1   
    29   11   49 1   
    30   12   20 1   
    31   12   21 1   
    32   13   51 1   
    33   14   21 1   
    34   14   22 1   
    35   14   25 1   
    36   15   16 1   
    37   15   50 1   
    38   15   53 1   
    39   16   38 1   
    40   16   52 1   
    41   17   75 1   
    42   18   19 1   
    43   18   21 1   
    44   20   26 1   
    45   22   23 1   
    46   22   59 1   
    47   22   60 1   
    48   24   25 1   
    49   24   61 1   
    50   24   63 1   
    51   24   64 1   
    52   26   27 1   
    53   26   34 1   
    54   27   28 1   
    55   27   32 1   
    56   28   65 1   
    57   28   67 1   
    58   29   30 1   
    59   29   66 1   
    60   30   68 1   
    61   31   32 1   
    62   32   33 1   
    63   33   34 1   
    64   34   35 1   
    65   35   36 1   
    66   35   37 1   
    67   36   69 1   
    68   36   70 1   
    69   36   71 1   
    70   37   72 1   
    71   37   73 1   
    72   37   74 1   
    73   54   76 1   
    74   55   76 1   
    75   56   76 1   
    76   57   58 1   
    77   75   77 1   
    78   75   78 1   
@<TRIPOS>SUBSTRUCTURE
     1 0WR         1 TEMP              0 ****  ****    0 ROOT
