@<TRIPOS>MOLECULE
0WR
   78    73     1     0     0
SMALL
bcc


@<TRIPOS>ATOM
      1 C1         -0.7790   -8.1850    0.2400 c3        1 0WR     -0.244500
      2 N1         -0.3880   -3.5590    0.5970 n3        1 0WR     -0.259000
      3 O1         -2.5680    4.2230    2.7140 os        1 0WR     -0.272000
      4 C2         -1.5480   -6.9880    0.7430 c3        1 0WR      0.083000
      5 N2         -0.8030   -0.3560    0.4960 n2        1 0WR     -0.134000
      6 O2         -1.8640   -6.1520   -0.3380 oh        1 0WR     -0.327000
      7 C3         -2.8430   -7.4520    1.4230 c3        1 0WR     -0.244500
      8 N3          0.8210   -0.5790   -0.9650 n2        1 0WR     -0.134000
      9 C4         -0.6380   -6.1750    1.8110 c3        1 0WR     -0.085000
     10 N4          1.2600    1.8640   -1.2590 n1        1 0WR     -0.170000
     11 C5         -1.4050   -5.0390    2.3230 c3        1 0WR     -0.146000
     12 N5         -0.1950    3.2630   -0.0070 n1        1 0WR     -0.254000
     13 C6         -1.6380   -3.9750    1.2650 c3        1 0WR     -0.071500
     14 N6         -1.6840    1.7750    1.5710 n3        1 0WR     -0.196000
     15 C7          0.3780   -4.6850    0.0860 c3        1 0WR     -0.071500
     16 C8          0.6160   -5.7540    1.1440 c3        1 0WR     -0.146000
     17 C9         -0.7100   -2.6390   -0.5160 c3        1 0WR     -0.007000
     18 C10        -0.1050   -1.2560   -0.2290 c2        1 0WR      0.010000
     19 C11        -0.3090    0.8950    0.2100 c1        1 0WR     -0.068000
     20 C12         0.6890    0.7530   -0.6880 c1        1 0WR     -0.068000
     21 C13         2.1630   -0.9770   -1.3440 c2        1 0WR     -0.061000
     22 C14         0.8170    3.1170   -0.9170 c1        1 0WR      0.199000
     23 C15        -0.7590    2.1760    0.5560 c1        1 0WR      0.196000
     24 C16        -1.2080    2.1970    2.8400 c3        1 0WR     -0.091000
     25 C17        -1.2810    3.7070    3.0130 c3        1 0WR     -0.056500
     26 C18        -3.0450    3.8000    1.4450 c3        1 0WR     -0.056500
     27 C19        -2.9710    2.2910    1.2710 c3        1 0WR     -0.091000
     28 N7          1.6470    4.1720   -1.4890 n2        1 0WR     -0.137000
     29 C20         2.7210    4.6280   -0.7840 c1        1 0WR      0.002000
     30 C21         3.4390    4.0790    0.3060 c1        1 0WR     -0.115500
     31 C22         4.5420    4.7590    0.8300 c1        1 0WR     -0.115500
     32 C23         4.9360    5.9790    0.2780 c1        1 0WR     -0.115500
     33 C24         4.2290    6.5190   -0.7960 c1        1 0WR     -0.115500
     34 C25         3.1080    5.8280   -1.3280 c1        1 0WR     -0.067000
     35 N8          2.2690    6.1060   -2.3660 n1        1 0WR     -0.156000
     36 C26         1.3660    5.0840   -2.4660 c1        1 0WR      0.121000
     37 N9          0.7110    5.3950   -3.6900 n2        1 0WR     -0.193000
     38 C27         1.2230    4.9090   -4.9040 c3        1 0WR     -0.115500
     39 C28        -0.4750    6.1870   -3.6830 c3        1 0WR     -0.115500
     40 H1         -0.1860   -7.9090   -0.4910 hc        1 0WR      0.083333
     41 H2         -1.4100   -8.8660   -0.0900 hc        1 0WR      0.083333
     42 H3         -0.2420   -8.5630    0.9740 hc        1 0WR      0.083333
     43 H5         -2.5810   -6.4460   -0.7330 ho        1 0WR      0.197000
     44 H6         -3.2060   -8.2520    0.9390 hc        1 0WR      0.083333
     45 H7         -2.6570   -7.6870    2.3470 hc        1 0WR      0.083333
     46 H8         -3.5040   -6.7250    1.3950 hc        1 0WR      0.083333
     47 H9         -0.4170   -6.7690    2.5550 hc        1 0WR      0.087000
     48 H10        -2.2790   -5.3660    2.6480 hc        1 0WR      0.085750
     49 H11        -0.9080   -4.6320    3.0870 hc        1 0WR      0.085750
     50 H12        -2.0460   -3.1920    1.6880 h1        1 0WR      0.083750
     51 H13        -2.2460   -4.3230    0.6020 h1        1 0WR      0.083750
     52 H14        -0.1040   -5.0810   -0.6580 h1        1 0WR      0.083750
     53 H15         1.2330   -4.3640   -0.2310 h1        1 0WR      0.083750
     54 H16         1.0230   -6.5270    0.7240 hc        1 0WR      0.085750
     55 H17         1.2310   -5.4010    1.8190 hc        1 0WR      0.085750
     56 H18        -1.6830   -2.5590   -0.6040 h1        1 0WR      0.103500
     57 H19        -0.3280   -2.9980   -1.3640 h1        1 0WR      0.103500
     58 H20         2.2100   -1.9610   -1.3970 ha        1 0WR      0.101000
     59 H21         2.3830   -0.5910   -2.2170 ha        1 0WR      0.101000
     60 H22         2.7990   -0.6570   -0.6770 ha        1 0WR      0.101000
     61 H23        -1.7520    1.7700    3.5440 h1        1 0WR      0.114250
     62 H24        -0.2810    1.9120    2.9420 h1        1 0WR      0.114250
     63 H25        -0.6270    4.1270    2.4180 h1        1 0WR      0.099250
     64 H26        -1.0560    3.9320    3.9460 h1        1 0WR      0.099250
     65 H27        -3.9780    4.0840    1.3480 h1        1 0WR      0.099250
     66 H28        -2.5050    4.2300    0.7420 h1        1 0WR      0.099250
     67 H29        -3.1900    2.0720    0.3510 h1        1 0WR      0.114250
     68 H30        -3.6240    1.8730    1.8590 h1        1 0WR      0.114250
     69 H31         3.1580    3.2130    0.6980 ha        1 0WR      0.139250
     70 H32         5.0380    4.3800    1.5840 ha        1 0WR      0.139250
     71 H33         5.7180    6.4590    0.6470 ha        1 0WR      0.139250
     72 H34         4.5100    7.3880   -1.1900 ha        1 0WR      0.139250
     73 H35         1.8410    4.1730   -4.7250 h1        1 0WR      0.084833
     74 H36         0.4910    4.5890   -5.4620 h1        1 0WR      0.084833
     75 H37         1.6980    5.6280   -5.3690 h1        1 0WR      0.084833
     76 H38        -1.2560    5.6110   -3.8420 h1        1 0WR      0.084833
     77 H39        -0.4200    6.8660   -4.3930 h1        1 0WR      0.084833
     78 H40        -0.5670    6.6280   -2.8150 h1        1 0WR      0.084833
@<TRIPOS>BOND
     1    1    4 1   
     2    1   40 1   
     3    1   41 1   
     4    1   42 1   
     5    2   13 1   
     6    2   15 1   
     7    2   17 1   
     8    3   25 1   
     9    3   26 1   
    10    4    6 1   
    11    4    7 1   
    12    4    9 1   
    13    5   18 1   
    14    5   19 1   
    15    6   43 1   
    16    7   44 1   
    17    7   45 1   
    18    7   46 1   
    19    8   18 1   
    20    8   20 1   
    21    9   11 1   
    22    9   16 1   
    23    9   47 1   
    24   10   22 1   
    25   11   13 1   
    26   11   48 1   
    27   11   49 1   
    28   12   23 1   
    29   13   50 1   
    30   13   51 1   
    31   14   23 1   
    32   14   24 1   
    33   14   27 1   
    34   15   16 1   
    35   15   52 1   
    36   15   53 1   
    37   16   54 1   
    38   16   55 1   
    39   17   18 1   
    40   17   56 1   
    41   17   57 1   
    42   19   20 1   
    43   21   58 1   
    44   21   59 1   
    45   21   60 1   
    46   24   25 1   
    47   24   61 1   
    48   24   62 1   
    49   25   63 1   
    50   25   64 1   
    51   26   27 1   
    52   26   65 1   
    53   26   66 1   
    54   27   67 1   
    55   27   68 1   
    56   28   29 1   
    57   28   36 1   
    58   29   34 1   
    59   30   31 1   
    60   30   69 1   
    61   31   70 1   
    62   32   33 1   
    63   32   71 1   
    64   33   72 1   
    65   35   36 1   
    66   37   38 1   
    67   37   39 1   
    68   38   73 1   
    69   38   74 1   
    70   38   75 1   
    71   39   76 1   
    72   39   77 1   
    73   39   78 1   
@<TRIPOS>SUBSTRUCTURE
     1 0WR         1 TEMP              0 ****  ****    0 ROOT
