@<TRIPOS>MOLECULE
0WS
   20    14     1     0     0
SMALL
bcc


@<TRIPOS>ATOM
      1 C5         -1.0340   -0.0230   -2.5800 c1        1 0WS     -0.089500
      2 C2         -1.0750    0.0400   -0.2180 c1        1 0WS     -0.073500
      3 C3          0.3110    0.0350   -0.1950 cg        1 0WS     -0.037300
      4 C4          0.3520   -0.0280   -2.5550 c1        1 0WS      0.267300
      5 C6          1.0460    0.0930    1.1260 ce        1 0WS      0.063800
      6 O          -3.8210   -1.1880   -1.3860 o         1 0WS     -0.792500
      7 C1         -1.7370    0.0110   -1.4110 c1        1 0WS     -0.082000
      8 O1         -3.9300    0.9800   -1.5930 o         1 0WS     -0.792500
      9 C          -3.2470   -0.0700   -1.4640 c1        1 0WS      0.824000
     10 N           1.0120    0.0010   -1.3630 n1        1 0WS     -0.470800
     11 C8          1.6250    1.0040    1.9600 c1        1 0WS     -0.146900
     12 C7          2.3100    0.3190    2.9210 c1        1 0WS     -0.151000
     13 N2          2.1550   -1.0000    2.6830 n1        1 0WS     -0.190000
     14 N1          1.3690   -1.1410    1.5670 ne        1 0WS     -0.198600
     15 H4         -1.5070   -0.0120   -3.4340 ha        1 0WS      0.100500
     16 H2         -1.5770    0.0320    0.6190 ha        1 0WS      0.103500
     17 H3          0.8550   -0.0620   -3.3910 ha        1 0WS      0.073500
     18 H6          1.5610    1.9750    1.8830 DU        1 0WS      0.197333
     19 H5          2.8220    0.7140    3.6530 DU        1 0WS      0.197333
     20 H           2.5110   -1.6790    3.1770 DU        1 0WS      0.197333
@<TRIPOS>BOND
     1    1    7 3   
     2    1   15 1   
     3    2    3 3   
     4    2   16 1   
     5    3    5 1   
     6    4   10 3   
     7    4   17 1   
     8    5   11 2   
     9    5   14 1   
    10    6    9 2   
    11    8    9 2   
    12   11   12 2   
    13   12   13 2   
    14   13   14 2   
@<TRIPOS>SUBSTRUCTURE
     1 0WS         1 TEMP              0 ****  ****    0 ROOT
