@<TRIPOS>MOLECULE
0WS
   20    21     1     0     0
SMALL
bcc


@<TRIPOS>ATOM
      1 C5         -0.0190    0.0230   -0.0030 ca        1 0WS     -0.213300
      2 C2          0.0700   -0.0100    2.3980 ca        1 0WS     -0.179300
      3 C3          1.4780    0.0030    2.3090 ca        1 0WS      0.320300
      4 C4          1.3880    0.0350    0.0020 ca        1 0WS      0.352200
      5 C6          2.2980   -0.0070    3.5240 cc        1 0WS      0.281300
      6 O          -2.8330   -0.0040    0.1690 o         1 0WS     -0.823300
      7 C1         -0.6910   -0.0000    1.2210 ca        1 0WS     -0.104600
      8 O1         -2.7680   -0.0350    2.4030 o         1 0WS     -0.823300
      9 C          -2.2140   -0.0140    1.2700 c         1 0WS      0.907200
     10 N           2.1380    0.0260    1.1150 nb        1 0WS     -0.695000
     11 C8          3.7530   -0.0050    3.5610 cc        1 0WS     -0.260300
     12 C7          4.0810   -0.0170    4.9200 cd        1 0WS     -0.185300
     13 N2          2.8650   -0.0260    5.6150 na        1 0WS     -0.035600
     14 N1          1.8090   -0.0200    4.8030 nd        1 0WS     -0.506800
     15 H4         -0.5970    0.0310   -0.9380 ha        1 0WS      0.159000
     16 H2         -0.4560   -0.0280    3.3650 ha        1 0WS      0.175000
     17 H3          1.9530    0.0530   -0.9450 h4        1 0WS     -0.007900
     18 H6          4.4130    0.0050    2.7020 ha        1 0WS      0.173000
     19 H5          5.0390   -0.0210    5.4330 h4        1 0WS      0.159000
     20 H           2.7360   -0.0360    6.5960 hn        1 0WS      0.308700
@<TRIPOS>BOND
     1    1    4 ar  
     2    1    7 ar  
     3    1   15 1   
     4    2    3 ar  
     5    2    7 ar  
     6    2   16 1   
     7    3    5 1   
     8    3   10 ar  
     9    4   10 ar  
    10    4   17 1   
    11    5   11 1   
    12    5   14 2   
    13    6    9 1   
    14    7    9 1   
    15    8    9 1   
    16   11   12 2   
    17   11   18 1   
    18   12   13 1   
    19   12   19 1   
    20   13   14 1   
    21   13   20 1   
@<TRIPOS>SUBSTRUCTURE
     1 0WS         1 TEMP              0 ****  ****    0 ROOT
