@<TRIPOS>MOLECULE
0WS
   20    21     1     0     0
SMALL
bcc


@<TRIPOS>ATOM
      1 C5         -0.0190    0.0830   -0.0020 ca        1 0WS     -0.213300
      2 C2          0.0760   -0.0290    2.3960 ca        1 0WS     -0.179300
      3 C3          1.4800    0.0700    2.3070 ca        1 0WS      0.320300
      4 C4          1.3850    0.1780    0.0040 ca        1 0WS      0.351200
      5 C6          2.2990    0.0520    3.5220 cc        1 0WS      0.281300
      6 O          -2.8280   -0.0930    0.1700 o         1 0WS     -0.823800
      7 C1         -0.6860   -0.0240    1.2200 ca        1 0WS     -0.104600
      8 O1         -2.7520   -0.2710    2.3970 o         1 0WS     -0.823800
      9 C          -2.2050   -0.1370    1.2680 c         1 0WS      0.907200
     10 N           2.1370    0.1730    1.1150 nb        1 0WS     -0.694000
     11 C8          3.7310   -0.2080    3.5710 cc        1 0WS     -0.261300
     12 C7          4.0660   -0.1300    4.9260 cd        1 0WS     -0.184300
     13 N2          2.8800    0.1670    5.6060 na        1 0WS     -0.035600
     14 N1          1.8320    0.2730    4.7900 nd        1 0WS     -0.505800
     15 H4         -0.5980    0.0910   -0.9360 ha        1 0WS      0.159000
     16 H2         -0.4440   -0.1130    3.3620 ha        1 0WS      0.173000
     17 H3          1.9460    0.2650   -0.9420 h4        1 0WS     -0.007900
     18 H6          4.3710   -0.4090    2.7200 ha        1 0WS      0.173000
     19 H5          5.0140   -0.2530    5.4430 h4        1 0WS      0.159000
     20 H           2.7590    0.2680    6.5830 hn        1 0WS      0.308700
@<TRIPOS>BOND
     1    1    4 ar  
     2    1    7 ar  
     3    1   15 1   
     4    2    3 ar  
     5    2    7 ar  
     6    2   16 1   
     7    3    5 1   
     8    3   10 ar  
     9    4   10 ar  
    10    4   17 1   
    11    5   11 1   
    12    5   14 2   
    13    6    9 1   
    14    7    9 1   
    15    8    9 1   
    16   11   12 2   
    17   11   18 1   
    18   12   13 1   
    19   12   19 1   
    20   13   14 1   
    21   13   20 1   
@<TRIPOS>SUBSTRUCTURE
     1 0WS         1 TEMP              0 ****  ****    0 ROOT
