@<TRIPOS>MOLECULE
0WS
   20    21     1     0     0
SMALL
bcc


@<TRIPOS>ATOM
      1 C5         -0.0220    0.0890    0.0000 ca        1 0WS     -0.213300
      2 C2          0.0770   -0.0440    2.3970 ca        1 0WS     -0.179300
      3 C3          1.4790    0.0750    2.3080 ca        1 0WS      0.320300
      4 C4          1.3800    0.2030    0.0050 ca        1 0WS      0.351200
      5 C6          2.3000    0.0570    3.5220 cc        1 0WS      0.281300
      6 O          -2.8290   -0.1270    0.1730 o         1 0WS     -0.823800
      7 C1         -0.6870   -0.0390    1.2210 ca        1 0WS     -0.104600
      8 O1         -2.7480   -0.3240    2.3980 o         1 0WS     -0.823800
      9 C          -2.2040   -0.1730    1.2700 c         1 0WS      0.907200
     10 N           2.1330    0.1980    1.1160 nb        1 0WS     -0.694000
     11 C8          3.7350   -0.1810    3.5660 cc        1 0WS     -0.261300
     12 C7          4.0710   -0.1130    4.9210 cd        1 0WS     -0.184300
     13 N2          2.8800    0.1580    5.6060 na        1 0WS     -0.035600
     14 N1          1.8300    0.2570    4.7920 nd        1 0WS     -0.505800
     15 H4         -0.6030    0.0980   -0.9330 ha        1 0WS      0.159000
     16 H2         -0.4420   -0.1440    3.3630 ha        1 0WS      0.173000
     17 H3          1.9390    0.3060   -0.9400 h4        1 0WS     -0.007900
     18 H6          4.3770   -0.3630    2.7130 ha        1 0WS      0.173000
     19 H5          5.0210   -0.2260    5.4370 h4        1 0WS      0.159000
     20 H           2.7590    0.2470    6.5840 hn        1 0WS      0.308700
@<TRIPOS>BOND
     1    1    4 ar  
     2    1    7 ar  
     3    1   15 1   
     4    2    3 ar  
     5    2    7 ar  
     6    2   16 1   
     7    3    5 1   
     8    3   10 ar  
     9    4   10 ar  
    10    4   17 1   
    11    5   11 1   
    12    5   14 2   
    13    6    9 1   
    14    7    9 1   
    15    8    9 1   
    16   11   12 2   
    17   11   18 1   
    18   12   13 1   
    19   12   19 1   
    20   13   14 1   
    21   13   20 1   
@<TRIPOS>SUBSTRUCTURE
     1 0WS         1 TEMP              0 ****  ****    0 ROOT
