@<TRIPOS>MOLECULE
0WS
   20    21     1     0     0
SMALL
bcc


@<TRIPOS>ATOM
      1 C5         -2.0040    1.4780   -0.0610 ca        1 0WS     -0.213300
      2 C2         -0.5040   -0.3960    0.0190 ca        1 0WS     -0.179300
      3 C3          0.5740    0.5100   -0.0680 ca        1 0WS      0.320300
      4 C4         -0.8710    2.3090   -0.1450 ca        1 0WS      0.351200
      5 C6          1.9540    0.0190   -0.0600 cc        1 0WS      0.281300
      6 O          -4.1620   -0.3300    0.0900 o         1 0WS     -0.823800
      7 C1         -1.8150    0.0980    0.0240 ca        1 0WS     -0.104600
      8 O1         -2.7790   -2.0790    0.2390 o         1 0WS     -0.823800
      9 C          -3.0090   -0.8440    0.1250 c         1 0WS      0.907200
     10 N           0.3940    1.8610   -0.1490 nb        1 0WS     -0.694000
     11 C8          3.1340    0.8250    0.2110 cc        1 0WS     -0.261300
     12 C7          4.2090   -0.0640    0.1180 cd        1 0WS     -0.184300
     13 N2          3.6570   -1.3110   -0.1990 na        1 0WS     -0.035600
     14 N1          2.3300   -1.2750   -0.3030 nd        1 0WS     -0.505800
     15 H4         -3.0250    1.8870   -0.0610 ha        1 0WS      0.159000
     16 H2         -0.3490   -1.4840    0.0860 ha        1 0WS      0.173000
     17 H3         -0.9810    3.4050   -0.2150 h4        1 0WS     -0.007900
     18 H6          3.1450    1.8860    0.4290 ha        1 0WS      0.173000
     19 H5          5.2790    0.0800    0.2410 h4        1 0WS      0.159000
     20 H           4.1400   -2.1670   -0.3150 hn        1 0WS      0.308700
@<TRIPOS>BOND
     1    1    4 ar  
     2    1    7 ar  
     3    1   15 1   
     4    2    3 ar  
     5    2    7 ar  
     6    2   16 1   
     7    3    5 1   
     8    3   10 ar  
     9    4   10 ar  
    10    4   17 1   
    11    5   11 1   
    12    5   14 2   
    13    6    9 1   
    14    7    9 1   
    15    8    9 1   
    16   11   12 2   
    17   11   18 1   
    18   12   13 1   
    19   12   19 1   
    20   13   14 1   
    21   13   20 1   
@<TRIPOS>SUBSTRUCTURE
     1 0WS         1 TEMP              0 ****  ****    0 ROOT
