@<TRIPOS>MOLECULE
0WT
   45    49     1     0     0
SMALL
bcc


@<TRIPOS>ATOM
      1 Cl1        -0.3230   -0.3180    0.4830 cl        1 0WT     -0.026400
      2 C4          1.3340   -0.3310    0.3210 cc        1 0WT     -0.028800
      3 C5          2.2570   -0.6880    1.3170 cd        1 0WT     -0.020300
      4 C10         1.9420   -1.1200    2.6980 c3        1 0WT     -0.035200
      5 C11         3.1400   -1.4790    3.5390 c3        1 0WT     -0.106100
      6 N1          3.5630   -0.5760    0.8090 na        1 0WT     -0.263100
      7 C3          2.0780    0.0220   -0.8600 ca        1 0WT     -0.286400
      8 C6          1.7960    0.4570   -2.1710 ca        1 0WT      0.654200
      9 N13         0.4130    0.6320   -2.5540 nh        1 0WT     -0.684300
     10 C17         0.0790    2.0170   -2.9370 c3        1 0WT      0.174800
     11 C16        -0.3820    2.0240   -4.3930 cx        1 0WT     -0.111700
     12 C18         0.6350    1.5000   -5.3930 cx        1 0WT     -0.015500
     13 N19         0.5870    1.9350   -6.7970 nz        1 0WT     -0.798600
     14 C15        -0.4400    0.5790   -4.8390 cx        1 0WT     -0.111700
     15 C14        -0.0120   -0.2690   -3.6430 c3        1 0WT      0.174800
     16 N7          2.8020    0.7060   -3.0560 nb        1 0WT     -0.799000
     17 C8          4.0880    0.5110   -2.6060 ca        1 0WT      0.865300
     18 N9          4.5200    0.0950   -1.3810 nb        1 0WT     -0.722000
     19 C2          3.4940   -0.1450   -0.5130 ca        1 0WT      0.486800
     20 O20         5.0110    0.8010   -3.6150 os        1 0WT     -0.337400
     21 C21         6.3570    0.6870   -3.2840 ca        1 0WT     -0.158500
     22 C26         6.9920   -0.5650   -3.1240 ca        1 0WT      0.443700
     23 N25         8.3240   -0.6490   -2.9450 nb        1 0WT     -0.675500
     24 C24         9.0060    0.5300   -2.9200 ca        1 0WT      0.642900
     25 N23         8.4840    1.7810   -3.0560 nb        1 0WT     -0.675500
     26 C22         7.1510    1.8560   -3.2320 ca        1 0WT      0.443700
     27 H1          1.2490   -2.0050    2.6310 hc        1 0WT      0.079200
     28 H2          1.3680   -0.2890    3.1960 hc        1 0WT      0.079200
     29 H3          3.8230   -0.6050    3.6670 hc        1 0WT      0.048367
     30 H4          3.7150   -2.3230    3.0860 hc        1 0WT      0.048367
     31 H5          2.7980   -1.8000    4.5540 hc        1 0WT      0.048367
     32 H6          4.3920   -0.7690    1.3150 hn        1 0WT      0.330700
     33 H7          0.9260    2.7340   -2.7740 h1        1 0WT      0.092950
     34 H8         -0.7860    2.3290   -2.2840 h1        1 0WT      0.092950
     35 H9         -1.1220    2.7920   -4.6640 hc        1 0WT      0.120700
     36 H10         1.7020    1.3610   -5.0800 hx        1 0WT      0.186700
     37 H11         1.0340    1.2240   -7.3870 hn        1 0WT      0.459800
     38 H12         1.0960    2.8210   -6.8940 hn        1 0WT      0.459800
     39 H14        -1.2270    0.1530   -5.4790 hc        1 0WT      0.120700
     40 H15         0.7790   -1.0110   -3.9310 h1        1 0WT      0.092950
     41 H16        -0.9100   -0.8320   -3.2600 h1        1 0WT      0.092950
     42 H17         6.4220   -1.5100   -3.1340 h4        1 0WT      0.042100
     43 H18        10.1050    0.4650   -2.7700 h5        1 0WT      0.071100
     44 H19         6.7090    2.8620   -3.3450 h4        1 0WT      0.042100
     45 H193       -0.3800    2.0680   -7.1080 hn        1 0WT      0.459800
@<TRIPOS>BOND
     1    1    2 1   
     2    2    3 2   
     3    2    7 1   
     4    3    4 1   
     5    3    6 1   
     6    4    5 1   
     7    4   27 1   
     8    4   28 1   
     9    5   29 1   
    10    5   30 1   
    11    5   31 1   
    12    6   19 1   
    13    6   32 1   
    14    7    8 ar  
    15    7   19 ar  
    16    8    9 1   
    17    8   16 ar  
    18    9   10 1   
    19    9   15 1   
    20   10   11 1   
    21   10   33 1   
    22   10   34 1   
    23   11   12 1   
    24   11   14 1   
    25   11   35 1   
    26   12   13 1   
    27   12   14 1   
    28   12   36 1   
    29   13   37 1   
    30   13   38 1   
    31   13   45 1   
    32   14   15 1   
    33   14   39 1   
    34   15   40 1   
    35   15   41 1   
    36   16   17 ar  
    37   17   18 ar  
    38   17   20 1   
    39   18   19 ar  
    40   20   21 1   
    41   21   22 ar  
    42   21   26 ar  
    43   22   23 ar  
    44   22   42 1   
    45   23   24 ar  
    46   24   25 ar  
    47   24   43 1   
    48   25   26 ar  
    49   26   44 1   
@<TRIPOS>SUBSTRUCTURE
     1 0WT         1 TEMP              0 ****  ****    0 ROOT
