@<TRIPOS>MOLECULE
0WT
   45    49     1     0     0
SMALL
bcc


@<TRIPOS>ATOM
      1 CL1        -0.2990   -0.3830    0.5040 cl        1 0WT     -0.026400
      2 C4          1.3570   -0.3950    0.3230 cc        1 0WT     -0.027800
      3 C5          2.2900   -0.7780    1.2990 cd        1 0WT     -0.020300
      4 C10         1.9900   -1.2480    2.6710 c3        1 0WT     -0.035200
      5 C11         3.2000   -1.5190    3.5270 c3        1 0WT     -0.106100
      6 N1          3.5900   -0.6560    0.7790 na        1 0WT     -0.263100
      7 C3          2.0880   -0.0140   -0.8570 ca        1 0WT     -0.286400
      8 C6          1.7910    0.4530   -2.1550 ca        1 0WT      0.654200
      9 N13         0.4040    0.6390   -2.5180 nh        1 0WT     -0.684300
     10 C17         0.0670    2.0340   -2.8620 c3        1 0WT      0.174800
     11 C16        -0.4100    2.0780   -4.3120 cx        1 0WT     -0.111700
     12 C18         0.5960    1.5770   -5.3360 cx        1 0WT     -0.015500
     13 N19         0.5320    2.0470   -6.7280 n4        1 0WT     -0.798600
     14 C15        -0.4740    0.6430   -4.7930 cx        1 0WT     -0.111700
     15 C14        -0.0340   -0.2340   -3.6230 c3        1 0WT      0.174800
     16 N7          2.7870    0.7230   -3.0440 nb        1 0WT     -0.799000
     17 C8          4.0790    0.5160   -2.6130 ca        1 0WT      0.865300
     18 N9          4.5230    0.0680   -1.4040 nb        1 0WT     -0.722000
     19 C2          3.5070   -0.1920   -0.5310 ca        1 0WT      0.486800
     20 O20         4.9900    0.8300   -3.6260 os        1 0WT     -0.337400
     21 C21         6.3400    0.7060   -3.3120 ca        1 0WT     -0.158500
     22 C26         6.9750   -0.5500   -3.1910 ca        1 0WT      0.443700
     23 N25         8.3090   -0.6400   -3.0290 nb        1 0WT     -0.675500
     24 C24         8.9920    0.5370   -2.9820 ca        1 0WT      0.642900
     25 N23         8.4700    1.7910   -3.0810 nb        1 0WT     -0.675500
     26 C22         7.1360    1.8730   -3.2400 ca        1 0WT      0.443700
     27 H1          1.3700   -2.1840    2.5870 hc        1 0WT      0.079200
     28 H2          1.3440   -0.4690    3.1670 hc        1 0WT      0.079200
     29 H3          3.8310   -2.3320    3.0920 hc        1 0WT      0.048033
     30 H4          3.8260   -0.6020    3.6460 hc        1 0WT      0.048033
     31 H5          2.8690   -1.8460    4.5440 hc        1 0WT      0.048033
     32 H6          4.4240   -0.8580    1.2730 hn        1 0WT      0.330700
     33 H7          0.9180    2.7450   -2.6910 h1        1 0WT      0.092950
     34 H8         -0.7890    2.3300   -2.1910 h1        1 0WT      0.092950
     35 H9         -1.1510    2.8520   -4.5550 hc        1 0WT      0.120700
     36 H10         1.6650    1.4290   -5.0390 hx        1 0WT      0.186700
     37 H11         0.9720    1.3500   -7.3400 hn        1 0WT      0.459800
     38 H12         1.0410    2.9340   -6.8090 hn        1 0WT      0.459800
     39 H14        -1.2690    0.2350   -5.4340 hc        1 0WT      0.120700
     40 H15        -0.9290   -0.8050   -3.2440 h1        1 0WT      0.092950
     41 H16         0.7520   -0.9700   -3.9390 h1        1 0WT      0.092950
     42 H17         6.4040   -1.4950   -3.2190 h4        1 0WT      0.042100
     43 H18        10.0930    0.4670   -2.8460 h5        1 0WT      0.071100
     44 H19         6.6940    2.8810   -3.3220 h4        1 0WT      0.042100
     45 H193       -0.4380    2.1890   -7.0250 hn        1 0WT      0.459800
@<TRIPOS>BOND
     1    1    2 1   
     2    2    3 2   
     3    2    7 1   
     4    3    4 1   
     5    3    6 1   
     6    4    5 1   
     7    4   27 1   
     8    4   28 1   
     9    5   29 1   
    10    5   30 1   
    11    5   31 1   
    12    6   19 1   
    13    6   32 1   
    14    7    8 ar  
    15    7   19 ar  
    16    8    9 1   
    17    8   16 ar  
    18    9   10 1   
    19    9   15 1   
    20   10   11 1   
    21   10   33 1   
    22   10   34 1   
    23   11   12 1   
    24   11   14 1   
    25   11   35 1   
    26   12   13 1   
    27   12   14 1   
    28   12   36 1   
    29   13   37 1   
    30   13   38 1   
    31   13   45 1   
    32   14   15 1   
    33   14   39 1   
    34   15   40 1   
    35   15   41 1   
    36   16   17 ar  
    37   17   18 ar  
    38   17   20 1   
    39   18   19 ar  
    40   20   21 1   
    41   21   22 ar  
    42   21   26 ar  
    43   22   23 ar  
    44   22   42 1   
    45   23   24 ar  
    46   24   25 ar  
    47   24   43 1   
    48   25   26 ar  
    49   26   44 1   
@<TRIPOS>SUBSTRUCTURE
     1 0WT         1 TEMP              0 ****  ****    0 ROOT
