@<TRIPOS>MOLECULE
0WT
   45    49     1     0     0
SMALL
bcc


@<TRIPOS>ATOM
      1 CL1        -0.3060   -0.3060    0.5050 cl        1 0WT     -0.026400
      2 C4          1.3490   -0.3390    0.3270 cc        1 0WT     -0.027800
      3 C5          2.2760   -0.7190    1.3090 cd        1 0WT     -0.020300
      4 C10         1.9690   -1.1620    2.6890 c3        1 0WT     -0.035200
      5 C11         3.1710   -1.5470    3.5130 c3        1 0WT     -0.106100
      6 N1          3.5790   -0.6190    0.7900 na        1 0WT     -0.263100
      7 C3          2.0860    0.0170   -0.8570 ca        1 0WT     -0.286400
      8 C6          1.7960    0.4700   -2.1620 ca        1 0WT      0.654200
      9 N13         0.4120    0.6670   -2.5290 nh        1 0WT     -0.684300
     10 C17         0.0920    2.0610   -2.8920 c3        1 0WT      0.174800
     11 C16        -0.3830    2.0910   -4.3430 cx        1 0WT     -0.111700
     12 C18         0.6170    1.5650   -5.3590 cx        1 0WT     -0.015500
     13 N19         0.5610    2.0170   -6.7570 n4        1 0WT     -0.798600
     14 C15        -0.4640    0.6520   -4.8050 cx        1 0WT     -0.111700
     15 C14        -0.0360   -0.2150   -3.6230 c3        1 0WT      0.174800
     16 N7          2.7960    0.7150   -3.0540 nb        1 0WT     -0.799000
     17 C8          4.0850    0.4980   -2.6180 ca        1 0WT      0.865300
     18 N9          4.5230    0.0630   -1.4020 nb        1 0WT     -0.722000
     19 C2          3.5020   -0.1730   -0.5260 ca        1 0WT      0.486800
     20 O20         5.0010    0.7870   -3.6340 os        1 0WT     -0.337400
     21 C21         6.3490    0.6530   -3.3170 ca        1 0WT     -0.158500
     22 C26         6.9690   -0.6090   -3.1760 ca        1 0WT      0.443700
     23 N25         8.3020   -0.7120   -3.0110 nb        1 0WT     -0.675500
     24 C24         8.9990    0.4580   -2.9790 ca        1 0WT      0.642900
     25 N23         8.4910    1.7160   -3.0970 nb        1 0WT     -0.675500
     26 C22         7.1580    1.8110   -3.2590 ca        1 0WT      0.443700
     27 H1          1.4110   -0.3290    3.2020 hc        1 0WT      0.079200
     28 H2          1.2630   -2.0370    2.6200 hc        1 0WT      0.079200
     29 H3          3.7300   -2.3930    3.0460 hc        1 0WT      0.048033
     30 H4          2.8340   -1.8750    4.5280 hc        1 0WT      0.048033
     31 H5          3.8670   -0.6830    3.6440 hc        1 0WT      0.048033
     32 H6          4.4100   -0.8290    1.2860 hn        1 0WT      0.330700
     33 H7         -0.7620    2.3760   -2.2260 h1        1 0WT      0.092950
     34 H8          0.9510    2.7650   -2.7290 h1        1 0WT      0.092950
     35 H9         -1.1150    2.8710   -4.5980 hc        1 0WT      0.120700
     36 H10         1.6850    1.4090   -5.0590 hx        1 0WT      0.186700
     37 H11         0.9930    1.3070   -7.3600 hn        1 0WT      0.459800
     38 H12        -0.4070    2.1670   -7.0570 hn        1 0WT      0.459800
     39 H14        -1.2630    0.2440   -5.4420 hc        1 0WT      0.120700
     40 H15         0.7430   -0.9640   -3.9280 h1        1 0WT      0.092950
     41 H16        -0.9380   -0.7700   -3.2380 h1        1 0WT      0.092950
     42 H17         6.3870   -1.5470   -3.1920 h4        1 0WT      0.042100
     43 H18        10.0980    0.3770   -2.8410 h5        1 0WT      0.071100
     44 H19         6.7280    2.8230   -3.3570 h4        1 0WT      0.042100
     45 H193        1.0810    2.8980   -6.8490 hn        1 0WT      0.459800
@<TRIPOS>BOND
     1    1    2 1   
     2    2    3 2   
     3    2    7 1   
     4    3    4 1   
     5    3    6 1   
     6    4    5 1   
     7    4   27 1   
     8    4   28 1   
     9    5   29 1   
    10    5   30 1   
    11    5   31 1   
    12    6   19 1   
    13    6   32 1   
    14    7    8 ar  
    15    7   19 ar  
    16    8    9 1   
    17    8   16 ar  
    18    9   10 1   
    19    9   15 1   
    20   10   11 1   
    21   10   33 1   
    22   10   34 1   
    23   11   12 1   
    24   11   14 1   
    25   11   35 1   
    26   12   13 1   
    27   12   14 1   
    28   12   36 1   
    29   13   37 1   
    30   13   38 1   
    31   13   45 1   
    32   14   15 1   
    33   14   39 1   
    34   15   40 1   
    35   15   41 1   
    36   16   17 ar  
    37   17   18 ar  
    38   17   20 1   
    39   18   19 ar  
    40   20   21 1   
    41   21   22 ar  
    42   21   26 ar  
    43   22   23 ar  
    44   22   42 1   
    45   23   24 ar  
    46   24   25 ar  
    47   24   43 1   
    48   25   26 ar  
    49   26   44 1   
@<TRIPOS>SUBSTRUCTURE
     1 0WT         1 TEMP              0 ****  ****    0 ROOT
