@<TRIPOS>MOLECULE
0WT
   44    48     1     0     0
SMALL
bcc


@<TRIPOS>ATOM
      1 CL1         3.2840   -2.4790    0.4110 cl        1 0WT     -0.042400
      2 C4          1.6390   -2.2990    0.2030 cc        1 0WT     -0.005800
      3 C5          0.7280   -3.3450   -0.0060 cd        1 0WT     -0.060300
      4 C10         1.0410   -4.7880   -0.1190 c3        1 0WT     -0.027200
      5 C11        -0.1430   -5.7020    0.0750 c3        1 0WT     -0.101100
      6 N1         -0.5690   -2.8180   -0.1190 na        1 0WT     -0.269100
      7 C3          0.8970   -1.0650    0.2250 ca        1 0WT     -0.322400
      8 C6          1.1810    0.3210    0.4030 ca        1 0WT      0.708200
      9 N13         2.5380    0.7060    0.6350 nh        1 0WT     -0.713300
     10 C17         3.3370    0.7950   -0.6080 c3        1 0WT      0.190800
     11 C16         3.9980    2.1630   -0.6550 cx        1 0WT     -0.170200
     12 C18         3.0600    3.3560   -0.6890 cx        1 0WT      0.143500
     13 N19         3.4450    4.5670   -1.3250 n3        1 0WT     -0.883800
     14 C15         3.6400    2.8730    0.6370 cx        1 0WT     -0.170200
     15 C14         2.7720    1.9190    1.4410 c3        1 0WT      0.190800
     16 N7          0.1680    1.2300    0.3830 nb        1 0WT     -0.754000
     17 C8         -1.1090    0.7430    0.2060 ca        1 0WT      0.869300
     18 N9         -1.5340   -0.5370    0.0210 nb        1 0WT     -0.759000
     19 C2         -0.5000   -1.4340    0.0320 ca        1 0WT      0.482800
     20 O20        -2.0380    1.7900    0.2250 os        1 0WT     -0.324400
     21 C21        -3.3660    1.4570   -0.0060 ca        1 0WT     -0.134500
     22 C26        -4.1420    0.7130    0.9110 ca        1 0WT      0.437200
     23 N25        -5.4630    0.5320    0.7180 nb        1 0WT     -0.685000
     24 C24        -5.9910    1.1010   -0.4010 ca        1 0WT      0.625900
     25 N23        -5.3300    1.8290   -1.3410 nb        1 0WT     -0.685000
     26 C22        -4.0090    2.0020   -1.1420 ca        1 0WT      0.437200
     27 H1          1.4960   -4.9730   -1.1330 hc        1 0WT      0.069200
     28 H2          1.8310   -5.0290    0.6460 hc        1 0WT      0.069200
     29 H3         -0.6530   -5.4960    1.0470 hc        1 0WT      0.041700
     30 H4         -0.8850   -5.5850   -0.7510 hc        1 0WT      0.041700
     31 H5          0.2030   -6.7640    0.0810 hc        1 0WT      0.041700
     32 H6         -1.3930   -3.3480   -0.2420 hn        1 0WT      0.318700
     33 H7          4.1240   -0.0070   -0.5450 h1        1 0WT      0.067700
     34 H8          2.7170    0.6170   -1.5270 h1        1 0WT      0.067700
     35 H9          4.9930    2.2000   -1.1200 hc        1 0WT      0.098700
     36 H10         1.9770    3.1530   -0.8680 h1        1 0WT      0.109700
     37 H11         2.8810    5.3280   -1.0030 hn        1 0WT      0.357300
     38 H12         4.4120    4.7780   -1.1770 hn        1 0WT      0.357300
     39 H14         4.3510    3.4810    1.2120 hc        1 0WT      0.098700
     40 H15         1.8320    2.4280    1.7800 h1        1 0WT      0.067700
     41 H16         3.3350    1.5750    2.3540 h1        1 0WT      0.067700
     42 H17        -3.6920    0.2500    1.8070 h4        1 0WT      0.044600
     43 H18        -7.0790    0.9540   -0.5640 h5        1 0WT      0.058100
     44 H19        -3.4520    2.5950   -1.8890 h4        1 0WT      0.044600
@<TRIPOS>BOND
     1    1    2 1   
     2    2    3 2   
     3    2    7 1   
     4    3    4 1   
     5    3    6 1   
     6    4    5 1   
     7    4   27 1   
     8    4   28 1   
     9    5   29 1   
    10    5   30 1   
    11    5   31 1   
    12    6   19 1   
    13    6   32 1   
    14    7    8 ar  
    15    7   19 ar  
    16    8    9 1   
    17    8   16 ar  
    18    9   10 1   
    19    9   15 1   
    20   10   11 1   
    21   10   33 1   
    22   10   34 1   
    23   11   12 1   
    24   11   14 1   
    25   11   35 1   
    26   12   13 1   
    27   12   14 1   
    28   12   36 1   
    29   13   37 1   
    30   13   38 1   
    31   14   15 1   
    32   14   39 1   
    33   15   40 1   
    34   15   41 1   
    35   16   17 ar  
    36   17   18 ar  
    37   17   20 1   
    38   18   19 ar  
    39   20   21 1   
    40   21   22 ar  
    41   21   26 ar  
    42   22   23 ar  
    43   22   42 1   
    44   23   24 ar  
    45   24   25 ar  
    46   24   43 1   
    47   25   26 ar  
    48   26   44 1   
@<TRIPOS>SUBSTRUCTURE
     1 0WT         1 TEMP              0 ****  ****    0 ROOT
