@<TRIPOS>MOLECULE
0WU
   25    23     1     0     0
SMALL
bcc


@<TRIPOS>ATOM
      1 C4          0.2050    0.0480    0.2860 c3        1 0WU      0.010700
      2 C5          1.7310   -0.1230    0.2930 c3        1 0WU      0.064700
      3 C6          2.2170   -0.4100    1.6700 c2        1 0WU     -0.432300
      4 C8          2.1140   -1.2340   -0.6470 c2        1 0WU     -0.114400
      5 C9          2.8730   -0.8100   -1.8490 c3        1 0WU     -0.061900
      6 C10         1.7890   -2.5090   -0.4190 c2        1 0WU     -0.219000
      7 C3         -0.2180    1.2610    0.9150 c1        1 0WU     -0.143100
      8 C1          3.0980    0.3370    2.2940 c1        1 0WU      0.554600
      9 O1          3.8990    0.9990    2.8780 o         1 0WU     -0.394500
     10 C2         -0.5900    2.2730    1.4370 c1        1 0WU     -0.136100
     11 H1          0.2010   -2.9890    2.6030 ha        1 0WU      0.001500
     12 H2         -0.2650   -0.8340    0.8050 hc        1 0WU      0.063200
     13 H3         -0.1510    0.0420   -0.7830 hc        1 0WU      0.063200
     14 H4          2.1900    0.8380   -0.0790 hc        1 0WU      0.057700
     15 H5          1.8020   -1.2950    2.1760 ha        1 0WU      0.181000
     16 H6         -0.1630    4.0450    2.4790 hc        1 0WU      0.053700
     17 H7         -1.7440    3.2510    2.8940 hc        1 0WU      0.053700
     18 H8         -1.5580    4.1330    1.3150 hc        1 0WU      0.053700
     19 H9          3.8430   -0.3410   -1.5460 hc        1 0WU      0.043700
     20 H10         2.2860   -0.0550   -2.4290 hc        1 0WU      0.043700
     21 H11         3.0950   -1.6770   -2.5190 hc        1 0WU      0.043700
     22 H12         1.2270   -2.8210    0.4720 ha        1 0WU      0.114000
     23 H13         2.0660   -3.3180   -1.1070 ha        1 0WU      0.114000
     24 H14        -0.2270   -2.5400    2.3320 ha        1 0WU      0.001500
     25 C7         -1.0330    3.4770    2.0580 c3        1 0WU     -0.016000
@<TRIPOS>BOND
     1    1    2 1   
     2    1    7 1   
     3    1   12 1   
     4    1   13 1   
     5    2    3 1   
     6    2    4 1   
     7    2   14 1   
     8    3    8 2   
     9    3   15 1   
    10    4    5 1   
    11    4    6 2   
    12    5   19 1   
    13    5   20 1   
    14    5   21 1   
    15    6   22 1   
    16    6   23 1   
    17    7   10 3   
    18    8    9 2   
    19   10   25 1   
    20   11   24 1   
    21   16   25 1   
    22   17   25 1   
    23   18   25 1   
@<TRIPOS>SUBSTRUCTURE
     1 0WU         1 TEMP              0 ****  ****    0 ROOT
