@<TRIPOS>MOLECULE
0WU
   25    24     1     0     0
SMALL
bcc


@<TRIPOS>ATOM
      1 C4         -1.6440    0.2190    0.1180 c3        1 0WU     -0.197000
      2 C5          2.7390   -0.0520   -0.0990 c2        1 0WU     -0.111000
      3 C6          1.6050    0.0600    0.6030 c2        1 0WU     -0.235000
      4 C8          3.4030   -1.3270   -0.4830 c3        1 0WU     -0.181000
      5 C9          3.7900   -1.4330   -1.8870 c1        1 0WU     -0.025000
      6 C10         2.6430   -2.5710   -0.0530 c3        1 0WU     -0.182000
      7 C3         -1.3530    0.8190    1.4330 c2        1 0WU     -0.126000
      8 C1          1.0220    1.3730    0.9390 c2        1 0WU      0.292000
      9 O1          1.5160    2.4410    0.5510 o         1 0WU     -0.293000
     10 C2         -0.1780    1.3390    1.8130 c2        1 0WU     -0.165000
     11 H1         -2.2090    0.8390    2.1310 ha        1 0WU      0.126000
     12 H2         -2.3710    0.8630   -0.4400 hc        1 0WU      0.087333
     13 H3         -0.7240    0.1070   -0.5080 hc        1 0WU      0.087333
     14 H4          3.2580    0.8620   -0.4480 ha        1 0WU      0.141000
     15 H5          1.0470   -0.8140    0.9740 ha        1 0WU      0.143000
     16 H6          0.4320    2.9970    3.0180 hc        1 0WU      0.088667
     17 H7          0.7570    1.3650    3.7430 hc        1 0WU      0.088667
     18 H8         -0.9340    2.0210    3.7160 hc        1 0WU      0.088667
     19 H9          4.4190   -1.3490    0.0450 hc        1 0WU      0.163000
     20 H10         3.7440   -0.5010   -2.4740 ha        1 0WU      0.040000
     21 H11         3.1900   -3.4840   -0.3910 hc        1 0WU      0.086333
     22 H12         1.6220   -2.5790   -0.5050 hc        1 0WU      0.086333
     23 H13         2.5430   -2.5950    1.0580 hc        1 0WU      0.086333
     24 H14        -2.1070   -0.7920    0.2500 hc        1 0WU      0.087333
     25 C7          0.0240    1.9620    3.1440 c3        1 0WU     -0.176000
@<TRIPOS>BOND
     1    1    7 1   
     2    1   12 1   
     3    1   13 1   
     4    1   24 1   
     5    2    3 1   
     6    2    4 1   
     7    2   14 1   
     8    3    8 1   
     9    3   15 1   
    10    4    5 1   
    11    4    6 1   
    12    4   19 1   
    13    5   20 1   
    14    6   21 1   
    15    6   22 1   
    16    6   23 1   
    17    7   10 1   
    18    7   11 1   
    19    8    9 1   
    20    8   10 1   
    21   10   25 1   
    22   16   25 1   
    23   17   25 1   
    24   18   25 1   
@<TRIPOS>SUBSTRUCTURE
     1 0WU         1 TEMP              0 ****  ****    0 ROOT
