@<TRIPOS>MOLECULE
0WU
   25    23     1     0     0
SMALL
bcc


@<TRIPOS>ATOM
      1 C4          0.1280    0.1460    0.3280 c3        1 0WU     -0.043000
      2 C5          1.6370    0.0470    0.0850 c3        1 0WU     -0.031000
      3 C6          2.3370   -0.3690    1.3270 c2        1 0WU     -0.380000
      4 C8          1.9360   -0.9220   -1.0680 c3        1 0WU     -0.192000
      5 C9          3.3190   -0.9560   -1.5250 c1        1 0WU     -0.031000
      6 C10         1.4430   -2.3340   -0.8020 c3        1 0WU     -0.180000
      7 C3         -0.2390    1.3370    1.0320 c1        1 0WU     -0.176000
      8 C1          3.1950    0.3950    1.9660 c1        1 0WU      0.264000
      9 O1          3.9930    1.0600    2.5480 o         1 0WU     -0.154000
     10 C2         -0.5630    2.3280    1.6210 c1        1 0WU     -0.158000
     11 H1          0.1460   -2.7770    2.3620 ha        1 0WU      0.001000
     12 H2         -0.4060    0.1280   -0.6640 hc        1 0WU      0.101000
     13 H3         -0.2150   -0.7550    0.9110 hc        1 0WU      0.101000
     14 H4          2.0060    1.0640   -0.2340 hc        1 0WU      0.090000
     15 H5          2.0770   -1.3530    1.7500 ha        1 0WU      0.183000
     16 H6         -0.0460    4.0910    2.6380 hc        1 0WU      0.094000
     17 H7         -1.5400    3.2460    3.2380 hc        1 0WU      0.094000
     18 H8         -1.5840    4.1640    1.6690 hc        1 0WU      0.094000
     19 H9          1.3850   -0.5340   -1.9880 hc        1 0WU      0.146000
     20 H10         3.9830   -0.1750   -1.1180 ha        1 0WU      0.035000
     21 H11         1.6560   -2.9830   -1.6860 hc        1 0WU      0.083333
     22 H12         1.9560   -2.7690    0.0890 hc        1 0WU      0.083333
     23 H13         0.3430   -2.3270   -0.6110 hc        1 0WU      0.083333
     24 H14         0.3030   -2.8820    1.7120 ha        1 0WU      0.001000
     25 C7         -0.9500    3.5080    2.3210 c3        1 0WU     -0.109000
@<TRIPOS>BOND
     1    1    2 1   
     2    1    7 1   
     3    1   12 1   
     4    1   13 1   
     5    2    3 1   
     6    2    4 1   
     7    2   14 1   
     8    3    8 1   
     9    3   15 1   
    10    4    5 1   
    11    4    6 1   
    12    4   19 1   
    13    5   20 1   
    14    6   21 1   
    15    6   22 1   
    16    6   23 1   
    17    7   10 1   
    18    8    9 1   
    19   10   25 1   
    20   11   24 1   
    21   16   25 1   
    22   17   25 1   
    23   18   25 1   
@<TRIPOS>SUBSTRUCTURE
     1 0WU         1 TEMP              0 ****  ****    0 ROOT
