@<TRIPOS>MOLECULE
0WU
   25    25     1     0     0
SMALL
bcc


@<TRIPOS>ATOM
      1 C4         -0.4200    1.4590    0.0410 c3        1 0WU     -0.057200
      2 C5         -0.9000    0.0730   -0.3750 c3        1 0WU     -0.021500
      3 C6         -0.1000   -1.0010    0.3490 c3        1 0WU     -0.175400
      4 C8         -2.3690   -0.1040   -0.1400 c2        1 0WU     -0.117400
      5 C9         -3.1700   -0.5650   -1.1080 c2        1 0WU     -0.215000
      6 C10        -2.8960    0.2540    1.2000 c3        1 0WU     -0.060900
      7 C3          1.0540    1.5790   -0.0440 c2        1 0WU     -0.110200
      8 C1          1.3780   -0.8550    0.1030 c         1 0WU      0.569300
      9 O1          2.1150   -1.8450    0.0240 o         1 0WU     -0.532100
     10 C2          1.8910    0.5290   -0.0090 ce        1 0WU     -0.196400
     11 H1         -0.9060    2.2310   -0.6130 hc        1 0WU      0.060700
     12 H2         -0.7330    1.6730    1.1000 hc        1 0WU      0.060700
     13 H3         -0.6980   -0.0390   -1.4810 hc        1 0WU      0.059700
     14 H4         -0.2710   -0.9320    1.4560 hc        1 0WU      0.074700
     15 H5         -0.4380   -2.0180    0.0160 hc        1 0WU      0.074700
     16 H6          3.8250    0.3500    0.8840 hc        1 0WU      0.049367
     17 H7          3.7720    0.0220   -0.8930 hc        1 0WU      0.049367
     18 H8          3.6610    1.7330   -0.2830 hc        1 0WU      0.049367
     19 H9         -4.2470   -0.7110   -0.9560 ha        1 0WU      0.115000
     20 H10        -2.8000   -0.8260   -2.1080 ha        1 0WU      0.115000
     21 H11        -2.2190   -0.1230    2.0070 hc        1 0WU      0.043367
     22 H12        -2.9710    1.3660    1.2970 hc        1 0WU      0.043367
     23 H13        -3.9130   -0.1800    1.3630 hc        1 0WU      0.043367
     24 H14         1.4440    2.6080   -0.1240 ha        1 0WU      0.130000
     25 C7          3.3640    0.6760   -0.0820 c3        1 0WU     -0.051900
@<TRIPOS>BOND
     1    1    2 1   
     2    1    7 1   
     3    1   11 1   
     4    1   12 1   
     5    2    3 1   
     6    2    4 1   
     7    2   13 1   
     8    3    8 1   
     9    3   14 1   
    10    3   15 1   
    11    4    5 2   
    12    4    6 1   
    13    5   19 1   
    14    5   20 1   
    15    6   21 1   
    16    6   22 1   
    17    6   23 1   
    18    7   10 2   
    19    7   24 1   
    20    8    9 2   
    21    8   10 1   
    22   10   25 1   
    23   16   25 1   
    24   17   25 1   
    25   18   25 1   
@<TRIPOS>SUBSTRUCTURE
     1 0WU         1 TEMP              0 ****  ****    0 ROOT
