@<TRIPOS>MOLECULE
0WU
   25    23     1     0     0
SMALL
bcc


@<TRIPOS>ATOM
      1 C4         -1.1520    0.3280   -0.5530 c3        1 0WU     -0.139000
      2 C5          0.3970    0.3020   -0.5150 c3        1 0WU     -0.067000
      3 C6          0.9380    0.2800    0.9660 c3        1 0WU     -0.204000
      4 C7         -1.6950    0.2050    2.4910 c3        1 0WU     -0.175000
      5 C8          0.9700   -0.8600   -1.3510 c2        1 0WU     -0.106000
      6 C9          0.7090   -2.1340   -1.0010 c1        1 0WU     -0.221000
      7 C10         1.8260   -0.5680   -2.5630 c3        1 0WU     -0.184000
      8 C3         -1.7020    1.4480    0.3860 c2        1 0WU     -0.106000
      9 C1          0.3750    1.4020    1.7110 c1        1 0WU      0.261000
     10 O1          0.8350    2.4340    1.2640 o         1 0WU     -0.293000
     11 C2         -1.1160    1.3950    1.7570 c1        1 0WU     -0.173000
     12 H1         -1.6440   -0.5130   -0.4660 hc        1 0WU      0.100000
     13 H2         -1.3770    0.5570   -1.4770 hc        1 0WU      0.100000
     14 H3          0.7590    1.0710   -0.9960 hc        1 0WU      0.100000
     15 H4          0.7660   -0.5950    1.3680 hc        1 0WU      0.114000
     16 H5          1.9150    0.3170    1.0030 hc        1 0WU      0.114000
     17 H6         -1.6850   -0.5780    1.9020 hc        1 0WU      0.088667
     18 H7         -1.1580    0.0210    3.2900 hc        1 0WU      0.088667
     19 H8         -2.6180    0.4030    2.7560 hc        1 0WU      0.088667
     20 H9          0.1550   -2.3230   -0.2170 DU        1 0WU      0.112000
     21 H10         1.0730   -2.8710   -1.5310 ha        1 0WU      0.117000
     22 H11         1.2730   -0.6090   -3.3710 hc        1 0WU      0.083333
     23 H12         2.2180    0.3260   -2.4800 hc        1 0WU      0.083333
     24 H13         2.5430   -1.2340   -2.6250 hc        1 0WU      0.083333
     25 H14        -2.6040    1.7960    0.2540 ha        1 0WU      0.130000
@<TRIPOS>BOND
     1    1    2 1   
     2    1    8 1   
     3    1   12 1   
     4    1   13 1   
     5    2    3 1   
     6    2    5 1   
     7    2   14 1   
     8    3    9 1   
     9    3   15 1   
    10    3   16 1   
    11    4   11 1   
    12    4   17 1   
    13    4   18 1   
    14    4   19 1   
    15    5    6 1   
    16    5    7 1   
    17    6   21 1   
    18    7   22 1   
    19    7   23 1   
    20    7   24 1   
    21    8   11 1   
    22    8   25 1   
    23    9   10 1   
@<TRIPOS>SUBSTRUCTURE
     1 0WU         1 TEMP              0 ****  ****    0 ROOT
